data_mof_unit_10123.cif
_audit_creation_date              2013-03-05T15:46:20-0500
_audit_creation_method            fapswitch 2.2
_symmetry_space_group_name_H-M    P1
_symmetry_Int_Tables_number       1
_space_group_crystal_system       triclinic
_cell_length_a                    10.176993
_cell_length_b                    10.69589
_cell_length_c                    10.614616
_cell_angle_alpha                 91.460077
_cell_angle_beta                  94.362957
_cell_angle_gamma                 81.386536
_cell_volume                      1138.96362244

loop_
_atom_site_label
_atom_site_type_symbol
_atom_site_description
_atom_site_fract_x
_atom_site_fract_y
_atom_site_fract_z
_atom_type_partial_charge
O1    O     O_R   0.568950 0.489660 0.307530 -0.569916
O2    O     O_R   0.348880 0.522640 0.340350 -0.578713
C1    C     C_R   0.445379 0.502394 0.266203 0.967298
O3    O     O_R   0.610060 0.300270 0.483590 -0.621465
O4    O     O_R   0.389990 0.333260 0.516410 -0.598986
C2    C     C_R   0.499245 0.258945 0.493668 0.907956
Zn1   Zn    Zn3+2 0.646940 0.477980 0.478090 1.018118
Zn2   Zn    Zn3+2 0.353060 0.522020 0.521910 1.108094
O5    O     O_R   0.651120 0.477360 0.659650 -0.590067
O6    O     O_R   0.431050 0.510340 0.692470 -0.584352
O7    O     O_R   0.610010 0.666740 0.483590 -0.632319
O8    O     O_R   0.389940 0.699730 0.516410 -0.559357
C3    C     C_R   0.554546 0.488040 0.733900 0.850987
C4    C     C_R   0.505714 0.737862 0.520086 0.905742
H1    H     H_    0.310132 0.144823 0.574487 0.224109
C5    C     C_R   0.729284 0.072256 0.411160 -0.148561
H2    H     H_    0.720703 0.156854 0.357177 0.219288
C6    C     C_R   0.851508 0.993410 0.412461 0.328619
C7    C     C_R   0.869712 0.881180 0.478451 -0.103869
H3    H     H_    0.965630 0.821676 0.483693 0.203381
C8    C     C_R   0.762696 0.843694 0.534167 -0.130207
H4    H     H_    0.780968 0.758112 0.588469 0.181031
C9    C     C_R   0.634391 0.916569 0.520977 0.053521
C10   C     C_R   0.621982 0.039332 0.475244 0.048513
C11   C     C_R   0.503619 0.123437 0.497522 -0.139709
C12   C     C_R   0.397042 0.079885 0.549970 -0.210850
C13   C     C_R   0.402745 0.953558 0.576652 0.292730
C14   C     C_R   0.517110 0.869687 0.548632 -0.226561
H5    H     H_    0.392319 0.405129 0.878909 0.201330
C15   C     C_2   0.416980 0.491100 0.131231 -0.346907
C16   C     C_2   0.496077 0.408430 0.063083 0.345033
C17   C     C_2   0.581790 0.463351 0.867645 0.139629
C18   C     C_2   0.485994 0.421393 0.928102 -0.233888
H6    H     H_    0.338004 0.558198 0.085467 0.181217
H7    H     H_    0.895204 0.554745 0.601032 0.181599
N1    N     N_2   0.157290 0.551390 0.551110 -0.032185
C19   C     C_2   0.072214 0.488492 0.489415 0.300455
H8    H     H_    0.872154 0.398637 0.369442 0.249258
N2    N     N_2   0.842740 0.448550 0.448960 -0.185383
C20   C     C_2   0.929223 0.499885 0.519520 -0.126944
Br1   Br    Br    0.130011 0.378704 0.351217 -0.387919
N3    N     N_R   0.124108 0.597374 0.670064 0.273408
O9    O     O_R   0.155356 0.525661 0.768177 -0.347678
O10   O     O_R   0.077264 0.716113 0.685933 -0.332394
Br2   Br    Br    0.994963 0.041817 0.328000 -0.346954
N4    N     N_R   0.296430 0.913063 0.639544 0.241381
O11   O     O_R   0.175021 0.971428 0.620759 -0.325011
O12   O     O_R   0.324091 0.832004 0.730660 -0.318371
Br3   Br    Br    0.621726 0.270526 0.132049 -0.410249
Br4   Br    Br    0.748378 0.496490 0.950267 -0.333878

loop_
_geom_bond_atom_site_label_1
_geom_bond_atom_site_label_2
_geom_bond_distance
_ccdc_geom_bond_type
O4    Zn2   1.997721 S    
C9    C10   1.396135 A    
C16   C18   1.437384 S    
C1    C15   1.445449 S    
C3    C17   1.448894 S    
N1    N3    1.390575 S    
C7    H3    1.080965 S    
Zn2   O8    1.994962 S    
C17   C18   1.343355 D    
H7    C20   1.082416 S    
C5    C10   1.421137 A    
C5    C6    1.393689 A    
O1    Zn1   1.920005 S    
C9    C14   1.415036 A    
Zn1   O7    1.997722 S    
C17   Br4   1.925344 S    
C12   C13   1.379410 A    
O4    C2    1.301044 A    
N3    O10   1.299445 A    
C16   Br3   1.922071 S    
O3    Zn1   1.994962 S    
C13   N4    1.438374 S    
O3    C2    1.284034 A    
N1    C19   1.302632 D    
C7    C8    1.391957 A    
O8    C4    1.300863 A    
O2    C1    1.294603 A    
C19   C20   1.500087 S    
C8    C9    1.415997 A    
C19   Br1   1.927006 S    
C15   C16   1.340107 D    
O7    C4    1.288818 A    
N4    O12   1.301740 A    
C2    C11   1.444904 S    
N3    O9    1.300506 A    
C15   H6    1.087469 S    
C6    Br2   1.911145 S    
H5    C18   1.086765 S    
C13   C14   1.405053 A    
H8    N2    1.026966 S    
C10   C11   1.422706 A    
Zn2   O6    1.920006 S    
C6    C7    1.386515 A    
Zn2   N1    2.016366 S    
N2    C20   1.288637 D    
Zn1   O5    1.924579 S    
Zn1   N2    2.016500 S    
N4    O11   1.301519 A    
H1    C12   1.083626 S    
O5    C3    1.296070 A    
C4    C14   1.454358 S    
C11   C12   1.399933 A    
C8    H4    1.079033 S    
O2    Zn2   1.924579 S    
C5    H2    1.072313 S    
O1    C1    1.288527 A    
O6    C3    1.288931 A    
