data_mof_unit_55003.cif
_audit_creation_date              2012-12-10T16:34:42-0500
_audit_creation_method            fapswitch 2.2
_symmetry_space_group_name_H-M    P1
_symmetry_Int_Tables_number       1
_space_group_crystal_system       triclinic
_cell_length_a                    28.315931
_cell_length_b                    18.484252
_cell_length_c                    16.890036
_cell_angle_alpha                 89.659056
_cell_angle_beta                  61.299378
_cell_angle_gamma                 89.572886
_cell_volume                      7753.87927709

loop_
_atom_site_label
_atom_site_type_symbol
_atom_type_description
_atom_site_fract_x
_atom_site_fract_y
_atom_site_fract_z
_atom_type_partial_charge
C1    C     C_R   0.702345 0.270486 0.676499 0.918326
C2    C     C_R   0.295194 0.725814 0.325902 0.896833
C3    C     C_R   0.298162 0.268684 0.323775 0.881389
C4    C     C_R   0.705016 0.725356 0.674138 0.889967
C5    C     C_R   0.201405 0.768279 0.676972 0.887235
C6    C     C_R   0.795513 0.226304 0.325358 0.843037
C7    C     C_R   0.797554 0.770562 0.323793 0.888434
C8    C     C_R   0.206033 0.223292 0.673007 0.895348
C9    C     C_R   0.910842 0.494890 0.468294 0.012923
C10   C     C_R   0.077333 0.498886 0.561600 0.026218
C11   C     C_R   0.420564 0.996218 0.436515 0.027444
C12   C     C_R   0.602667 0.996373 0.487983 0.030047
C13   C     C_R   0.076361 0.367015 0.565551 0.131670
C14   C     C_R   0.907749 0.624758 0.487194 0.062423
C15   C     C_R   0.929544 0.368783 0.423147 0.051589
C16   C     C_R   0.059536 0.630607 0.588247 -0.028396
C17   C     C_R   0.572917 0.880538 0.571495 0.047415
C18   C     C_R   0.442393 0.121946 0.386931 -0.019673
C19   C     C_R   0.420824 0.865254 0.443698 0.133065
C20   C     C_R   0.628845 0.111669 0.400300 -0.040416
C21   C     C_R   0.717457 0.273837 0.964682 -0.016212
C22   C     C_R   0.280274 0.727528 0.040923 -0.023450
C23   C     C_R   0.283080 0.264406 0.037290 -0.005921
C24   C     C_R   0.707076 0.744818 0.972920 0.005336
C25   C     C_R   0.209455 0.759798 0.971032 -0.022050
C26   C     C_R   0.794143 0.248142 0.026270 0.000655
C27   C     C_R   0.783115 0.772113 0.035347 -0.016269
C28   C     C_R   0.210679 0.240139 0.968231 -0.005632
C29   C     C_R   0.742280 0.205309 0.953520 0.054670
C30   C     C_R   0.270982 0.799613 0.023698 0.033169
C31   C     C_R   0.254901 0.198132 0.056445 0.061654
C32   C     C_R   0.730931 0.813656 0.960884 0.042823
C33   C     C_R   0.216140 0.686950 0.990053 0.049476
C34   C     C_R   0.768997 0.316540 0.038796 0.044294
C35   C     C_R   0.758846 0.703295 0.047536 0.057822
C36   C     C_R   0.243420 0.302836 0.944900 0.058439
C37   C     C_R   0.786061 0.196647 0.971265 0.053159
C38   C     C_R   0.227177 0.814815 0.008689 0.076510
C39   C     C_R   0.213831 0.190236 0.031253 0.057183
C40   C     C_R   0.774008 0.823847 0.980424 0.062539
C41   C     C_R   0.252635 0.670122 0.023898 0.120661
C42   C     C_R   0.725634 0.325804 0.019565 0.061271
C43   C     C_R   0.715508 0.693767 0.028765 0.053809
C44   C     C_R   0.287684 0.303767 0.961680 0.040285
C45   C     C_R   0.633749 0.316586 0.956589 -0.236560
C46   C     C_R   0.360040 0.677419 0.051198 -0.245674
C47   C     C_R   0.355514 0.332707 0.053957 -0.256883
C48   C     C_R   0.631556 0.688387 0.951986 -0.271550
C49   C     C_R   0.131258 0.812601 0.957774 -0.238160
C50   C     C_R   0.869696 0.191125 0.047437 -0.275758
C51   C     C_R   0.866156 0.817153 0.043877 -0.237146
C52   C     C_R   0.131879 0.190155 0.949689 -0.278606
C53   C     C_R   0.607877 0.336168 0.906557 -0.130915
C54   C     C_R   0.379276 0.644560 0.105817 -0.114904
C55   C     C_R   0.385029 0.345511 0.099744 -0.115557
C56   C     C_R   0.617325 0.648955 0.895614 -0.117330
C57   C     C_R   0.107198 0.835411 0.906333 -0.128478
C58   C     C_R   0.883245 0.150055 0.103923 -0.116093
C59   C     C_R   0.891507 0.837274 0.094420 -0.128095
C60   C     C_R   0.117099 0.149486 0.894737 -0.106750
C61   C     C_R   0.625457 0.308642 0.821023 -0.067078
C62   C     C_R   0.350831 0.649877 0.198575 -0.100330
C63   C     C_R   0.372303 0.310189 0.179491 -0.061826
C64   C     C_R   0.648581 0.651036 0.803004 -0.085942
C65   C     C_R   0.124388 0.807774 0.820847 -0.053725
C66   C     C_R   0.851959 0.151973 0.196618 -0.076583
C67   C     C_R   0.873919 0.809966 0.180122 -0.071780
C68   C     C_R   0.148439 0.149866 0.801916 -0.087540
C69   C     C_R   0.678302 0.283439 0.774001 -0.121990
C70   C     C_R   0.312815 0.703923 0.234117 -0.103454
C71   C     C_R   0.321242 0.281037 0.227108 -0.111844
C72   C     C_R   0.686460 0.704573 0.767365 -0.116899
C73   C     C_R   0.175860 0.777634 0.775420 -0.115391
C74   C     C_R   0.814399 0.206295 0.232029 -0.113185
C75   C     C_R   0.821634 0.783578 0.226423 -0.117057
C76   C     C_R   0.187939 0.201050 0.765299 -0.116062
C77   C     C_R   0.709200 0.275619 0.819970 -0.227402
C78   C     C_R   0.289209 0.732173 0.182866 -0.238237
C79   C     C_R   0.289983 0.270067 0.182899 -0.191554
C80   C     C_R   0.707725 0.734442 0.821039 -0.220447
C81   C     C_R   0.204240 0.761995 0.824233 -0.236074
C82   C     C_R   0.793506 0.237401 0.178040 -0.235459
C83   C     C_R   0.791172 0.774896 0.180061 -0.223116
C84   C     C_R   0.210957 0.227668 0.817420 -0.204335
C85   C     C_R   0.700951 0.128965 0.503714 0.881783
C86   C     C_R   0.307915 0.871079 0.467449 0.898510
C87   C     C_R   0.309909 0.130069 0.461926 0.872482
C88   C     C_R   0.692359 0.871715 0.530579 0.880456
C89   C     C_R   0.190164 0.629856 0.536377 0.877342
C90   C     C_R   0.809022 0.370238 0.463577 0.890550
C91   C     C_R   0.807450 0.628383 0.469836 0.884624
C92   C     C_R   0.191498 0.371301 0.533315 0.888183
C93   C     C_R   0.686195 0.289207 0.913951 0.139856
C94   C     C_R   0.310867 0.713824 0.091359 0.110869
C95   C     C_R   0.310114 0.288754 0.091263 0.093646
C96   C     C_R   0.681362 0.723140 0.915654 0.149292
C97   C     C_R   0.181032 0.777752 0.917417 0.122158
C98   C     C_R   0.819986 0.226534 0.083529 0.154203
C99   C     C_R   0.814155 0.788518 0.086088 0.138842
C100  C     C_R   0.183506 0.220413 0.912431 0.124466
C101  C     C_R   0.072720 0.100871 0.934626 0.912403
C102  C     C_R   0.930781 0.895108 0.061615 0.898519
C103  C     C_R   0.926952 0.100360 0.065363 0.921072
C104  C     C_R   0.068955 0.894848 0.938745 0.900421
C105  C     C_R   0.573172 0.600168 0.934334 0.923272
C106  C     C_R   0.426771 0.399409 0.065368 0.903756
C107  C     C_R   0.425347 0.598503 0.066543 0.913213
C108  C     C_R   0.568587 0.394424 0.939234 0.907574
C109  C     C_R   0.592267 0.093879 0.368730 0.133708
C110  C     C_R   0.453684 0.867104 0.485812 0.098065
C111  C     C_R   0.496131 0.102020 0.362212 0.127194
C112  C     C_R   0.533097 0.874198 0.543380 0.089586
C113  C     C_R   0.007142 0.616376 0.600585 0.116682
C114  C     C_R   0.967848 0.365801 0.456096 0.085264
C115  C     C_R   0.929314 0.616211 0.545407 0.087881
C116  C     C_R   0.043162 0.365168 0.523979 0.094778
C117  C     C_R   0.591567 0.125177 0.292617 -0.245242
C118  C     C_R   0.466590 0.805449 0.520836 -0.224908
C119  C     C_R   0.542476 0.133317 0.292180 -0.253561
C120  C     C_R   0.503693 0.809943 0.553684 -0.227200
C121  C     C_R   0.963782 0.665906 0.638374 -0.220474
C122  C     C_R   0.994613 0.301520 0.458176 -0.225685
C123  C     C_R   0.928697 0.671081 0.602281 -0.246780
C124  C     C_R   0.030053 0.300750 0.494792 -0.219238
C125  C     C_R   0.504120 0.047770 0.411635 0.011625
C126  C     C_R   0.523320 0.933301 0.500721 0.012881
C127  C     C_R   0.551532 0.045164 0.418415 0.009110
C128  C     C_R   0.479715 0.931832 0.481835 0.009439
C129  C     C_R   0.958907 0.553415 0.536492 0.014733
C130  C     C_R   0.019208 0.429733 0.517908 0.004084
C131  C     C_R   0.999351 0.554364 0.561972 0.006863
C132  C     C_R   0.979137 0.429084 0.489938 0.018130
C133  C     C_R   0.950861 0.492630 0.495462 -0.065990
C134  C     C_R   0.032128 0.494543 0.547077 -0.068791
C135  C     C_R   0.467015 0.993209 0.446740 -0.064284
C136  C     C_R   0.558349 0.992785 0.471921 -0.062458
C137  C     C_R   0.894937 0.431160 0.442847 0.034185
C138  C     C_R   0.097349 0.568375 0.569685 0.024640
C139  C     C_R   0.103457 0.433183 0.561964 0.013241
C140  C     C_R   0.886691 0.561986 0.467653 0.012709
C141  C     C_R   0.394012 0.931087 0.441909 0.007271
C142  C     C_R   0.636154 0.059671 0.460589 0.018009
C143  C     C_R   0.611936 0.937887 0.534374 0.033525
C144  C     C_R   0.401921 0.064316 0.421324 0.022880
C145  C     C_R   0.844441 0.433477 0.441114 -0.129852
C146  C     C_R   0.152726 0.567363 0.558362 -0.108995
C147  C     C_R   0.155566 0.435627 0.555943 -0.133993
C148  C     C_R   0.840764 0.563282 0.453861 -0.120285
C149  C     C_R   0.342623 0.934532 0.445867 -0.130508
C150  C     C_R   0.674799 0.063652 0.494632 -0.106181
C151  C     C_R   0.661453 0.938000 0.537439 -0.136253
C152  C     C_R   0.346180 0.065933 0.438125 -0.111827
C153  C     C_R   0.821120 0.499252 0.439498 -0.288801
C154  C     C_R   0.177726 0.501680 0.556885 -0.294616
C155  C     C_R   0.320211 0.000843 0.443706 -0.290349
C156  C     C_R   0.688458 0.001759 0.525895 -0.275823
H1    H     H_    0.048498 0.249918 0.497354 0.137278
H2    H     H_    0.901877 0.717183 0.617882 0.148485
H3    H     H_    0.986791 0.250822 0.435161 0.141915
H4    H     H_    0.959751 0.704099 0.689117 0.149211
H5    H     H_    0.511222 0.761616 0.582332 0.146798
H6    H     H_    0.540720 0.164014 0.238906 0.153604
H7    H     H_    0.447004 0.754373 0.525168 0.138597
H8    H     H_    0.627426 0.146778 0.236845 0.149716
H9    H     H_    0.784057 0.500032 0.435405 0.192702
H10   H     H_    0.217860 0.501690 0.549808 0.195354
H11   H     H_    0.279686 0.001613 0.452522 0.197646
H12   H     H_    0.722282 0.002185 0.539257 0.196104
H13   H     H_    0.613033 0.326715 0.027762 0.163207
H14   H     H_    0.381154 0.670556 0.978841 0.157873
H15   H     H_    0.368294 0.357818 0.989728 0.186066
H16   H     H_    0.605005 0.687683 0.023715 0.167499
H17   H     H_    0.111841 0.825499 0.028517 0.163300
H18   H     H_    0.896439 0.190657 0.975793 0.167355
H19   H     H_    0.886873 0.827576 0.972695 0.164495
H20   H     H_    0.104805 0.192245 0.021165 0.161761
H21   H     H_    0.750726 0.257654 0.783259 0.150993
H22   H     H_    0.253610 0.766205 0.214113 0.153200
H23   H     H_    0.249772 0.248367 0.220014 0.151064
H24   H     H_    0.744816 0.764801 0.788995 0.147727
H25   H     H_    0.244093 0.737995 0.790252 0.159840
H26   H     H_    0.756627 0.268201 0.209675 0.155172
H27   H     H_    0.749891 0.756489 0.216618 0.151092
H28   H     H_    0.250601 0.251291 0.783217 0.145049
O1    O     O_R   0.746490 0.236330 0.638080 -0.629402
O2    O     O_R   0.253510 0.763670 0.361920 -0.638041
O3    O     O_R   0.253510 0.236330 0.361920 -0.637588
O4    O     O_R   0.746490 0.763670 0.638080 -0.640388
O5    O     O_R   0.246490 0.736330 0.638080 -0.631404
O6    O     O_R   0.753510 0.263670 0.361920 -0.663470
O7    O     O_R   0.753510 0.736330 0.361920 -0.634458
O8    O     O_R   0.246490 0.263670 0.638080 -0.636671
O9    O     O_R   0.674170 0.186160 0.516270 -0.649099
O10   O     O_R   0.325830 0.813840 0.483730 -0.643599
O11   O     O_R   0.325830 0.186160 0.483730 -0.662924
O12   O     O_R   0.674170 0.813840 0.516270 -0.633348
O13   O     O_R   0.174170 0.686160 0.516270 -0.667326
O14   O     O_R   0.825830 0.313840 0.483730 -0.636351
O15   O     O_R   0.825830 0.686160 0.483730 -0.646215
O16   O     O_R   0.174170 0.313840 0.516270 -0.638120
O17   O     O_R   0.739960 0.127620 0.525000 -0.619330
O18   O     O_R   0.260040 0.872380 0.475000 -0.618242
O19   O     O_R   0.260040 0.127620 0.475000 -0.618724
O20   O     O_R   0.739960 0.872380 0.525000 -0.617955
O21   O     O_R   0.239960 0.627620 0.525000 -0.615002
O22   O     O_R   0.760040 0.372380 0.475000 -0.615890
O23   O     O_R   0.760040 0.627620 0.475000 -0.621396
O24   O     O_R   0.239960 0.372380 0.525000 -0.612896
O25   O     O_R   0.680700 0.294870 0.629350 -0.597650
O26   O     O_R   0.319300 0.705130 0.370650 -0.631779
O27   O     O_R   0.319300 0.294870 0.370650 -0.619673
O28   O     O_R   0.680700 0.705130 0.629350 -0.624820
O29   O     O_R   0.180700 0.794870 0.629350 -0.621158
O30   O     O_R   0.819300 0.205130 0.370650 -0.630587
O31   O     O_R   0.819300 0.794870 0.370650 -0.610329
O32   O     O_R   0.180700 0.205130 0.629350 -0.631034
O33   O     O_R   0.062020 0.072840 0.007170 -0.641382
O34   O     O_R   0.937980 0.927160 0.992830 -0.627614
O35   O     O_R   0.937980 0.072840 0.992830 -0.644549
O36   O     O_R   0.062020 0.927160 0.007170 -0.627419
O37   O     O_R   0.562020 0.572840 0.007170 -0.643378
O38   O     O_R   0.437980 0.427160 0.992830 -0.637052
O39   O     O_R   0.437980 0.572840 0.992830 -0.640688
O40   O     O_R   0.562020 0.427160 0.007170 -0.624282
O41   O     O_R   0.947860 0.073950 0.109290 -0.613778
O42   O     O_R   0.052140 0.926050 0.890710 -0.601259
O43   O     O_R   0.052140 0.073950 0.890710 -0.613219
O44   O     O_R   0.947860 0.926050 0.109290 -0.602213
O45   O     O_R   0.447860 0.573950 0.109290 -0.616649
O46   O     O_R   0.552140 0.426050 0.890710 -0.602013
O47   O     O_R   0.552140 0.573950 0.890710 -0.611954
O48   O     O_R   0.447860 0.426050 0.109290 -0.605362
Zn1   Zn    Zn3+2 0.792340 0.208750 0.507670 0.941207
Zn2   Zn    Zn3+2 0.207660 0.791250 0.492330 0.925190
Zn3   Zn    Zn3+2 0.207660 0.208750 0.492330 0.935811
Zn4   Zn    Zn3+2 0.792340 0.791250 0.507670 0.939717
Zn5   Zn    Zn3+2 0.292340 0.708750 0.507670 0.941334
Zn6   Zn    Zn3+2 0.707660 0.291250 0.492330 0.937666
Zn7   Zn    Zn3+2 0.707660 0.708750 0.492330 0.943090
Zn8   Zn    Zn3+2 0.292340 0.291250 0.507670 0.932867
Zn9   Zn    Zn3+2 0.505960 0.500000 0.080520 0.927144
Zn10  Zn    Zn3+2 0.494040 0.500000 0.919480 0.942110
Zn11  Zn    Zn3+2 0.005960 0.000000 0.080520 0.924972
Zn12  Zn    Zn3+2 0.994040 1.000000 0.919480 0.926502
C157  C     C_3   0.063141 0.314441 0.643643 -0.367494
C158  C     C_3   0.017690 0.342568 0.734160 -0.382676
C159  C     C_3   0.963856 0.353530 0.735090 -0.818785
H29   H     H_    0.964161 0.404274 0.699664 0.264394
H30   H     H_    0.954787 0.307256 0.703144 0.264186
H31   H     H_    0.931242 0.358655 0.805723 0.221268
H32   H     H_    0.011709 0.302513 0.787538 0.212397
H33   H     H_    0.029967 0.394360 0.751955 0.222289
H34   H     H_    0.052193 0.260351 0.629511 0.180867
H35   H     H_    0.097962 0.305692 0.655345 0.196851
C160  C     C_3   0.933910 0.683027 0.414597 -0.333939
C161  C     C_3   0.995895 0.675458 0.364373 -0.380908
C162  C     C_3   0.022665 0.730661 0.288508 -0.889792
H36   H     H_    0.012248 0.719552 0.234273 0.273035
H37   H     H_    0.009946 0.786368 0.314768 0.273514
H38   H     H_    0.067061 0.726756 0.259306 0.237190
H39   H     H_    0.012021 0.683586 0.412049 0.232062
H40   H     H_    0.007433 0.620180 0.335449 0.227397
H41   H     H_    0.919831 0.678782 0.363634 0.217245
H42   H     H_    0.922427 0.737333 0.446419 0.203160
C163  C     C_3   0.933324 0.314128 0.352857 -0.351772
C164  C     C_3   0.987189 0.320079 0.265244 -0.395848
C165  C     C_3   0.987401 0.273391 0.190663 -0.875900
H43   H     H_    0.979244 0.216001 0.212615 0.272435
H44   H     H_    0.956209 0.292756 0.173393 0.259937
H45   H     H_    0.027307 0.276824 0.129202 0.242542
H46   H     H_    0.994056 0.377310 0.241875 0.229490
H47   H     H_    0.020953 0.302895 0.276990 0.229279
H48   H     H_    0.927345 0.258275 0.380478 0.200404
H49   H     H_    0.901749 0.324518 0.333194 0.212628
C166  C     C_3   0.076937 0.710479 0.572500 -0.323980
C167  C     C_3   0.042153 0.776806 0.576374 -0.442470
C168  C     C_3   0.077293 0.843791 0.535878 -0.845375
H50   H     H_    0.100710 0.855561 0.571432 0.280507
H51   H     H_    0.105638 0.835537 0.462986 0.240322
H52   H     H_    0.051351 0.891304 0.542835 0.239021
H53   H     H_    0.021064 0.767190 0.536403 0.240058
H54   H     H_    0.013341 0.791054 0.647116 0.238829
H55   H     H_    0.092624 0.723370 0.619545 0.248831
H56   H     H_    0.105466 0.710941 0.498958 0.249355
C169  C     C_3   0.569752 0.831661 0.647455 -0.354095
C170  C     C_3   0.516694 0.840188 0.735692 -0.391677
C171  C     C_3   0.516567 0.791524 0.809405 -0.887143
H57   H     H_    0.521197 0.733895 0.788512 0.265991
H58   H     H_    0.549944 0.806365 0.823028 0.262961
H59   H     H_    0.478041 0.797664 0.872801 0.252096
H60   H     H_    0.512202 0.897509 0.757656 0.227227
H61   H     H_    0.481678 0.825882 0.726447 0.232546
H62   H     H_    0.575822 0.774266 0.625395 0.212372
H63   H     H_    0.601390 0.845360 0.665482 0.202854
C172  C     C_3   0.428974 0.202514 0.403283 -0.339722
C173  C     C_3   0.473911 0.257634 0.385070 -0.396045
C174  C     C_3   0.450328 0.331948 0.423859 -0.860525
H64   H     H_    0.424286 0.352020 0.395899 0.278813
H65   H     H_    0.426142 0.328979 0.498577 0.243976
H66   H     H_    0.483521 0.371069 0.406185 0.245207
H67   H     H_    0.497797 0.239242 0.417891 0.231617
H68   H     H_    0.500819 0.264720 0.311717 0.238452
H69   H     H_    0.408105 0.219700 0.365268 0.243015
H70   H     H_    0.403840 0.206982 0.477528 0.242475
C175  C     C_3   0.437321 0.811222 0.366277 -0.370716
C176  C     C_3   0.483265 0.839035 0.275960 -0.382624
C177  C     C_3   0.536985 0.848668 0.275518 -0.812392
H71   H     H_    0.537718 0.900752 0.306782 0.264591
H72   H     H_    0.544778 0.803613 0.311463 0.263033
H73   H     H_    0.570058 0.850351 0.204876 0.220985
H74   H     H_    0.489501 0.799072 0.222779 0.211699
H75   H     H_    0.471294 0.891087 0.257166 0.222878
H76   H     H_    0.449054 0.758344 0.383381 0.180526
H77   H     H_    0.403926 0.799782 0.351966 0.200312
C178  C     C_3   0.648019 0.190257 0.388197 -0.329853
C179  C     C_3   0.637345 0.248051 0.331536 -0.431081
C180  C     C_3   0.647260 0.325156 0.352712 -0.873281
H78   H     H_    0.623325 0.336502 0.426099 0.252462
H79   H     H_    0.690363 0.334285 0.330548 0.277079
H80   H     H_    0.634684 0.364387 0.316261 0.231604
H81   H     H_    0.664226 0.239279 0.258353 0.218203
H82   H     H_    0.594464 0.247612 0.348058 0.242196
H83   H     H_    0.623909 0.213232 0.456417 0.253863
H84   H     H_    0.691640 0.186902 0.361588 0.225834
C181  C     C_3   0.678211 0.368784 0.089596 -0.434349
C182  C     C_3   0.667332 0.440730 0.056082 -0.343670
C183  C     C_3   0.612562 0.469682 0.126529 -0.830681
H85   H     H_    0.580697 0.428354 0.144773 0.263157
H86   H     H_    0.614250 0.485089 0.188501 0.233734
H87   H     H_    0.601157 0.517092 0.099477 0.277236
H88   H     H_    0.698957 0.480411 0.046157 0.197264
H89   H     H_    0.667996 0.435041 0.990369 0.247070
H90   H     H_    0.642397 0.333297 0.119954 0.184588
H91   H     H_    0.683544 0.380809 0.149228 0.195259
C184  C     C_3   0.261001 0.591588 0.043050 -0.381649
C185  C     C_3   0.290492 0.545927 0.956527 -0.378445
C186  C     C_3   0.348813 0.568299 0.896652 -0.853592
H92   H     H_    0.372950 0.554966 0.930464 0.282784
H93   H     H_    0.365972 0.538061 0.832094 0.232782
H94   H     H_    0.351400 0.626852 0.880233 0.259736
H95   H     H_    0.289646 0.488809 0.977607 0.205241
H96   H     H_    0.270287 0.548527 0.914465 0.217019
H97   H     H_    0.283225 0.586139 0.081640 0.214830
H98   H     H_    0.221313 0.567003 0.088356 0.160377
C187  C     C_3   0.342589 0.300313 0.876616 -0.417278
C188  C     C_3   0.364763 0.373940 0.832225 -0.394589
C189  C     C_3   0.425077 0.369675 0.766896 -0.846950
H99   H     H_    0.447402 0.354981 0.803755 0.272103
H100  H     H_    0.433469 0.328770 0.713756 0.260559
H101  H     H_    0.439547 0.423156 0.734130 0.239652
H102  H     H_    0.344309 0.392034 0.793561 0.219425
H103  H     H_    0.357945 0.414900 0.883976 0.234265
H104  H     H_    0.372406 0.272061 0.891223 0.205810
H105  H     H_    0.339577 0.265337 0.825793 0.196761
C190  C     C_3   0.669990 0.643958 0.090488 -0.436703
C191  C     C_3   0.624752 0.688734 0.165963 -0.336515
C192  C     C_3   0.574493 0.643968 0.222630 -0.899319
H106  H     H_    0.557731 0.622868 0.179963 0.268214
H107  H     H_    0.584043 0.598632 0.255978 0.256536
H108  H     H_    0.543246 0.678296 0.275990 0.251580
H109  H     H_    0.639700 0.710642 0.211004 0.221507
H110  H     H_    0.613286 0.735706 0.137615 0.214796
H111  H     H_    0.656234 0.611912 0.050771 0.217273
H112  H     H_    0.682090 0.603223 0.125461 0.197005
C193  C     C_3   0.184792 0.863519 0.080074 -0.428749
C194  C     C_3   0.174422 0.935013 0.044860 -0.346952
C195  C     C_3   0.120308 0.965999 0.115474 -0.838215
H113  H     H_    0.087889 0.925034 0.137866 0.261089
H114  H     H_    0.123292 0.984286 0.175353 0.235161
H115  H     H_    0.108234 0.011623 0.086759 0.280042
H116  H     H_    0.206886 0.974074 0.032570 0.198671
H117  H     H_    0.174172 0.928008 0.980015 0.246763
H118  H     H_    0.147210 0.831763 0.117273 0.189947
H119  H     H_    0.195330 0.876872 0.133910 0.189598
C196  C     C_3   0.831634 0.146343 0.910317 -0.433244
C197  C     C_3   0.876944 0.190333 0.834200 -0.339516
C198  C     C_3   0.927422 0.144841 0.779447 -0.899002
H120  H     H_    0.943205 0.123023 0.823584 0.270603
H121  H     H_    0.918464 0.099822 0.745676 0.255746
H122  H     H_    0.959143 0.178813 0.726507 0.249673
H123  H     H_    0.862310 0.211553 0.788054 0.221579
H124  H     H_    0.887968 0.237837 0.861580 0.216900
H125  H     H_    0.845225 0.114264 0.950743 0.217464
H126  H     H_    0.819585 0.105766 0.875811 0.197519
C199  C     C_3   0.820446 0.868512 0.911305 -0.427937
C200  C     C_3   0.829738 0.940330 0.946084 -0.344871
C201  C     C_3   0.884433 0.970204 0.877117 -0.834473
H127  H     H_    0.916638 0.928683 0.857533 0.261827
H128  H     H_    0.882856 0.988011 0.815587 0.234732
H129  H     H_    0.895505 0.016094 0.906094 0.278209
H130  H     H_    0.797727 0.979757 0.955306 0.197275
H131  H     H_    0.828321 0.934151 0.012400 0.245496
H132  H     H_    0.856999 0.833903 0.880815 0.182968
H133  H     H_    0.815064 0.880920 0.851585 0.188939
C202  C     C_3   0.166598 0.141624 0.089560 -0.435963
C203  C     C_3   0.121998 0.185860 0.166347 -0.336009
C204  C     C_3   0.071845 0.140503 0.221793 -0.903999
H134  H     H_    0.055035 0.120750 0.178553 0.273581
H135  H     H_    0.081655 0.093801 0.252951 0.254922
H136  H     H_    0.040845 0.173792 0.276948 0.250147
H137  H     H_    0.137286 0.205554 0.211894 0.220139
H138  H     H_    0.110861 0.234323 0.139689 0.217063
H139  H     H_    0.152949 0.112671 0.047775 0.219360
H140  H     H_    0.176658 0.097525 0.123032 0.197943
C205  C     C_3   0.716813 0.139652 0.934318 -0.407193
C206  C     C_3   0.657691 0.129150 0.008028 -0.328627
C207  C     C_3   0.623857 0.097340 0.968818 -0.881074
H141  H     H_    0.619501 0.137339 0.923303 0.270788
H142  H     H_    0.643420 0.047799 0.929940 0.268247
H143  H     H_    0.583214 0.083470 0.024211 0.250192
H144  H     H_    0.656495 0.092062 0.061091 0.207091
H145  H     H_    0.638312 0.180517 0.042410 0.221571
H146  H     H_    0.720286 0.144787 0.866315 0.214381
H147  H     H_    0.737313 0.088262 0.933582 0.169599
C208  C     C_3   0.304013 0.861901 0.029109 -0.413127
C209  C     C_3   0.361689 0.858706 0.950538 -0.323055
C210  C     C_3   0.394758 0.922114 0.953797 -0.911722
H148  H     H_    0.376802 0.973803 0.947278 0.270814
H149  H     H_    0.396578 0.921224 0.018026 0.268545
H150  H     H_    0.436315 0.918648 0.897109 0.255664
H151  H     H_    0.381578 0.807646 0.953385 0.223654
H152  H     H_    0.360902 0.860342 0.885350 0.222714
H153  H     H_    0.286230 0.914617 0.024834 0.204539
H154  H     H_    0.304159 0.861288 0.094688 0.200083
C211  C     C_3   0.272055 0.133547 0.094759 -0.414741
C212  C     C_3   0.333370 0.120063 0.048300 -0.327492
C213  C     C_3   0.347663 0.066942 0.103195 -0.906107
H155  H     H_    0.337421 0.090747 0.169830 0.267001
H156  H     H_    0.325262 0.015547 0.114018 0.265000
H157  H     H_    0.391547 0.055252 0.066728 0.254911
H158  H     H_    0.346845 0.097791 0.979745 0.207027
H159  H     H_    0.356840 0.169711 0.039507 0.238468
H160  H     H_    0.254883 0.138669 0.168787 0.203639
H161  H     H_    0.256513 0.082164 0.083249 0.184697
C214  C     C_3   0.709196 0.877624 0.929853 -0.406329
C215  C     C_3   0.648037 0.889715 0.991045 -0.314923
C216  C     C_3   0.617335 0.892558 0.937309 -0.882556
H162  H     H_    0.635475 0.932727 0.881720 0.254597
H163  H     H_    0.617933 0.838883 0.907901 0.272261
H164  H     H_    0.574770 0.908060 0.982688 0.247722
H165  H     H_    0.629985 0.846724 0.043051 0.212388
H166  H     H_    0.641321 0.941536 0.028147 0.213105
H167  H     H_    0.729213 0.928549 0.931427 0.177816
H168  H     H_    0.719334 0.871040 0.858331 0.201908
C217  C     C_3   0.175218 0.631915 0.993099 -0.422721
C218  C     C_3   0.120978 0.642545 0.078940 -0.336597
C219  C     C_3   0.079454 0.587366 0.085480 -0.895540
H169  H     H_    0.073001 0.591726 0.025744 0.264713
H170  H     H_    0.093120 0.531737 0.089852 0.260770
H171  H     H_    0.040559 0.597722 0.147196 0.253362
H172  H     H_    0.126811 0.636600 0.139230 0.219157
H173  H     H_    0.104857 0.697593 0.079965 0.224842
H174  H     H_    0.169951 0.636943 0.932270 0.210263
H175  H     H_    0.187530 0.575383 0.993550 0.208026
C220  C     C_3   0.788806 0.380779 0.071562 -0.402722
C221  C     C_3   0.850020 0.393751 0.013628 -0.312221
C222  C     C_3   0.878729 0.396258 0.070560 -0.877017
H176  H     H_    0.858269 0.434617 0.127507 0.252714
H177  H     H_    0.879310 0.341983 0.098345 0.272127
H178  H     H_    0.920984 0.413960 0.027865 0.245906
H179  H     H_    0.869560 0.351324 0.961488 0.212100
H180  H     H_    0.856728 0.446069 0.977006 0.209524
H181  H     H_    0.768532 0.431390 0.068200 0.176202
H182  H     H_    0.777048 0.374467 0.143868 0.200087
C223  C     C_3   0.783689 0.638186 0.070799 -0.406812
C224  C     C_3   0.843976 0.627790 0.001971 -0.313416
C225  C     C_3   0.876403 0.603935 0.048220 -0.882662
H183  H     H_    0.877599 0.648164 0.091449 0.270440
H184  H     H_    0.857857 0.555610 0.090737 0.265420
H185  H     H_    0.918272 0.590456 0.996630 0.248372
H186  H     H_    0.848101 0.586036 0.951862 0.202639
H187  H     H_    0.862554 0.677724 0.962820 0.222740
H188  H     H_    0.777186 0.643477 0.140659 0.211429
H189  H     H_    0.764490 0.586579 0.069542 0.167241
C226  C     C_3   0.232300 0.369253 0.902415 -0.409683
C227  C     C_3   0.174030 0.396915 0.956817 -0.340272
C228  C     C_3   0.160644 0.450468 0.901185 -0.898792
H190  H     H_    0.189260 0.496387 0.878408 0.254528
H191  H     H_    0.162908 0.423085 0.841062 0.267538
H192  H     H_    0.119121 0.471609 0.942459 0.254363
H193  H     H_    0.144718 0.351959 0.977336 0.230949
H194  H     H_    0.168791 0.423902 0.019212 0.209890
H195  H     H_    0.258483 0.414343 0.899805 0.186265
H196  H     H_    0.242483 0.359263 0.831594 0.205021
C229  C     C_1   0.588620 0.305581 0.783876 0.223718
N1    N     N_1   0.559168 0.303024 0.754565 -0.213151
C230  C     C_1   0.355774 0.595199 0.257027 0.242327
N2    N     N_1   0.359517 0.551691 0.303338 -0.191509
C231  C     C_1   0.412205 0.304212 0.209539 0.197275
N3    N     N_1   0.445518 0.300542 0.230288 -0.240820
C232  C     C_1   0.646110 0.594449 0.745153 0.239280
N4    N     N_1   0.644336 0.549447 0.699276 -0.188983
C233  C     C_1   0.088068 0.809566 0.782821 0.208903
N5    N     N_1   0.058218 0.811646 0.754359 -0.240777
C234  C     C_1   0.853974 0.094569 0.254724 0.228362
N6    N     N_1   0.855376 0.048934 0.300815 -0.193324
C235  C     C_1   0.909446 0.811343 0.219781 0.221376
N7    N     N_1   0.937645 0.813332 0.251466 -0.227203
C236  C     C_1   0.144754 0.093753 0.744647 0.243126
N8    N     N_1   0.142031 0.049149 0.699185 -0.190008

loop_
_geom_bond_atom_site_label_1
_geom_bond_atom_site_label_2
_ccdc_geom_bond_type
O1    Zn1   S    
C213  H155  S    
C192  H106  S    
C161  H40   S    
C174  H65   S    
C211  C212  S    
C88   O12   A    
C234  N6    T    
C34   C42   A    
C18   C172  S    
C201  H129  S    
O5    Zn5   S    
C16   C113  A    
C110  C118  A    
C49   H17   S    
C186  H92   S    
O38   Zn10  S    
C193  H118  S    
C216  H162  S    
C27   C99   S    
C221  H179  S    
C170  H60   S    
C13   C139  A    
C117  C119  A    
C108  O40   A    
C197  H124  S    
C159  H31   S    
C208  H154  S    
C30   C38   A    
C222  H176  S    
C207  H143  S    
C184  H98   S    
C198  H122  S    
C109  C127  A    
C89   O21   A    
C199  H133  S    
C200  H130  S    
C155  H11   S    
C37   C196  S    
C111  C125  A    
C171  H58   S    
C182  C183  S    
C86   O18   A    
C31   C211  S    
C125  C135  A    
C143  C151  A    
C179  H82   S    
C19   C141  A    
C206  H145  S    
C157  C158  S    
C92   C147  S    
O7    Zn7   S    
C82   C98   A    
C130  C134  A    
C16   C166  S    
C73   C81   A    
C172  H69   S    
C115  C123  A    
O48   Zn9   S    
C84   C100  A    
C127  C136  A    
C128  C135  A    
C203  H138  S    
C112  C120  A    
C27   C35   A    
C21   C29   A    
C175  H77   S    
C187  H104  S    
C179  C180  S    
C23   C31   A    
C180  H80   S    
C219  H170  S    
C220  H182  S    
O18   Zn2   S    
O42   Zn12  S    
C190  C191  S    
C146  C154  A    
C5    O29   A    
C176  C177  S    
C67   C235  S    
C83   H27   S    
O22   Zn6   S    
O25   Zn6   S    
C129  C133  A    
C54   C107  S    
C173  C174  S    
C225  H184  S    
C63   C71   A    
C192  H108  S    
C107  O45   A    
C222  H178  S    
C79   H23   S    
C36   C44   A    
O30   Zn1   S    
C148  C153  A    
C201  H127  S    
C211  H161  S    
C186  H94   S    
C215  C216  S    
C216  H164  S    
C57   C104  S    
C48   C96   A    
C59   C102  S    
C34   C220  S    
C16   C138  A    
C185  C186  S    
C8    O32   A    
C3    O3    A    
C47   H15   S    
C196  C197  S    
C1    O1    A    
C103  O41   A    
C101  O43   A    
C209  C210  S    
C4    O4    A    
C24   C96   S    
C149  C155  A    
C87   O11   A    
O20   Zn4   S    
C193  C194  S    
C53   C108  S    
C142  C150  A    
C167  H54   S    
C8    O8    A    
C23   C95   S    
C227  H193  S    
C195  H115  S    
C217  C218  S    
C39   C202  S    
C121  C123  A    
O28   Zn7   S    
C49   C97   A    
C21   C42   A    
C116  C130  A    
C228  H191  S    
C224  C225  S    
C125  C127  A    
O32   Zn3   S    
C10   C138  A    
C162  H37   S    
C205  C206  S    
C205  H146  S    
C194  H116  S    
C42   C181  S    
C14   C115  A    
C110  C128  A    
C15   C137  A    
C9    C133  A    
C217  H175  S    
C69   C77   A    
C45   C93   A    
C71   C79   A    
C188  H102  S    
C108  O46   A    
C173  H68   S    
C213  H156  S    
C62   C70   A    
C191  H109  S    
C21   C93   S    
C223  H189  S    
C78   C94   A    
C164  H46   S    
C25   C38   A    
C9    C140  A    
O40   Zn9   S    
O8    Zn8   S    
C156  H12   S    
C66   C74   A    
C8    C76   S    
C49   C57   A    
C111  C119  A    
C162  H36   S    
C185  H96   S    
C52   C60   A    
C59   C67   A    
C194  C195  S    
C53   C61   A    
C225  H183  S    
C221  C222  S    
C55   C63   A    
C56   C64   A    
C209  H152  S    
C166  H55   S    
C218  H173  S    
C204  H135  S    
C35   C223  S    
C45   C53   A    
C168  H50   S    
C184  C185  S    
C22   C94   S    
C181  H91   S    
C102  O44   A    
C210  H149  S    
C118  C120  A    
C158  H32   S    
C3    O27   A    
O36   Zn11  S    
C50   C98   A    
C1    O25   A    
C84   H28   S    
C62   C230  S    
O43   Zn12  S    
C183  H86   S    
C214  H168  S    
C52   C100  A    
C77   H21   S    
C46   H14   S    
C229  N1    T    
O46   Zn10  S    
C178  H84   S    
C46   C94   A    
C27   C40   A    
C220  H181  S    
C88   O20   A    
C11   C141  A    
C28   C36   A    
C120  H5    S    
C25   C97   S    
C43   C190  S    
C87   C152  S    
C182  H89   S    
C88   C151  S    
C67   C75   A    
C122  C124  A    
C33   C217  S    
C163  H48   S    
C24   C43   A    
C158  C159  S    
C221  H180  S    
C22   C30   A    
C153  H9    S    
C200  H131  S    
O31   Zn4   S    
C14   C140  A    
C201  H128  S    
O14   Zn1   S    
C45   H13   S    
C91   O23   A    
C165  H43   S    
C32   C214  S    
O23   Zn7   S    
C68   C76   A    
C89   O13   A    
C82   H26   S    
C176  H74   S    
C12   C143  A    
C170  H61   S    
C177  H73   S    
C144  C152  A    
C204  H134  S    
C86   O10   A    
C189  H101  S    
C65   C233  S    
C138  C146  A    
C105  O37   A    
C208  H153  S    
C211  H160  S    
C207  H142  S    
C5    C73   S    
O9    Zn6   S    
C198  H121  S    
C215  H165  S    
C102  O34   A    
C126  C136  A    
C220  C221  S    
C113  C121  A    
C167  C168  S    
C12   C136  A    
C168  H52   S    
C230  N2    T    
C105  O47   A    
O27   Zn8   S    
C92   O16   A    
C160  C161  S    
C25   C33   A    
O2    Zn2   S    
O12   Zn7   S    
C13   C157  S    
C63   C231  S    
C19   C175  S    
C166  C167  S    
O6    Zn6   S    
O16   Zn3   S    
C131  C134  A    
C76   C84   A    
C109  C117  A    
C190  H112  S    
C137  C145  A    
C205  H147  S    
C90   C145  S    
C22   C41   A    
C212  C213  S    
C224  H186  S    
C175  H76   S    
O35   Zn12  S    
C87   O19   A    
C180  H79   S    
C85   C150  S    
C90   O22   A    
C9    C137  A    
C121  H4    S    
C169  H63   S    
C41   C184  S    
C126  C128  A    
C122  H3    S    
C226  H196  S    
C52   H20   S    
C112  C126  A    
C85   O17   A    
C196  H126  S    
C159  H30   S    
C178  C179  S    
C192  H107  S    
C83   C99   A    
C161  H39   S    
C222  H177  S    
C7    O7    A    
C2    O2    A    
C74   C82   A    
C119  H6    S    
C184  H97   S    
C227  C228  S    
C186  H93   S    
C193  H119  S    
C6    C74   S    
C216  H163  S    
C117  H8    S    
C118  H7    S    
C55   C106  S    
C219  H169  S    
C50   C58   A    
O26   Zn5   S    
O47   Zn10  S    
C203  C204  S    
C204  H136  S    
C189  H99   S    
C197  H123  S    
C212  H159  S    
C54   C62   A    
C28   C39   A    
C1    C69   S    
C23   C44   A    
C177  H71   S    
C38   C193  S    
C130  C132  A    
C79   C95   A    
C228  H190  S    
C11   C135  A    
O45   Zn9   S    
O17   Zn1   S    
C171  H57   S    
C6    O30   A    
C152  C155  A    
C159  H29   S    
C202  H139  S    
C124  H1    S    
C46   C54   A    
C171  H59   S    
C227  H194  S    
C195  H114  S    
C151  C156  A    
C18   C111  A    
C51   H19   S    
C179  H81   S    
C206  H144  S    
C10   C139  A    
O29   Zn2   S    
C194  H117  S    
C4    C72   S    
C199  C200  S    
C217  H174  S    
C116  C124  A    
C78   H22   S    
C57   C65   A    
C15   C163  S    
C203  H137  S    
C202  C203  S    
C26   C37   A    
C188  H103  S    
O41   Zn11  S    
C157  H35   S    
C191  H110  S    
C187  H105  S    
C17   C143  A    
C223  H188  S    
C162  H38   S    
C18   C144  A    
C200  C201  S    
C219  H171  S    
C183  H85   S    
C164  H47   S    
O15   Zn4   S    
O37   Zn9   S    
C165  H44   S    
C75   C83   A    
O44   Zn11  S    
C157  H34   S    
C36   C226  S    
C77   C93   A    
C165  H45   S    
C12   C142  A    
C181  C182  S    
C56   C105  S    
C13   C116  A    
C225  H185  S    
C160  H42   S    
C60   C68   A    
C64   C232  S    
C72   C80   A    
C175  C176  S    
C29   C37   A    
C206  C207  S    
C154  H10   S    
C2    C70   S    
C7    O31   A    
C103  O35   A    
C218  C219  S    
C70   C78   A    
C174  H64   S    
C3    C71   S    
C195  H113  S    
C81   H25   S    
C140  C148  A    
O24   Zn8   S    
C24   C32   A    
C210  H148  S    
C188  C189  S    
C141  C149  A    
C158  H33   S    
C20   C178  S    
O19   Zn3   S    
C139  C147  A    
C169  C170  S    
C80   H24   S    
C228  H192  S    
C170  C171  S    
C214  H167  S    
C167  H53   S    
O39   Zn10  S    
C236  N8    T    
C163  C164  S    
C65   C73   A    
C235  N7    T    
C147  C154  A    
C104  O36   A    
C178  H83   S    
C48   H16   S    
C58   C66   A    
C14   C160  S    
C106  O48   A    
C132  C133  A    
C172  C173  S    
C232  N4    T    
C80   C96   A    
C11   C144  A    
O4    Zn4   S    
C91   O15   A    
C28   C100  S    
C32   C40   A    
C150  C156  A    
C180  H78   S    
C91   C148  S    
C26   C34   A    
C107  O39   A    
C212  H158  S    
C51   C99   A    
C89   C146  S    
C213  H157  S    
C202  H140  S    
C2    O26   A    
C29   C205  S    
C20   C142  A    
O11   Zn8   S    
C33   C41   A    
C86   C149  S    
C226  C227  S    
C7    C75   S    
C176  H75   S    
C44   C187  S    
C20   C109  A    
C177  H72   S    
O21   Zn5   S    
C40   C199  S    
O33   Zn11  S    
C185  H95   S    
C92   O24   A    
C189  H100  S    
C17   C169  S    
C208  C209  S    
C207  H141  S    
C161  C162  S    
C6    O6    A    
C223  C224  S    
C15   C114  A    
C199  H132  S    
C209  H151  S    
C66   C234  S    
C166  H56   S    
C198  H120  S    
C215  H166  S    
C218  H172  S    
C26   C98   S    
O34   Zn12  S    
C168  H51   S    
C174  H66   S    
C51   C59   A    
C68   C236  S    
C60   C101  S    
C17   C112  A    
C210  H150  S    
C35   C43   A    
C197  C198  S    
C47   C55   A    
C115  C129  A    
C19   C110  A    
C61   C69   A    
C48   C56   A    
C113  C131  A    
C114  C132  A    
C10   C134  A    
C160  H41   S    
C183  H87   S    
C61   C229  S    
O13   Zn2   S    
C104  O42   A    
C90   O14   A    
C123  H2    S    
C190  H111  S    
C4    O28   A    
C50   H18   S    
C231  N3    T    
C233  N5    T    
C145  C153  A    
C173  H67   S    
C85   O9    A    
C181  H90   S    
C106  O38   A    
C81   C97   A    
C224  H187  S    
C191  C192  S    
C31   C39   A    
C64   C72   A    
O10   Zn5   S    
C30   C208  S    
C164  C165  S    
C214  C215  S    
C114  C122  A    
C101  O33   A    
C163  H49   S    
C169  H62   S    
C182  H88   S    
C47   C95   A    
C5    O5    A    
C58   C103  S    
C226  H195  S    
C187  C188  S    
O3    Zn3   S    
C172  H70   S    
C129  C131  A    
C196  H125  S    
