data_mof_unit_30623.cif
_audit_creation_date              2012-12-10T17:42:45-0500
_audit_creation_method            fapswitch 2.2
_symmetry_space_group_name_H-M    P1
_symmetry_Int_Tables_number       1
_space_group_crystal_system       triclinic
_cell_length_a                    9.948173
_cell_length_b                    10.690413
_cell_length_c                    13.121348
_cell_angle_alpha                 93.173885
_cell_angle_beta                  70.084693
_cell_angle_gamma                 89.529914
_cell_volume                      1309.44713599

loop_
_atom_site_label
_atom_site_type_symbol
_atom_type_description
_atom_site_fract_x
_atom_site_fract_y
_atom_site_fract_z
_atom_type_partial_charge
Br1   Br    Br    0.874146 0.320756 0.193403 -0.402811
Br2   Br    Br    0.314926 0.768944 0.317325 -0.487165
Br3   Br    Br    0.203338 0.472849 0.199509 -0.475523
C1    C     C_R   0.504453 0.738452 0.487646 0.946130
C2    C     C_R   0.370597 0.475375 0.820376 -0.134943
C3    C     C_R   0.275898 0.892022 0.436116 0.248996
C4    C     C_R   0.420932 0.491803 0.703456 0.907653
C5    C     C_R   0.141801 0.953153 0.469069 -0.222572
C6    C     C_R   0.114750 0.060287 0.539021 0.369226
C7    C     C_R   0.227251 0.115990 0.563279 -0.178352
C8    C     C_R   0.366949 0.061798 0.520115 0.006392
C9    C     C_R   0.384111 0.939046 0.474692 0.056460
C10   C     C_R   0.508545 0.871037 0.471574 -0.090511
C11   C     C_R   0.628421 0.933904 0.477875 -0.188056
C12   C     C_R   0.431313 0.453415 0.983192 0.045806
C13   C     C_R   0.621922 0.061732 0.494798 -0.143991
C14   C     C_R   0.492006 0.126681 0.515578 -0.095105
C15   C     C_R   0.795946 0.684221 0.622106 -0.148595
C16   C     C_R   0.496268 0.260568 0.508419 0.858263
C17   C     C_R   0.832929 0.790358 0.668580 -0.251451
C18   C     C_R   0.969392 0.799725 0.669140 -0.152717
C19   C     C_R   0.069555 0.701022 0.626678 0.381171
C20   C     C_R   0.042657 0.596482 0.560507 0.084701
C21   C     C_R   0.898221 0.593519 0.559231 0.119609
C22   C     C_R   0.952784 0.406405 0.449098 0.025161
C23   C     C_R   0.464262 0.428755 0.870554 0.037809
C24   C     C_R   0.094927 0.405722 0.450083 0.011756
C25   C     C_R   0.580178 0.493172 0.295322 0.947723
C26   C     C_R   0.772776 0.340053 0.013657 0.342150
C27   C     C_R   0.629673 0.462845 0.177473 -0.208116
C28   C     C_R   0.231668 0.515544 0.884088 -0.156955
C29   C     C_R   0.189565 0.518807 0.996172 -0.090070
C30   C     C_R   0.287441 0.489808 0.046723 0.284120
C31   C     C_R   0.542823 0.436704 0.026212 0.051583
C32   C     C_R   0.668640 0.365739 0.965809 0.003337
C33   C     C_R   0.686521 0.321930 0.859399 -0.125208
C34   C     C_R   0.587641 0.355214 0.811736 -0.164649
C35   C     C_R   0.536461 0.496423 0.124576 -0.227326
C36   C     C_R   0.749065 0.382623 0.122053 0.217478
Cl1   Cl    Cl    0.942570 0.129602 0.590190 -0.720609
Cl2   Cl    Cl    0.191001 0.716356 0.695895 -0.636444
Cl3   Cl    Cl    0.930349 0.250705 0.940493 -0.553924
H1    H     H_    0.058365 0.916673 0.441075 0.200399
H2    H     H_    0.455840 0.568276 0.162716 0.241063
H3    H     H_    0.154443 0.543122 0.847709 0.221640
H4    H     H_    0.079590 0.544145 0.044116 0.197167
H5    H     H_    0.606467 0.318460 0.729426 0.185477
H6    H     H_    0.726991 0.884512 0.471013 0.190230
H7    H     H_    0.204584 0.201063 0.615588 0.203327
H8    H     H_    0.718704 0.109349 0.491697 0.218839
H9    H     H_    0.919348 0.329586 0.407153 0.191326
H10   H     H_    0.684390 0.675271 0.641022 0.229318
H11   H     H_    0.752566 0.861707 0.711496 0.207903
H12   H     H_    0.991661 0.880225 0.714407 0.228319
H13   H     H_    0.778563 0.264744 0.810805 0.237051
H14   H     H_    0.167733 0.328880 0.408232 0.172389
N1    N     N_R   0.856860 0.501200 0.500990 -0.122078
N2    N     N_R   0.142450 0.501280 0.501020 -0.104169
O1    O     O_R   0.385310 0.683220 0.500000 -0.547005
O2    O     O_R   0.614640 0.683250 0.500010 -0.654002
O3    O     O_R   0.328400 0.499950 0.653610 -0.559540
O4    O     O_R   0.557730 0.499970 0.653620 -0.652227
O5    O     O_R   0.385360 0.316750 0.499990 -0.636349
O6    O     O_R   0.614690 0.316780 0.500000 -0.616603
O7    O     O_R   0.442270 0.500030 0.346380 -0.566275
O8    O     O_R   0.671600 0.500050 0.346390 -0.574077
Zn1   Zn    Zn3+2 0.346880 0.499980 0.499990 1.032477
Zn2   Zn    Zn3+2 0.653120 0.500020 0.500010 0.984971

loop_
_geom_bond_atom_site_label_1
_geom_bond_atom_site_label_2
_ccdc_geom_bond_type
C5    C6    A    
C20   N2    A    
O8    Zn2   S    
C8    C9    A    
C22   H9    S    
C4    O4    A    
C35   H2    S    
C3    C5    A    
C26   Cl3   S    
C22   C24   A    
C6    C7    A    
O3    Zn1   S    
C12   C31   A    
C25   O8    A    
C32   C33   A    
C5    H1    S    
O4    Zn2   S    
C16   O6    A    
C20   C21   A    
C29   C30   A    
C26   C36   A    
C25   C27   S    
C25   O7    A    
C15   H10   S    
C23   C34   A    
C33   H13   S    
C31   C35   A    
C10   C11   A    
C17   C18   A    
C27   C35   A    
Br2   C3    S    
C22   N1    A    
C15   C21   A    
O6    Zn2   S    
C1    O1    A    
C33   C34   A    
C14   C16   S    
C13   H8    S    
C27   C36   A    
C11   C13   A    
C19   C20   A    
C3    C9    A    
C18   H12   S    
O5    Zn1   S    
C2    C28   A    
C19   Cl2   S    
C34   H5    S    
C7    C8    A    
Br1   C36   S    
N1    Zn2   S    
C2    C23   A    
C26   C32   A    
N2    Zn1   S    
C9    C10   A    
O2    Zn2   S    
C15   C17   A    
C31   C32   A    
C28   H3    S    
C16   O5    A    
C1    C10   S    
C2    C4    S    
Br3   C30   S    
C24   H14   S    
C17   H11   S    
C12   C23   A    
C11   H6    S    
O1    Zn1   S    
C18   C19   A    
C7    H7    S    
C29   H4    S    
C12   C30   A    
C6    Cl1   S    
C4    O3    A    
C28   C29   A    
C13   C14   A    
C1    O2    A    
C21   N1    A    
O7    Zn1   S    
C24   N2    A    
C8    C14   A    
