data_mof_unit_27825.cif
_audit_creation_date              2012-12-11T15:33:41-0500
_audit_creation_method            fapswitch 2.2
_symmetry_space_group_name_H-M    P1
_symmetry_Int_Tables_number       1
_space_group_crystal_system       triclinic
_cell_length_a                    27.153927
_cell_length_b                    7.20904
_cell_length_c                    22.750753
_cell_angle_alpha                 89.965704
_cell_angle_beta                  101.177979
_cell_angle_gamma                 90.033553
_cell_volume                      4369.05890621

loop_
_atom_site_label
_atom_site_type_symbol
_atom_type_description
_atom_site_fract_x
_atom_site_fract_y
_atom_site_fract_z
_atom_type_partial_charge
O1    O     O_R   0.207310 0.594030 0.676830 -0.532750
O2    O     O_R   0.792690 0.405970 0.323170 -0.531805
O3    O     O_R   0.292690 0.094030 0.823170 -0.532099
O4    O     O_R   0.707310 0.905970 0.176830 -0.531769
O5    O     O_R   0.197320 0.262370 0.795700 -0.538505
O6    O     O_R   0.802680 0.737630 0.204300 -0.538677
O7    O     O_R   0.302680 0.762370 0.704300 -0.538652
O8    O     O_R   0.697320 0.237630 0.295700 -0.538633
C1    C     C_R   0.184488 0.432694 0.811458 0.681103
C2    C     C_R   0.814955 0.567381 0.187705 0.681297
C3    C     C_R   0.314953 0.932733 0.687657 0.681076
C4    C     C_R   0.685047 0.067267 0.312343 0.681211
O9    O     O_R   0.201410 0.264250 0.675590 -0.535142
O10   O     O_R   0.798590 0.735750 0.324410 -0.535292
O11   O     O_R   0.298590 0.764250 0.824410 -0.534037
O12   O     O_R   0.701410 0.235750 0.175590 -0.535316
O13   O     O_R   0.296810 0.094940 0.702210 -0.538739
O14   O     O_R   0.703190 0.905060 0.297790 -0.538779
O15   O     O_R   0.203190 0.594940 0.797790 -0.538269
O16   O     O_R   0.796810 0.405060 0.202210 -0.538791
C5    C     C_R   0.189791 0.432524 0.653485 0.682969
C6    C     C_R   0.810201 0.567481 0.346524 0.684893
C7    C     C_R   0.310221 0.932512 0.846506 0.687192
C8    C     C_R   0.689810 0.067500 0.153473 0.684962
O17   O     O_3   0.281300 0.427390 0.758870 -0.372003
O18   O     O_3   0.718700 0.572610 0.241130 -0.372359
O19   O     O_3   0.218700 0.927390 0.741130 -0.373383
O20   O     O_3   0.781300 0.072610 0.258870 -0.372280
V1    V     V_3+5 0.244190 0.152150 0.748350 1.410104
V2    V     V_3+5 0.755810 0.847850 0.251650 1.410678
V3    V     V_3+5 0.255810 0.652150 0.751650 1.410894
V4    V     V_3+5 0.744190 0.347850 0.248350 1.410575
C9    C     C_R   0.654870 0.062521 0.095123 -0.037738
C10   C     C_R   0.345192 0.937523 0.904841 -0.038621
C11   C     C_R   0.845155 0.562490 0.404873 -0.037858
C12   C     C_R   0.154829 0.437530 0.595148 -0.037197
C13   C     C_R   0.639332 0.124347 0.988709 -0.158668
C14   C     C_R   0.360746 0.875886 0.011266 -0.159147
C15   C     C_R   0.860762 0.624884 0.511237 -0.158714
C16   C     C_R   0.139215 0.375169 0.488786 -0.158806
C17   C     C_R   0.672199 0.115730 0.043762 -0.163983
C18   C     C_R   0.327872 0.884496 0.956223 -0.164135
C19   C     C_R   0.827874 0.616061 0.456204 -0.163771
C20   C     C_R   0.172106 0.383970 0.543814 -0.163512
C21   C     C_R   0.603826 0.018464 0.091104 -0.212548
C22   C     C_R   0.396244 0.981477 0.908837 -0.212678
C23   C     C_R   0.896181 0.518262 0.408907 -0.212640
C24   C     C_R   0.103805 0.481782 0.591125 -0.212854
C25   C     C_R   0.569102 0.029447 0.035423 0.085549
C26   C     C_R   0.430975 0.970568 0.964519 0.085751
C27   C     C_R   0.930930 0.529462 0.464568 0.085523
C28   C     C_R   0.069053 0.470602 0.535467 0.085707
C29   C     C_R   0.588197 0.083100 0.984114 0.136777
C30   C     C_R   0.411882 0.917019 0.015841 0.137020
C31   C     C_R   0.911878 0.583504 0.515843 0.136823
C32   C     C_R   0.088102 0.416563 0.484188 0.136642
C33   C     C_R   0.516284 0.991716 0.028841 0.057666
C34   C     C_R   0.483794 0.008290 0.971098 0.057600
C35   C     C_R   0.983732 0.491600 0.471162 0.057627
C36   C     C_R   0.016250 0.508474 0.528876 0.057747
C37   C     C_R   0.505239 0.061450 0.921898 -0.185381
C38   C     C_R   0.494840 0.938600 0.078045 -0.185440
C39   C     C_R   0.994846 0.562039 0.578040 -0.185457
C40   C     C_R   0.005136 0.438044 0.421998 -0.185484
C41   C     C_R   0.556224 0.097565 0.928428 -0.197667
C42   C     C_R   0.443855 0.902557 0.071524 -0.197617
C43   C     C_R   0.943875 0.598248 0.571502 -0.197752
C44   C     C_R   0.056104 0.401833 0.428531 -0.197590
H1    H     H_    0.570794 0.138555 0.889221 0.126764
H2    H     H_    0.429284 0.861636 0.110737 0.126858
H3    H     H_    0.929337 0.639543 0.610682 0.126460
H4    H     H_    0.070641 0.360545 0.389350 0.126802
H5    H     H_    0.407575 0.019050 0.867594 0.095826
H6    H     H_    0.592498 0.980755 0.132336 0.095924
H7    H     H_    0.092508 0.519733 0.632338 0.094855
H8    H     H_    0.907482 0.480314 0.367698 0.095947
H9    H     H_    0.288755 0.848469 0.953594 0.109871
H10   H     H_    0.711314 0.151876 0.046416 0.106907
H11   H     H_    0.211200 0.347659 0.546471 0.107341
H12   H     H_    0.788778 0.652364 0.453541 0.107239
H13   H     H_    0.653871 0.166032 0.949569 0.117250
H14   H     H_    0.346209 0.834310 0.050419 0.117498
H15   H     H_    0.846256 0.666865 0.550351 0.117250
H16   H     H_    0.153717 0.333195 0.449668 0.117492
H17   H     H_    0.483558 0.077189 0.877280 0.125402
H18   H     H_    0.516516 0.922887 0.122666 0.125425
H19   H     H_    0.016547 0.578018 0.622636 0.124991
H20   H     H_    0.983437 0.422076 0.377402 0.125361
C45   C     C_R   0.641983 0.886530 0.382356 -0.145415
C46   C     C_R   0.358017 0.113471 0.617644 -0.145379
C47   C     C_R   0.857327 0.387825 0.117076 -0.145373
C48   C     C_R   0.118076 0.612918 0.849504 -0.153015
H21   H     H_    0.666233 0.770335 0.377738 0.124463
H22   H     H_    0.333767 0.229665 0.622262 0.124510
H23   H     H_    0.832526 0.272741 0.121160 0.124334
H24   H     H_    0.125476 0.728098 0.821835 0.127312
C49   C     C_R   0.606541 0.867001 0.419663 0.154860
C50   C     C_R   0.393458 0.132999 0.580336 0.154807
C51   C     C_R   0.892723 0.367846 0.079774 0.154619
C52   C     C_R   0.081565 0.633651 0.885352 0.156635
C53   C     C_R   0.574452 0.017902 0.426456 0.013482
C54   C     C_R   0.425548 0.982099 0.573544 0.013499
C55   C     C_R   0.925561 0.517632 0.073680 0.010098
C56   C     C_R   0.071678 0.483830 0.922255 0.009375
C57   C     C_R   0.580131 0.184889 0.396144 -0.172349
C58   C     C_R   0.419869 0.815112 0.603856 -0.172367
C59   C     C_R   0.920544 0.683596 0.104894 -0.172170
C60   C     C_R   0.098396 0.316799 0.920109 -0.172265
H25   H     H_    0.556071 0.301993 0.399997 0.142675
H26   H     H_    0.443929 0.698007 0.600003 0.142645
H27   H     H_    0.944981 0.800226 0.101691 0.144895
H28   H     H_    0.092280 0.200074 0.947721 0.145771
C61   C     C_R   0.615991 0.202856 0.359645 -0.172483
C62   C     C_R   0.384008 0.797144 0.640354 -0.172490
C63   C     C_R   0.884659 0.701813 0.141308 -0.173568
C64   C     C_R   0.134034 0.297708 0.883468 -0.168870
H29   H     H_    0.618812 0.333390 0.336944 0.134165
H30   H     H_    0.381188 0.666610 0.663055 0.134146
H31   H     H_    0.882339 0.831513 0.164609 0.134099
H32   H     H_    0.154000 0.167566 0.883801 0.130585
C65   C     C_R   0.647116 0.053270 0.351809 -0.083717
C66   C     C_R   0.352884 0.946730 0.648191 -0.083661
C67   C     C_R   0.852862 0.553507 0.148301 -0.082981
C68   C     C_R   0.144779 0.446339 0.848278 -0.081995
N1    N     N_R   0.521869 0.162751 0.491730 -0.284527
N2    N     N_R   0.478131 0.837249 0.508270 -0.284491
N3    N     N_R   0.982934 0.666040 0.014765 -0.285901
N4    N     N_R   0.015956 0.336314 0.983451 -0.286664
N5    N     N_R   0.487227 0.154921 0.525992 -0.283424
N6    N     N_R   0.512773 0.845080 0.474008 -0.283385
N7    N     N_R   0.016884 0.658904 0.979581 -0.283562
N8    N     N_R   0.982132 0.343429 0.018770 -0.283419
C69   C     C_R   0.464353 0.992323 0.534921 0.515438
C70   C     C_R   0.535647 0.007677 0.465079 0.515441
C71   C     C_R   0.033876 0.494044 0.962449 0.517571
C72   C     C_R   0.964315 0.508164 0.034802 0.517421
C73   C     C_3   0.605204 0.686384 0.452778 -0.750537
H33   H     H_    0.635945 0.591487 0.446345 0.193879
H34   H     H_    0.609508 0.713010 0.501574 0.223636
H35   H     H_    0.569243 0.613900 0.435950 0.232268
C74   C     C_3   0.394796 0.313616 0.547221 -0.750390
H36   H     H_    0.364055 0.408513 0.553654 0.193905
H37   H     H_    0.430756 0.386100 0.564049 0.232221
H38   H     H_    0.390492 0.286990 0.498426 0.223708
C75   C     C_3   0.893194 0.187455 0.046312 -0.747080
H39   H     H_    0.862397 0.093236 0.053143 0.192139
H40   H     H_    0.888247 0.214635 0.997478 0.225668
H41   H     H_    0.929028 0.113440 0.062535 0.232234
C76   C     C_3   0.053591 0.815205 0.881904 -0.748281
H42   H     H_    0.063971 0.909880 0.847716 0.193705
H43   H     H_    0.012555 0.789963 0.869409 0.225783
H44   H     H_    0.062751 0.887615 0.925630 0.231454

loop_
_geom_bond_atom_site_label_1
_geom_bond_atom_site_label_2
_ccdc_geom_bond_type
N1    C70   A    
O17   V3    S    
C51   C55   A    
O1    C5    A    
C56   C71   S    
O19   V1    S    
C9    C21   A    
C16   H16   S    
O3    C7    A    
C10   C18   A    
O1    V3    S    
O15   V3    S    
C75   H39   S    
C25   C33   A    
C33   C38   A    
C5    C12   S    
C53   C70   S    
O7    C3    A    
C6    C11   S    
C38   H18   S    
C35   C40   A    
C26   C30   A    
C58   C62   A    
C36   C39   A    
C40   C44   A    
C57   C61   A    
C23   H8    S    
C14   C18   A    
N7    C71   A    
C48   C68   A    
C58   H26   S    
O4    C8    A    
C25   C29   A    
C44   H4    S    
N2    N6    A    
C48   H24   S    
C1    C68   S    
O13   V1    S    
O2    V4    S    
O3    V1    S    
C28   C36   A    
C1    O15   A    
C52   C56   A    
C15   C31   A    
C4    C65   S    
N2    C69   A    
C2    O16   A    
C16   C32   A    
O2    C6    A    
C54   C58   A    
C10   C22   A    
C11   C19   A    
C16   C20   A    
C43   H3    S    
N8    C72   A    
C13   C29   A    
C34   C37   A    
O11   C7    A    
C51   C75   S    
C11   C23   A    
C35   C36   A    
O12   C8    A    
C47   C67   A    
C14   H14   S    
C45   H21   S    
C46   C66   A    
C24   H7    S    
C13   H13   S    
N6    C70   A    
O10   V2    S    
N4    N8    A    
C49   C73   S    
C75   H40   S    
C46   H22   S    
O5    V1    S    
C53   C57   A    
C73   H35   S    
C39   C43   A    
O7    V3    S    
C38   C42   A    
C26   C34   A    
C63   C67   A    
N3    C72   A    
C2    C67   S    
C76   H44   S    
C17   H10   S    
O18   V4    S    
C23   C27   A    
N1    N5    A    
C19   H12   S    
C50   C54   A    
O4    V2    S    
C64   H32   S    
C45   C49   A    
C21   H6    S    
O8    V4    S    
C55   C72   S    
O5    C1    A    
C37   C41   A    
C73   H34   S    
C31   C43   A    
C14   C30   A    
C21   C25   A    
O8    C4    A    
C7    C10   S    
O9    C5    A    
C59   C63   A    
C62   H30   S    
C37   H17   S    
C61   H29   S    
O6    V2    S    
C63   H31   S    
C50   C74   S    
O14   V2    S    
N5    C69   A    
C74   H38   S    
C3    C66   S    
C27   C35   A    
C56   C60   A    
C75   H41   S    
C29   C41   A    
C48   C52   A    
O16   V4    S    
O9    V1    S    
C57   H25   S    
C3    O13   A    
C64   C68   A    
C39   H19   S    
C59   H27   S    
C20   H11   S    
O6    C2    A    
C15   C19   A    
O11   V3    S    
C30   C42   A    
C52   C76   S    
O12   V4    S    
C73   H33   S    
C22   C26   A    
C8    C9    S    
C9    C17   A    
O10   C6    A    
C74   H37   S    
C54   C69   S    
C15   H15   S    
C32   C44   A    
C74   H36   S    
C60   C64   A    
C33   C34   A    
C42   H2    S    
C45   C65   A    
C41   H1    S    
C62   C66   A    
O20   V2    S    
C46   C50   A    
C12   C24   A    
C27   C31   A    
C13   C17   A    
N4    C71   A    
N3    N7    A    
C12   C20   A    
C47   H23   S    
C76   H43   S    
C60   H28   S    
C24   C28   A    
C61   C65   A    
C18   H9    S    
C4    O14   A    
C55   C59   A    
C47   C51   A    
C76   H42   S    
C40   H20   S    
C22   H5    S    
C49   C53   A    
C28   C32   A    
