data_mof_unit_29162.cif
_audit_creation_date              2013-03-05T16:36:12-0500
_audit_creation_method            fapswitch 2.2
_symmetry_space_group_name_H-M    P1
_symmetry_Int_Tables_number       1
_space_group_crystal_system       triclinic
_cell_length_a                    27.812625
_cell_length_b                    9.178076
_cell_length_c                    7.78445
_cell_angle_alpha                 90.004281
_cell_angle_beta                  89.972255
_cell_angle_gamma                 89.986924
_cell_volume                      1987.10812828

loop_
_atom_site_label
_atom_site_type_symbol
_atom_site_description
_atom_site_fract_x
_atom_site_fract_y
_atom_site_fract_z
_atom_type_partial_charge
O1    O     O_R   0.500000 0.288390 0.642760 -0.578821
O2    O     O_R   0.500000 0.711610 0.357240 -0.578630
O3    O     O_R   0.500000 0.711610 0.642760 -0.578624
O4    O     O_R   0.500000 0.288390 0.357240 -0.578824
C1    C     C_R   0.500000 0.219882 0.499996 0.829402
C2    C     C_R   0.499999 0.780116 0.500004 0.829070
O5    O     O_R   0.430260 0.500000 0.642770 -0.577834
O6    O     O_R   0.569740 0.500000 0.357230 -0.577824
O7    O     O_R   0.569740 0.500000 0.642770 -0.577487
O8    O     O_R   0.430260 0.500000 0.357230 -0.577486
C3    C     C_R   0.407506 0.500008 0.500039 0.838419
C4    C     C_R   0.592494 0.499943 0.499949 0.838437
Cu1   Cu    Cu3+1 0.500000 0.500000 0.669080 1.006083
Cu2   Cu    Cu3+1 0.500000 0.500000 0.330920 1.006078
C5    C     C_R   0.174762 0.424465 0.405441 0.625374
C6    C     C_R   0.824843 0.630189 0.409222 0.625651
C7    C     C_R   0.174967 0.631791 0.586396 0.625463
C8    C     C_R   0.825391 0.423545 0.591273 0.625305
O9    O     O_2   0.195778 0.344318 0.282090 -0.539340
O10   O     O_2   0.803813 0.711048 0.286762 -0.531135
O11   O     O_2   0.195757 0.713221 0.708835 -0.530741
O12   O     O_2   0.804539 0.343502 0.715029 -0.539293
N1    N     N_R   0.200537 0.526281 0.498194 -0.438999
N2    N     N_R   0.799457 0.525029 0.498547 -0.438922
C9    C     C_R   0.281890 0.649475 0.493091 0.475150
C10   C     C_R   0.721974 0.382744 0.483492 0.479460
C11   C     C_R   0.277953 0.383643 0.515272 0.479458
C12   C     C_R   0.718190 0.648626 0.505375 0.475309
C13   C     C_R   0.332175 0.638705 0.479349 -0.325164
C14   C     C_R   0.671416 0.379861 0.474989 -0.331491
C15   C     C_R   0.328498 0.380493 0.524693 -0.331429
C16   C     C_R   0.667916 0.638178 0.519942 -0.325267
C17   C     C_R   0.253304 0.520219 0.503076 0.148380
C18   C     C_R   0.746689 0.519191 0.494961 0.148812
C19   C     C_R   0.100181 0.529090 0.494931 -0.058536
C20   C     C_R   0.899807 0.528273 0.500248 -0.058560
C21   C     C_R   0.125220 0.408757 0.432006 -0.032199
C22   C     C_R   0.874369 0.647854 0.437179 -0.039322
C23   C     C_R   0.125464 0.649132 0.557480 -0.039477
C24   C     C_R   0.874925 0.408060 0.564214 -0.032467
C25   C     C_R   0.100116 0.279726 0.394780 -0.131607
C26   C     C_R   0.899253 0.777181 0.398946 -0.133334
C27   C     C_R   0.100436 0.778494 0.594541 -0.133514
C28   C     C_R   0.900184 0.279412 0.602087 -0.131759
C29   C     C_R   0.355212 0.506114 0.500227 -0.122385
C30   C     C_R   0.644792 0.505688 0.499629 -0.122295
H1    H     H_    0.347245 0.278761 0.546501 0.148814
H2    H     H_    0.646510 0.735297 0.540209 0.151733
H3    H     H_    0.353650 0.735679 0.459242 0.151839
H4    H     H_    0.652600 0.278211 0.453582 0.148826
H5    H     H_    0.118954 0.184394 0.347766 0.176211
H6    H     H_    0.880206 0.872041 0.351784 0.178231
H7    H     H_    0.119364 0.873727 0.641207 0.178051
H8    H     H_    0.881476 0.184175 0.649942 0.176353
C31   C     C_R   0.975150 0.395498 0.514473 0.040744
C32   C     C_R   0.024955 0.662577 0.511771 0.040666
C33   C     C_R   0.974888 0.662277 0.482034 0.040491
C34   C     C_R   0.024989 0.395635 0.481181 0.040725
C35   C     C_R   0.950103 0.528734 0.499035 0.084197
C36   C     C_R   0.049886 0.529161 0.495778 0.084159
C37   C     C_R   0.949486 0.270031 0.565462 -0.209071
C38   C     C_R   0.050988 0.788189 0.559912 -0.207799
C39   C     C_R   0.948711 0.787422 0.433129 -0.207997
C40   C     C_R   0.050806 0.270125 0.431170 -0.208994
H9    H     H_    0.967655 0.167477 0.587586 0.136578
H10   H     H_    0.033006 0.891064 0.581938 0.136004
H11   H     H_    0.966580 0.890325 0.410277 0.136480
H12   H     H_    0.032755 0.167307 0.409702 0.136415
C41   C     C_1   0.500000 0.065196 0.499994 -0.179682
C42   C     C_1   0.500000 0.934799 0.500005 -0.180412
N3    N     N_1   0.500000 0.500000 0.076820 -0.046171
N4    N     N_1   0.500000 0.500000 0.923180 -0.046170
O13   O     O_3   0.252550 0.253997 0.526830 -0.573549
C43   C     C_3   0.267882 0.157377 0.395235 -0.194465
H13   H     H_    0.301922 0.102656 0.430042 0.127270
H14   H     H_    0.273175 0.212683 0.269171 0.187721
H15   H     H_    0.239899 0.072762 0.376601 0.223813
O14   O     O_3   0.739171 0.785438 0.505043 -0.571350
C44   C     C_3   0.720993 0.866510 0.363643 -0.210298
H16   H     H_    0.685238 0.913789 0.393066 0.119232
H17   H     H_    0.718052 0.800301 0.243939 0.186200
H18   H     H_    0.746137 0.957003 0.334919 0.223866
O15   O     O_3   0.261012 0.786446 0.493098 -0.571138
C45   C     C_3   0.279008 0.867221 0.635037 -0.210213
H19   H     H_    0.314853 0.914209 0.606486 0.119082
H20   H     H_    0.281671 0.800875 0.754712 0.186029
H21   H     H_    0.253890 0.957910 0.663352 0.223964
O16   O     O_3   0.747316 0.252976 0.471626 -0.573567
C46   C     C_3   0.732158 0.156593 0.603666 -0.194662
H22   H     H_    0.698030 0.102034 0.569659 0.127128
H23   H     H_    0.727112 0.212072 0.729766 0.187835
H24   H     H_    0.760127 0.071827 0.621798 0.223802

loop_
_geom_bond_atom_site_label_1
_geom_bond_atom_site_label_2
_geom_bond_distance
_ccdc_geom_bond_type
C31   C35   1.412365 A    
Cu2   N3    1.978028 S    
C45   H21   1.108602 S    
C20   C35   1.398923 A    
C13   H3    1.083317 S    
C11   C17   1.431765 A    
O5    C3    1.278932 A    
C7    N1    1.383483 A    
C43   H14   1.114594 S    
O1    C1    1.276843 A    
C40   H12   1.082016 S    
C19   C21   1.394247 A    
C45   H20   1.115482 S    
C22   C26   1.405955 A    
C33   C35   1.412532 A    
C34   C36   1.412350 A    
C32   C33   1.411729 A    
C7    C23   1.404232 A    
O7    Cu1   1.950334 S    
C5    C21   1.400682 A    
C1    C41   1.419718 S    
C5    O9    1.343106 S    
C27   H7    1.083238 S    
N1    C17   1.469143 S    
C43   H15   1.109163 S    
C8    N2    1.381736 A    
C46   H23   1.114582 S    
C12   O14   1.384755 S    
C24   C28   1.405160 A    
O3    Cu1   1.952965 S    
C6    O10   1.342406 S    
O3    C2    1.276861 A    
C5    N1    1.381731 A    
C14   H4    1.082740 S    
C12   C18   1.430237 A    
C6    N2    1.383303 A    
C15   H1    1.082747 S    
Cu1   Cu2   2.632390 S    
C21   C25   1.405152 A    
C16   H2    1.083295 S    
O2    C2    1.276833 A    
C10   C18   1.431504 A    
C33   C39   1.412164 A    
O13   C43   1.420173 S    
C9    C13   1.406058 A    
C39   H11   1.082025 S    
C43   H13   1.105437 S    
C38   H10   1.081991 S    
C11   C15   1.408041 A    
C12   C16   1.406081 A    
C45   H19   1.108726 S    
C4    C30   1.455507 S    
O8    Cu2   1.950337 S    
C44   H17   1.115474 S    
O14   C44   1.421736 S    
C23   C27   1.405991 A    
C34   C40   1.411870 A    
C7    O11   1.342365 S    
C32   C36   1.412514 A    
C13   C29   1.384781 A    
C19   C36   1.398865 A    
C19   C23   1.394986 A    
C37   H9    1.082059 S    
O15   C45   1.421815 S    
C20   C24   1.394371 A    
O6    C4    1.278856 A    
C46   H24   1.109131 S    
C10   C14   1.407986 A    
C32   C38   1.412219 A    
C3    C29   1.455511 S    
O1    Cu1   1.952936 S    
C2    C42   1.419690 S    
O6    Cu2   1.950531 S    
C8    O12   1.343091 S    
C16   C30   1.384822 A    
C14   C30   1.385005 A    
O4    C1    1.276871 A    
C44   H18   1.108597 S    
Cu1   N4    1.978028 S    
C28   C37   1.403040 A    
C20   C22   1.395052 A    
N3    N4    1.196004 T    
C31   C37   1.411833 A    
O4    Cu2   1.952966 S    
C41   C42   1.196792 T    
O2    Cu2   1.952935 S    
O7    C4    1.279018 A    
N2    C18   1.468880 S    
C9    C17   1.430348 A    
O8    C3    1.278931 A    
C44   H16   1.108707 S    
C28   H8    1.083325 S    
O5    Cu1   1.950534 S    
C8    C24   1.400763 A    
O16   C46   1.420094 S    
C10   O16   1.386861 S    
C15   C29   1.384878 A    
C31   C34   1.410035 A    
C6    C22   1.404066 A    
C9    O15   1.384644 S    
C25   C40   1.403066 A    
C46   H22   1.105535 S    
C11   O13   1.386889 S    
C26   C39   1.404342 A    
C25   H5    1.083310 S    
C27   C38   1.404394 A    
C26   H6    1.083250 S    
