data_mof_unit_44656.cif
_audit_creation_date              2012-12-10T16:44:44-0500
_audit_creation_method            fapswitch 2.2
_symmetry_space_group_name_H-M    P1
_symmetry_Int_Tables_number       1
_space_group_crystal_system       triclinic
_cell_length_a                    14.965162
_cell_length_b                    8.687284
_cell_length_c                    7.631437
_cell_angle_alpha                 103.741349
_cell_angle_beta                  96.201701
_cell_angle_gamma                 96.164416
_cell_volume                      948.964094018

loop_
_atom_site_label
_atom_site_type_symbol
_atom_type_description
_atom_site_fract_x
_atom_site_fract_y
_atom_site_fract_z
_atom_type_partial_charge
C1    C     C_R   0.497155 0.199785 0.452518 0.919090
C2    C     C_R   0.502845 0.800214 0.547482 0.919090
C3    C     C_R   0.019801 0.210521 0.353333 -0.011008
C4    C     C_R   0.980199 0.789480 0.646660 -0.011013
C5    C     C_2   0.495944 0.030695 0.427392 -0.293125
C6    C     C_2   0.504056 0.969305 0.572608 -0.293125
C7    C     C_R   0.329393 0.499831 0.499051 0.898183
C8    C     C_R   0.670607 0.500168 0.500948 0.898183
C9    C     C_R   0.825851 0.639909 0.582723 -0.256614
C10   C     C_R   0.174149 0.360091 0.417276 -0.256614
C11   C     C_R   0.767052 0.499371 0.501919 -0.170778
C12   C     C_R   0.232948 0.500629 0.498080 -0.170777
C13   C     C_R   0.799528 0.359727 0.418091 0.543417
C14   C     C_R   0.200471 0.640274 0.581907 0.543418
C15   C     C_R   0.892826 0.358547 0.419738 -0.025617
C16   C     C_R   0.107174 0.641454 0.580259 -0.025621
C17   C     C_R   0.953095 0.501095 0.498993 0.012580
C18   C     C_R   0.046904 0.498906 0.501003 0.012579
C19   C     C_R   0.919336 0.645539 0.575641 0.050816
C20   C     C_R   0.080664 0.354462 0.424356 0.050821
C21   C     C_R   0.926434 0.216151 0.346954 -0.162873
C22   C     C_R   0.073565 0.783850 0.653040 -0.162864
Cu1   Cu    Cu3+1 0.510010 0.517380 0.684380 1.048562
Cu2   Cu    Cu3+1 0.489990 0.482620 0.315620 1.048562
H1    H     H_    0.797261 0.743163 0.651074 0.213339
H2    H     H_    0.202739 0.256836 0.348927 0.213336
H3    H     H_    0.879672 0.106679 0.291060 0.238376
H4    H     H_    0.120328 0.893322 0.708933 0.238382
H5    H     H_    0.488414 0.956627 0.288725 0.186306
H6    H     H_    0.511586 0.043373 0.711275 0.186306
N1    N     N_2   0.474890 0.456420 0.038520 -0.227996
N2    N     N_2   0.525110 0.543580 0.961480 -0.227996
O1    O     O_R   0.506510 0.286130 0.619770 -0.565117
O2    O     O_R   0.493490 0.713870 0.380230 -0.565117
O3    O     O_R   0.489600 0.256770 0.308360 -0.560449
O4    O     O_R   0.510400 0.743230 0.691640 -0.560449
O5    O     O_R   0.378710 0.514640 0.655720 -0.535404
O6    O     O_R   0.621290 0.485360 0.344280 -0.535403
O7    O     O_R   0.361800 0.485290 0.344300 -0.574421
O8    O     O_R   0.638200 0.514710 0.655700 -0.574422
F1    F     F_    0.740204 0.224355 0.340786 -0.677390
F2    F     F_    0.259796 0.775646 0.659212 -0.677390
C23   C     C_2   0.050290 0.050788 0.294509 0.867533
O9    O     O_2   0.004924 0.947649 0.169590 -0.560268
O10   O     O_R   0.127612 0.014471 0.388102 -0.775067
H7    H     H_    0.140314 0.901518 0.335994 0.347294
C24   C     C_2   0.949710 0.949215 0.705477 0.867556
O11   O     O_2   0.995079 0.052360 0.830379 -0.560269
O12   O     O_R   0.872384 0.985526 0.611894 -0.775072
H8    H     H_    0.859683 0.098480 0.663995 0.347296
C25   C     C_2   0.401684 0.330467 0.950452 1.060113
O13   O     O_2   0.360877 0.262043 0.046467 -0.576365
O14   O     O_R   0.373911 0.279452 0.764646 -0.751181
H9    H     H_    0.321332 0.188999 0.729059 0.338051
C26   C     C_2   0.598316 0.669533 0.049548 1.060112
O15   O     O_2   0.639123 0.737958 0.953533 -0.576365
O16   O     O_R   0.626089 0.720548 0.235354 -0.751181
H10   H     H_    0.678668 0.811001 0.270941 0.338051

loop_
_geom_bond_atom_site_label_1
_geom_bond_atom_site_label_2
_ccdc_geom_bond_type
Cu1   O1    S    
Cu2   O6    S    
C23   O9    D    
C10   C20   A    
Cu1   O5    S    
C4    C22   A    
N2    C26   S    
C18   C20   A    
N1    N2    D    
C14   F2    S    
Cu1   N2    S    
C10   H2    S    
C26   O15   D    
C13   F1    S    
C17   C18   A    
C21   H3    S    
Cu2   N1    S    
C9    H1    S    
C3    C20   A    
C24   O12   S    
C26   O16   S    
C22   H4    S    
O14   H9    S    
C23   O10   S    
C11   C13   A    
C3    C23   S    
O16   H10   S    
C2    C6    S    
C10   C12   A    
C8    O6    A    
C8    C11   S    
C1    C5    S    
C9    C11   A    
C17   C19   A    
C12   C14   A    
Cu1   O4    S    
C5    H5    S    
C13   C15   A    
C7    O5    A    
C5    C6    D    
C14   C16   A    
C7    C12   S    
C3    C21   A    
Cu2   O3    S    
Cu1   Cu2   S    
C1    O1    A    
Cu1   O8    S    
C15   C21   A    
Cu2   O7    S    
C25   O13   D    
C1    O3    A    
C16   C18   A    
O12   H8    S    
C2    O4    A    
C15   C17   A    
C7    O7    A    
C16   C22   A    
C8    O8    A    
C6    H6    S    
C2    O2    A    
O10   H7    S    
C4    C19   A    
C9    C19   A    
Cu2   O2    S    
C24   O11   D    
N1    C25   S    
C25   O14   S    
C4    C24   S    
