data_mof_unit_63943.cif
_audit_creation_date              2012-12-10T18:29:17-0500
_audit_creation_method            fapswitch 2.2
_symmetry_space_group_name_H-M    P1
_symmetry_Int_Tables_number       1
_space_group_crystal_system       triclinic
_cell_length_a                    35.959351
_cell_length_b                    25.790205
_cell_length_c                    22.119327
_cell_angle_alpha                 90.0
_cell_angle_beta                  144.346902
_cell_angle_gamma                 89.999947
_cell_volume                      11956.7984125

loop_
_atom_site_label
_atom_site_type_symbol
_atom_type_description
_atom_site_fract_x
_atom_site_fract_y
_atom_site_fract_z
_atom_type_partial_charge
C1    C     C_R   0.650262 0.750029 0.999969 0.820186
C2    C     C_R   0.650242 0.249952 0.999928 0.817355
C3    C     C_R   0.150243 0.250048 0.999928 0.817353
C4    C     C_R   0.150262 0.749972 0.999970 0.820221
C5    C     C_3   0.749605 0.550874 0.999524 0.205498
C6    C     C_3   0.749605 0.449126 0.999524 0.204580
C7    C     C_3   0.249605 0.050874 0.999524 0.204575
C8    C     C_3   0.249605 0.949126 0.999524 0.205499
C9    C     C_3   0.495933 0.203406 0.967117 -0.166494
C10   C     C_3   0.494739 0.796079 0.964720 -0.166272
C11   C     C_3   0.995900 0.703499 0.967042 -0.166137
C12   C     C_3   0.994618 0.296114 0.964487 -0.166649
C13   C     C_3   0.939140 0.740798 0.903031 -0.166122
C14   C     C_3   0.938858 0.257978 0.902478 -0.165701
C15   C     C_3   0.439099 0.240643 0.902961 -0.165810
C16   C     C_3   0.438926 0.757988 0.902602 -0.166032
C17   C     C_1   0.889365 0.749957 0.999817 -0.152517
C18   C     C_1   0.889350 0.250059 0.999784 -0.152754
C19   C     C_1   0.389350 0.249941 0.999784 -0.152754
C20   C     C_1   0.389365 0.750044 0.999815 -0.152512
C21   C     C_1   0.610398 0.249853 0.999731 -0.155832
C22   C     C_1   0.610444 0.750102 0.999828 -0.156351
C23   C     C_1   0.110446 0.749899 0.999830 -0.156329
C24   C     C_1   0.110399 0.250147 0.999731 -0.155830
C25   C     C_3   0.019413 0.712580 0.063644 -0.162017
C26   C     C_3   0.018366 0.288302 0.061546 -0.161991
C27   C     C_3   0.519439 0.212596 0.063693 -0.161993
C28   C     C_3   0.518465 0.788213 0.061747 -0.161993
C29   C     C_3   0.963309 0.749881 0.999637 0.207694
C30   C     C_3   0.963263 0.250166 0.999541 0.207425
C31   C     C_3   0.463263 0.249834 0.999541 0.207425
C32   C     C_3   0.463308 0.750121 0.999633 0.207695
C33   C     C_3   0.560411 0.258970 0.096070 -0.164555
C34   C     C_3   0.560693 0.742292 0.096652 -0.165127
C35   C     C_3   0.060483 0.758925 0.096231 -0.165249
C36   C     C_3   0.060653 0.242408 0.096553 -0.164418
C37   C     C_3   0.536253 0.249781 0.999498 0.207509
C38   C     C_3   0.536315 0.750157 0.999628 0.207743
C39   C     C_3   0.036318 0.749844 0.999632 0.207740
C40   C     C_3   0.036253 0.250219 0.999498 0.207509
C41   C     C_3   0.003728 0.796224 0.032223 -0.165180
C42   C     C_3   0.004900 0.204274 0.034546 -0.165334
C43   C     C_3   0.503585 0.296206 0.031915 -0.165222
C44   C     C_3   0.504885 0.704201 0.034536 -0.165289
C45   C     C_R   0.849677 0.749989 0.999943 0.814892
C46   C     C_R   0.849675 0.250013 0.999940 0.815692
C47   C     C_R   0.349675 0.249987 0.999940 0.815694
C48   C     C_R   0.349677 0.750011 0.999943 0.814879
C49   C     C_3   0.480076 0.287017 0.935341 -0.163031
C50   C     C_3   0.481158 0.712067 0.937510 -0.163075
C51   C     C_3   0.980214 0.787143 0.935621 -0.163078
C52   C     C_3   0.981150 0.212084 0.937488 -0.163010
C53   C     C_1   0.922746 0.749920 0.999715 -0.093837
C54   C     C_1   0.922716 0.250110 0.999652 -0.093538
C55   C     C_1   0.422716 0.249889 0.999652 -0.093538
C56   C     C_1   0.422745 0.750081 0.999712 -0.093839
C57   C     C_1   0.576894 0.249797 0.999581 -0.094509
C58   C     C_1   0.576955 0.750144 0.999708 -0.094569
C59   C     C_1   0.076957 0.749857 0.999712 -0.094555
C60   C     C_1   0.076894 0.250203 0.999581 -0.094507
C61   C     C_3   0.491198 0.765864 0.560501 0.364912
C62   C     C_3   0.491176 0.233362 0.560373 0.363285
C63   C     C_3   0.991178 0.266652 0.560372 0.363277
C64   C     C_3   0.991223 0.734036 0.560499 0.364916
C65   C     C_3   0.431349 0.766390 0.440041 -0.456385
C66   C     C_3   0.431365 0.233212 0.439993 -0.430988
C67   C     C_3   0.931367 0.266798 0.439992 -0.430956
C68   C     C_3   0.931373 0.733522 0.440036 -0.456773
C69   C     C_3   0.539920 0.695608 0.559881 -0.515970
C70   C     C_3   0.539403 0.304492 0.559932 -0.509748
C71   C     C_3   0.039393 0.195504 0.559932 -0.509729
C72   C     C_3   0.039851 0.804423 0.559881 -0.515980
C73   C     C_3   0.559168 0.789219 0.559390 -0.359590
C74   C     C_3   0.559461 0.211226 0.559431 -0.356201
C75   C     C_3   0.059468 0.288762 0.559431 -0.356181
C76   C     C_3   0.059226 0.710863 0.559389 -0.359597
C77   C     C_3   0.550955 0.750315 0.601735 0.136421
C78   C     C_3   0.550893 0.249617 0.601764 0.133322
C79   C     C_3   0.050893 0.250382 0.601764 0.133311
C80   C     C_3   0.050959 0.749690 0.601734 0.136465
C81   C     C_3   0.449250 0.750308 0.398283 0.152981
C82   C     C_3   0.449235 0.249675 0.398305 0.143011
C83   C     C_3   0.949235 0.250324 0.398305 0.142999
C84   C     C_3   0.949255 0.749699 0.398282 0.153151
C85   C     C_3   0.479811 0.695564 0.440076 -0.412449
C86   C     C_3   0.479511 0.304507 0.440142 -0.414978
C87   C     C_3   0.979503 0.195490 0.440143 -0.414985
C88   C     C_3   0.979748 0.804465 0.440077 -0.412427
C89   C     C_R   0.891430 0.749921 0.282824 0.767415
C90   C     C_R   0.891429 0.250082 0.282831 0.767770
C91   C     C_R   0.391429 0.249918 0.282831 0.767773
C92   C     C_R   0.391427 0.750083 0.282825 0.767412
C93   C     C_3   0.499545 0.789347 0.440406 -0.388979
C94   C     C_3   0.499744 0.210943 0.440449 -0.389053
C95   C     C_3   0.999750 0.289048 0.440449 -0.389040
C96   C     C_3   0.999599 0.710731 0.440405 -0.388967
C97   C     C_3   0.762440 0.970240 0.081584 -0.385688
C98   C     C_3   0.762575 0.029757 0.081746 -0.385024
C99   C     C_3   0.262583 0.470243 0.081755 -0.385021
C100  C     C_3   0.262447 0.529760 0.081591 -0.385691
C101  C     C_3   0.684506 0.970009 0.891974 -0.388844
C102  C     C_3   0.684416 0.029954 0.892074 -0.397612
C103  C     C_3   0.184414 0.470047 0.892078 -0.397667
C104  C     C_3   0.184505 0.529991 0.891977 -0.388797
C105  C     C_3   0.802879 0.970044 0.027810 -0.400129
C106  C     C_3   0.802759 0.029965 0.027548 -0.397882
C107  C     C_3   0.302755 0.470035 0.027537 -0.397873
C108  C     C_3   0.302876 0.529956 0.027802 -0.400137
C109  C     C_3   0.749931 0.949121 0.000327 0.199080
C110  C     C_3   0.749902 0.050873 0.000305 0.201473
C111  C     C_3   0.249903 0.449127 0.000305 0.201485
C112  C     C_3   0.249932 0.550879 0.000328 0.199061
C113  C     C_R   0.608764 0.749897 0.717221 0.798907
C114  C     C_R   0.608750 0.250087 0.717222 0.782837
C115  C     C_R   0.108750 0.249913 0.717222 0.782793
C116  C     C_R   0.108766 0.750105 0.717220 0.798997
C117  C     C_R   0.749944 0.891408 0.000046 0.749082
C118  C     C_R   0.749904 0.108590 0.000003 0.746253
C119  C     C_R   0.249904 0.391410 0.000003 0.746247
C120  C     C_R   0.249944 0.608592 0.000047 0.749103
C121  C     C_R   0.749909 0.608586 0.999881 0.744284
C122  C     C_R   0.749909 0.391414 0.999881 0.745825
C123  C     C_R   0.249909 0.108586 0.999881 0.745827
C124  C     C_R   0.249909 0.891414 0.999881 0.744270
C125  C     C_3   0.680974 0.529756 0.918930 -0.386040
C126  C     C_3   0.680974 0.470244 0.918930 -0.385906
C127  C     C_3   0.180974 0.029756 0.918929 -0.385906
C128  C     C_3   0.180974 0.970244 0.918929 -0.386038
C129  C     C_3   0.792948 0.529966 0.108114 -0.397754
C130  C     C_3   0.792948 0.470033 0.108114 -0.397391
C131  C     C_3   0.292948 0.029966 0.108113 -0.397390
C132  C     C_3   0.292948 0.970033 0.108114 -0.397747
C133  C     C_3   0.774525 0.529966 0.971089 -0.398704
C134  C     C_3   0.774525 0.470033 0.971089 -0.398762
C135  C     C_3   0.274525 0.029966 0.971090 -0.398758
C136  C     C_3   0.274526 0.970034 0.971091 -0.398705
H1    H     H_    0.661769 0.543965 0.937476 0.175419
H2    H     H_    0.661769 0.456035 0.937475 0.175575
H3    H     H_    0.161768 0.043966 0.937473 0.175575
H4    H     H_    0.161768 0.956035 0.937474 0.175426
H5    H     H_    0.006424 0.834322 0.059002 0.127870
H6    H     H_    0.008604 0.166540 0.063331 0.127986
H7    H     H_    0.506208 0.334335 0.058538 0.128044
H8    H     H_    0.508533 0.666452 0.063220 0.127809
H9    H     H_    0.610776 0.266498 0.175411 0.128471
H10   H     H_    0.611245 0.735844 0.176380 0.127744
H11   H     H_    0.110861 0.766370 0.175610 0.127707
H12   H     H_    0.111216 0.236014 0.176292 0.128522
H13   H     H_    0.034998 0.681947 0.116247 0.130206
H14   H     H_    0.033138 0.319615 0.112521 0.130338
H15   H     H_    0.535092 0.182021 0.116431 0.130347
H16   H     H_    0.533272 0.819496 0.112794 0.130201
H17   H     H_    0.484353 0.735266 0.586759 0.049138
H18   H     H_    0.483109 0.263585 0.585268 0.042869
H19   H     H_    0.983106 0.236440 0.585271 0.042873
H20   H     H_    0.984350 0.764567 0.586792 0.049220
H21   H     H_    0.409338 0.805679 0.410496 0.179527
H22   H     H_    0.409170 0.193992 0.409923 0.182498
H23   H     H_    0.909174 0.306019 0.409916 0.182492
H24   H     H_    0.909404 0.694218 0.410476 0.179429
H25   H     H_    0.395037 0.739265 0.410722 0.140346
H26   H     H_    0.395049 0.260277 0.410813 0.139966
H27   H     H_    0.895050 0.239738 0.410816 0.139969
H28   H     H_    0.895033 0.760599 0.410727 0.140307
H29   H     H_    0.534025 0.666458 0.588776 0.182553
H30   H     H_    0.533002 0.333246 0.588507 0.183140
H31   H     H_    0.032983 0.166759 0.588503 0.183152
H32   H     H_    0.033907 0.833518 0.588765 0.182610
H33   H     H_    0.445024 0.666739 0.411896 0.183987
H34   H     H_    0.444509 0.333164 0.411669 0.184341
H35   H     H_    0.944497 0.166838 0.411666 0.184351
H36   H     H_    0.944925 0.833242 0.411889 0.184037
H37   H     H_    0.601421 0.778344 0.587446 0.164588
H38   H     H_    0.601515 0.222686 0.587274 0.164482
H39   H     H_    0.101519 0.277291 0.587272 0.164478
H40   H     H_    0.101462 0.721816 0.587443 0.164499
H41   H     H_    0.648654 0.543967 0.839879 0.172372
H42   H     H_    0.648654 0.456033 0.839879 0.172542
H43   H     H_    0.148654 0.043968 0.839878 0.172544
H44   H     H_    0.148654 0.956033 0.839878 0.172373
H45   H     H_    0.567664 0.829095 0.588110 0.212960
H46   H     H_    0.568498 0.171272 0.588372 0.213091
H47   H     H_    0.068515 0.328718 0.588375 0.213098
H48   H     H_    0.067779 0.670972 0.588112 0.213011
H49   H     H_    0.479091 0.829185 0.412262 0.184366
H50   H     H_    0.479554 0.171019 0.412539 0.185262
H51   H     H_    0.979566 0.328974 0.412542 0.185272
H52   H     H_    0.979199 0.670876 0.412270 0.184424
H53   H     H_    0.513388 0.778939 0.411630 0.176751
H54   H     H_    0.513411 0.221546 0.411454 0.176758
H55   H     H_    0.013414 0.278438 0.411451 0.176756
H56   H     H_    0.013424 0.721206 0.411621 0.176661
H57   H     H_    0.582125 0.683753 0.588395 0.176936
H58   H     H_    0.581611 0.316910 0.588795 0.176911
H59   H     H_    0.081599 0.183075 0.588800 0.176905
H60   H     H_    0.082043 0.816354 0.588407 0.176914
H61   H     H_    0.492913 0.683318 0.410757 0.164203
H62   H     H_    0.492787 0.316967 0.411174 0.165168
H63   H     H_    0.992780 0.183023 0.411179 0.165167
H64   H     H_    0.992842 0.816777 0.410768 0.164184
H65   H     H_    0.724912 0.956093 0.063595 0.176292
H66   H     H_    0.725244 0.044021 0.064155 0.176479
H67   H     H_    0.225257 0.455978 0.064174 0.176485
H68   H     H_    0.224921 0.543907 0.063608 0.176289
H69   H     H_    0.809248 0.955965 0.160444 0.172374
H70   H     H_    0.809514 0.043913 0.160588 0.172245
H71   H     H_    0.309525 0.456087 0.160596 0.172239
H72   H     H_    0.309255 0.544036 0.160450 0.172372
H73   H     H_    0.645756 0.955414 0.870699 0.154099
H74   H     H_    0.645874 0.044238 0.871486 0.153847
H75   H     H_    0.145877 0.455764 0.871504 0.153860
H76   H     H_    0.145758 0.544588 0.870707 0.154098
H77   H     H_    0.795182 0.955704 0.970747 0.179994
H78   H     H_    0.794795 0.044166 0.970116 0.180268
H79   H     H_    0.294785 0.455835 0.970097 0.180269
H80   H     H_    0.295176 0.544297 0.970735 0.179999
H81   H     H_    0.850328 0.955659 0.105629 0.149743
H82   H     H_    0.850219 0.044508 0.105143 0.149337
H83   H     H_    0.350216 0.455491 0.105129 0.149335
H84   H     H_    0.350327 0.544340 0.105620 0.149744
H85   H     H_    0.775739 0.544431 0.129897 0.151828
H86   H     H_    0.775739 0.455568 0.129896 0.152301
H87   H     H_    0.275738 0.044431 0.129894 0.152305
H88   H     H_    0.275738 0.955568 0.129895 0.151835
H89   H     H_    0.674319 0.955835 0.831981 0.183179
H90   H     H_    0.673815 0.044386 0.831726 0.182861
H91   H     H_    0.173805 0.455613 0.831723 0.182861
H92   H     H_    0.174315 0.544165 0.831980 0.183205
H93   H     H_    0.823834 0.544244 0.027764 0.179774
H94   H     H_    0.823833 0.455755 0.027763 0.179764
H95   H     H_    0.323834 0.044245 0.027765 0.179767
H96   H     H_    0.323835 0.955755 0.027766 0.179771
H97   H     H_    0.743907 0.544431 0.893149 0.149557
H98   H     H_    0.743906 0.455569 0.893148 0.149726
H99   H     H_    0.243908 0.044431 0.893150 0.149725
H100  H     H_    0.243908 0.955569 0.893151 0.149555
H101  H     H_    0.842649 0.544247 0.167700 0.178979
H102  H     H_    0.842648 0.455753 0.167699 0.179106
H103  H     H_    0.342648 0.044247 0.167699 0.179105
H104  H     H_    0.342648 0.955753 0.167700 0.178978
H105  H     H_    0.888763 0.733353 0.823653 0.127809
H106  H     H_    0.888296 0.264372 0.822739 0.128163
H107  H     H_    0.388735 0.233116 0.823620 0.128096
H108  H     H_    0.388374 0.764436 0.822875 0.127872
H109  H     H_    0.493314 0.165282 0.940489 0.127964
H110  H     H_    0.491095 0.833825 0.936030 0.128004
H111  H     H_    0.993207 0.665405 0.940257 0.128077
H112  H     H_    0.990919 0.333842 0.935697 0.127887
H113  H     H_    0.464426 0.317590 0.882602 0.129515
H114  H     H_    0.466353 0.680785 0.886462 0.129366
H115  H     H_    0.964631 0.817774 0.883018 0.129346
H116  H     H_    0.966381 0.180773 0.886513 0.129542
O1    O     O_3   0.749990 0.749990 0.000000 -0.466751
O2    O     O_3   0.749990 0.250010 0.000000 -0.465703
O3    O     O_3   0.249990 0.249990 0.000000 -0.465702
O4    O     O_3   0.249990 0.750010 0.000000 -0.466772
O5    O     O_R   0.888390 0.719350 0.233690 -0.651511
O6    O     O_R   0.888390 0.280650 0.233690 -0.650869
O7    O     O_R   0.388390 0.219350 0.233690 -0.650872
O8    O     O_R   0.388390 0.780650 0.233690 -0.651501
O9    O     O_R   0.611600 0.719370 0.766300 -0.662723
O10   O     O_R   0.611600 0.280630 0.766300 -0.669478
O11   O     O_R   0.111600 0.219370 0.766300 -0.669480
O12   O     O_R   0.111600 0.780630 0.766300 -0.662674
O13   O     O_R   0.698440 0.780630 0.061300 -0.638191
O14   O     O_R   0.698440 0.219370 0.061300 -0.636895
O15   O     O_R   0.198440 0.280630 0.061300 -0.636899
O16   O     O_R   0.198440 0.719370 0.061300 -0.638207
O17   O     O_R   0.801540 0.780630 0.938710 -0.641716
O18   O     O_R   0.801540 0.219370 0.938710 -0.640853
O19   O     O_R   0.301540 0.280630 0.938710 -0.640849
O20   O     O_R   0.301540 0.719370 0.938710 -0.641732
O21   O     O_R   0.637170 0.719360 0.938750 -0.641388
O22   O     O_R   0.637170 0.280640 0.938750 -0.645297
O23   O     O_R   0.137170 0.219360 0.938750 -0.645293
O24   O     O_R   0.137170 0.780640 0.938750 -0.641323
O25   O     O_R   0.862810 0.719350 0.061240 -0.639542
O26   O     O_R   0.862810 0.280650 0.061240 -0.639428
O27   O     O_R   0.362810 0.219350 0.061240 -0.639432
O28   O     O_R   0.362810 0.780650 0.061240 -0.639538
O29   O     O_R   0.845300 0.780620 0.233710 -0.648693
O30   O     O_R   0.845300 0.219380 0.233710 -0.648218
O31   O     O_R   0.345300 0.280620 0.233710 -0.648220
O32   O     O_R   0.345300 0.719380 0.233710 -0.648693
O33   O     O_R   0.654690 0.780640 0.766300 -0.642281
O34   O     O_R   0.654690 0.219360 0.766300 -0.640075
O35   O     O_R   0.154690 0.280640 0.766300 -0.640063
O36   O     O_R   0.154690 0.719360 0.766300 -0.642233
O37   O     O_R   0.759080 0.866840 0.061290 -0.651917
O38   O     O_R   0.759080 0.133160 0.061290 -0.651447
O39   O     O_R   0.259080 0.366840 0.061290 -0.651442
O40   O     O_R   0.259080 0.633160 0.061290 -0.651921
O41   O     O_R   0.697810 0.633140 0.938720 -0.652478
O42   O     O_R   0.697810 0.366860 0.938720 -0.650990
O43   O     O_R   0.197810 0.133140 0.938720 -0.650988
O44   O     O_R   0.197810 0.866860 0.938720 -0.652486
O45   O     O_R   0.740900 0.866850 0.938740 -0.644115
O46   O     O_R   0.740900 0.133150 0.938740 -0.645056
O47   O     O_R   0.240900 0.366850 0.938740 -0.645061
O48   O     O_R   0.240900 0.633150 0.938740 -0.644092
O49   O     O_R   0.802180 0.633140 0.061250 -0.648157
O50   O     O_R   0.802180 0.366860 0.061250 -0.647942
O51   O     O_R   0.302180 0.133140 0.061250 -0.647941
O52   O     O_R   0.302180 0.866860 0.061250 -0.648163
Zn1   Zn    Zn3+2 0.824550 0.706220 0.087530 0.949740
Zn2   Zn    Zn3+2 0.824550 0.293780 0.087530 0.951233
Zn3   Zn    Zn3+2 0.324550 0.206220 0.087530 0.951232
Zn4   Zn    Zn3+2 0.324550 0.793780 0.087530 0.949731
Zn5   Zn    Zn3+2 0.762980 0.793760 0.087560 0.953352
Zn6   Zn    Zn3+2 0.762980 0.206240 0.087560 0.952324
Zn7   Zn    Zn3+2 0.262980 0.293760 0.087560 0.952318
Zn8   Zn    Zn3+2 0.262980 0.706240 0.087560 0.953370
Zn9   Zn    Zn3+2 0.737010 0.793770 0.912460 0.963730
Zn10  Zn    Zn3+2 0.737010 0.206230 0.912460 0.960551
Zn11  Zn    Zn3+2 0.237010 0.293770 0.912460 0.960548
Zn12  Zn    Zn3+2 0.237010 0.706230 0.912460 0.963784
Zn13  Zn    Zn3+2 0.675440 0.706230 0.912460 0.951410
Zn14  Zn    Zn3+2 0.675440 0.293770 0.912460 0.944504
Zn15  Zn    Zn3+2 0.175440 0.206230 0.912460 0.944503
Zn16  Zn    Zn3+2 0.175440 0.793770 0.912460 0.951495
O53   O     O_3   0.500984 0.815779 0.598951 -0.617716
C137  C     C_3   0.471914 0.819379 0.617965 0.084232
H117  H     H_    0.495347 0.792416 0.681384 0.140943
H118  H     H_    0.420028 0.810357 0.546586 0.133422
C138  C     C_3   0.479629 0.874339 0.651949 -0.831847
H119  H     H_    0.456203 0.902225 0.589834 0.255317
H120  H     H_    0.457270 0.877602 0.667768 0.201058
H121  H     H_    0.531085 0.884172 0.723697 0.248857
O54   O     O_3   0.500517 0.182791 0.596785 -0.617913
C139  C     C_3   0.498942 0.183307 0.658518 0.085947
H122  H     H_    0.450390 0.193948 0.610567 0.137680
H123  H     H_    0.534581 0.211062 0.724235 0.144840
C140  C     C_3   0.515395 0.129543 0.703739 -0.838511
H124  H     H_    0.563972 0.118407 0.752601 0.245958
H125  H     H_    0.514245 0.129453 0.752412 0.200921
H126  H     H_    0.480383 0.100762 0.640334 0.258086
O55   O     O_3   0.000526 0.317229 0.596773 -0.617909
C141  C     C_3   0.998997 0.316725 0.658569 0.085960
H127  H     H_    0.034631 0.288961 0.724266 0.144822
H128  H     H_    0.950450 0.306107 0.610658 0.137696
C142  C     C_3   0.015499 0.370488 0.703828 -0.838577
H129  H     H_    0.980489 0.399279 0.640446 0.258080
H130  H     H_    0.014394 0.370588 0.752561 0.200888
H131  H     H_    0.064068 0.381603 0.752637 0.245981
O56   O     O_3   0.001084 0.684097 0.598955 -0.617676
C143  C     C_3   0.971702 0.680292 0.617395 0.084234
H132  H     H_    0.919792 0.689166 0.545749 0.133408
H133  H     H_    0.994825 0.707252 0.680605 0.140761
C144  C     C_3   0.979525 0.625302 0.651399 -0.831690
H134  H     H_    0.031002 0.615631 0.723468 0.248795
H135  H     H_    0.956860 0.621857 0.666667 0.201035
H136  H     H_    0.956462 0.597410 0.589529 0.255352

loop_
_geom_bond_atom_site_label_1
_geom_bond_atom_site_label_2
_ccdc_geom_bond_type
O28   Zn4   S    
C137  H118  S    
C82   C94   S    
C90   O30   A    
C36   C42   S    
C73   C93   S    
C110  C118  S    
O55   C141  S    
C100  H72   S    
C75   C95   S    
C140  H124  S    
O8    Zn4   S    
C137  C138  S    
C103  H91   S    
C117  O45   A    
C101  H89   S    
C119  O39   A    
C120  O48   A    
C113  O33   A    
C13   C51   S    
C36   H12   S    
C14   C52   S    
C80   C116  S    
C115  O35   A    
C128  H44   S    
O3    Zn3   S    
C72   C88   S    
C77   C113  S    
C47   O27   A    
C104  H92   S    
C68   H28   S    
C25   C29   S    
C139  H122  S    
C27   C31   S    
C28   C32   S    
C76   H40   S    
C7    C123  S    
C112  C120  S    
C4    C23   S    
C118  O46   A    
C85   H33   S    
C82   C91   S    
C99   H71   S    
C33   C43   S    
C12   C40   S    
C94   H54   S    
C22   C58   T    
C116  O12   A    
C2    O22   A    
C73   H45   S    
O27   Zn3   S    
O49   Zn1   S    
C87   H35   S    
C69   H57   S    
C89   O5    A    
O16   Zn8   S    
C86   H62   S    
C107  H83   S    
C45   O25   A    
O1    Zn1   S    
O2    Zn6   S    
O13   Zn5   S    
C90   O6    A    
O15   Zn7   S    
C140  H126  S    
C44   C50   S    
C129  H101  S    
C122  O50   A    
C43   C49   S    
C84   C88   S    
O29   Zn5   S    
C72   H60   S    
O41   Zn13  S    
O43   Zn15  S    
C41   H5    S    
O50   Zn2   S    
O44   Zn16  S    
C10   C38   S    
C9    C15   S    
C10   C16   S    
C76   C96   S    
C11   C13   S    
O48   Zn12  S    
O34   Zn10  S    
C126  H42   S    
C15   C49   S    
C114  O10   A    
C61   C65   S    
C107  H79   S    
O53   C137  S    
C65   H25   S    
C73   C77   S    
C98   H70   S    
O1    Zn13  S    
C68   H24   S    
C75   C79   S    
C41   C51   S    
C37   C57   S    
C42   C52   S    
C39   C51   S    
C67   C83   S    
C144  H134  S    
C40   C60   S    
C79   C115  S    
C121  O41   A    
C69   C77   S    
C6    C130  S    
C123  O43   A    
C71   C79   S    
C97   C98   S    
C23   C59   T    
C27   C33   S    
C5    C133  S    
C30   C54   S    
C31   C43   S    
C64   C68   S    
O1    Zn9   S    
C17   C45   S    
C74   H38   S    
C19   C47   S    
C11   C25   S    
C2    O14   A    
C97   C109  S    
C111  C119  S    
O35   Zn11  S    
C138  H120  S    
O4    Zn12  S    
C81   C92   S    
C143  H133  S    
C8    C128  S    
C61   C77   S    
C107  C108  S    
C91   O31   A    
C50   H114  S    
C44   H8    S    
C1    C22   S    
C46   O18   A    
C71   H31   S    
C72   H32   S    
C3    C24   S    
C142  H130  S    
O37   Zn5   S    
C106  H78   S    
C15   H107  S    
C62   C66   S    
O39   Zn7   S    
C103  H75   S    
C104  C112  S    
C114  O34   A    
C113  O9    A    
C101  H73   S    
C12   C26   S    
O3    Zn7   S    
C71   H59   S    
O4    Zn8   S    
C99   C111  S    
C134  H98   S    
C52   H116  S    
C33   H9    S    
C63   O55   S    
C10   H110  S    
C16   H108  S    
C26   C30   S    
C144  H136  S    
C141  H128  S    
C104  H76   S    
C69   C85   S    
C143  C144  S    
O7    Zn3   S    
C129  C130  S    
C105  C109  S    
C99   H67   S    
C86   H34   S    
C107  C111  S    
C62   C78   S    
C30   C42   S    
C94   H50   S    
C119  O47   A    
C67   H23   S    
C3    O23   A    
C74   H46   S    
C93   H53   S    
C16   C32   S    
C141  C142  S    
C21   C57   T    
C127  H43   S    
C96   H56   S    
C132  H104  S    
C49   H113  S    
C92   O32   A    
C136  H100  S    
C5    C129  S    
O2    Zn2   S    
C134  H94   S    
C35   C41   S    
C69   H29   S    
C91   O7    A    
C7    C135  S    
C67   H27   S    
O52   Zn4   S    
C48   O20   A    
C5    C125  S    
C6    C122  S    
C131  H87   S    
C7    C127  S    
C124  O44   A    
O5    Zn1   S    
C81   C85   S    
O42   Zn14  S    
C83   C87   S    
C101  C102  S    
C98   C110  S    
C102  H74   S    
C8    C136  S    
C74   C94   S    
C43   H7    S    
C87   H63   S    
O46   Zn10  S    
O25   Zn1   S    
C95   H51   S    
C135  C136  S    
C139  H123  S    
C13   C29   S    
C16   C50   S    
O31   Zn7   S    
O17   Zn9   S    
C101  C109  S    
C102  H90   S    
C66   H26   S    
C103  C111  S    
O2    Zn14  S    
O21   Zn13  S    
C38   C58   S    
C130  H102  S    
O23   Zn15  S    
C139  C140  S    
C122  O42   A    
C9    H109  S    
C7    C131  S    
C20   C56   T    
C117  O37   A    
C48   O28   A    
C137  H117  S    
C28   C34   S    
C135  H95   S    
C64   C80   S    
C78   C114  S    
C18   C46   S    
C140  H125  S    
C3    O15   A    
C75   H39   S    
C68   C84   S    
C61   O53   S    
C130  H86   S    
C6    C126  S    
C65   H21   S    
C97   H65   S    
C8    C124  S    
C125  H1    S    
C12   H112  S    
C33   C37   S    
C108  C112  S    
C109  C117  S    
C35   C39   S    
C37   C49   S    
C65   C81   S    
C26   H14   S    
C70   H58   S    
C39   C59   S    
C2    C21   S    
O9    Zn13  S    
C133  H97   S    
C15   C31   S    
O11   Zn15  S    
C108  H80   S    
C25   C35   S    
C71   C87   S    
C85   H61   S    
C106  H82   S    
C100  C112  S    
C125  C126  S    
C135  H99   S    
C102  C110  S    
C120  O40   A    
C131  C132  S    
C17   C53   T    
C9    C27   S    
C10   C28   S    
C27   H15   S    
C20   C48   S    
C132  H88   S    
O3    Zn11  S    
O4    Zn4   S    
C4    O16   A    
C105  C106  S    
C89   O29   A    
C88   H64   S    
C82   C86   S    
C100  H68   S    
C64   O56   S    
C46   O26   A    
C128  H4    S    
C138  H119  S    
C133  H93   S    
O45   Zn9   S    
C108  H84   S    
C72   C80   S    
C74   C78   S    
C103  C104  S    
C118  O38   A    
C31   C55   S    
C32   C56   S    
C93   H49   S    
O24   Zn16  S    
C88   H36   S    
C70   C78   S    
O54   C139  S    
C96   H52   S    
C75   H47   S    
O32   Zn8   S    
C29   C41   S    
C63   C79   S    
C142  H129  S    
C45   O17   A    
C136  H96   S    
O40   Zn8   S    
C25   H13   S    
C70   H30   S    
O20   Zn12  S    
C66   C82   S    
C5    C121  S    
C84   C96   S    
C36   C40   S    
O6    Zn2   S    
C13   H105  S    
C131  H103  S    
C8    C132  S    
C51   H115  S    
C1    O21   A    
C95   H55   S    
O26   Zn2   S    
C144  H135  S    
C14   H106  S    
C127  H3    S    
C14   C30   S    
O14   Zn6   S    
O30   Zn6   S    
C92   O8    A    
O18   Zn10  S    
C63   C67   S    
C105  H77   S    
O1    Zn5   S    
C4    O24   A    
O2    Zn10  S    
C34   C44   S    
C129  H85   S    
O22   Zn14  S    
O51   Zn3   S    
C40   C52   S    
C121  O49   A    
C62   H18   S    
C138  H121  S    
C123  O51   A    
C42   H6    S    
C124  O52   A    
C47   O19   A    
C81   C93   S    
C99   C100  S    
C24   C60   T    
C83   C95   S    
C9    C37   S    
C32   C44   S    
C35   H11   S    
C11   C39   S    
C115  O11   A    
O12   Zn16  S    
O33   Zn9   S    
C28   H16   S    
C125  H41   S    
C76   C80   S    
C84   C89   S    
O36   Zn12  S    
C70   C86   S    
C66   H22   S    
C106  C110  S    
C142  H131  S    
C26   C36   S    
C83   C90   S    
C126  H2    S    
C34   C38   S    
O19   Zn11  S    
C98   H66   S    
C61   H17   S    
C62   O54   S    
O38   Zn6   S    
C38   C50   S    
C19   C55   T    
C64   H20   S    
C105  H81   S    
C34   H10   S    
C11   H111  S    
O10   Zn14  S    
C12   C14   S    
C63   H19   S    
C6    C134  S    
O47   Zn11  S    
C143  H132  S    
C133  C134  S    
C29   C53   S    
C97   H69   S    
C116  O36   A    
C73   H37   S    
C18   C54   T    
C1    O13   A    
C141  H127  S    
O56   C143  S    
C76   H48   S    
O3    Zn15  S    
C127  C128  S    
O4    Zn16  S    
