data_mof_unit_40967.cif
_audit_creation_date              2012-12-10T16:57:07-0500
_audit_creation_method            fapswitch 2.2
_symmetry_space_group_name_H-M    P1
_symmetry_Int_Tables_number       1
_space_group_crystal_system       triclinic
_cell_length_a                    7.835694
_cell_length_b                    8.564212
_cell_length_c                    16.529224
_cell_angle_alpha                 92.919437
_cell_angle_beta                  79.32709
_cell_angle_gamma                 93.649392
_cell_volume                      1086.95296692

loop_
_atom_site_label
_atom_site_type_symbol
_atom_type_description
_atom_site_fract_x
_atom_site_fract_y
_atom_site_fract_z
_atom_type_partial_charge
C1    C     C_R   0.545847 0.794556 0.498093 0.956813
C2    C     C_R   0.454128 0.205456 0.502059 0.937996
C3    C     C_2   0.569988 0.958077 0.497058 -0.340252
C4    C     C_2   0.429939 0.041983 0.503401 -0.331374
C5    C     C_R   0.474164 0.496882 0.654754 0.902289
C6    C     C_R   0.524002 0.492288 0.344732 0.882489
C7    C     C_R   0.446473 0.445678 0.739065 -0.120165
C8    C     C_R   0.532936 0.456577 0.256225 -0.154335
C9    C     C_R   0.545830 0.324374 0.755547 -0.220986
C10   C     C_R   0.381869 0.471489 0.223651 -0.172565
C11   C     C_R   0.510169 0.256380 0.831508 -0.119772
C12   C     C_R   0.371813 0.415338 0.144584 -0.098660
C13   C     C_R   0.376264 0.310596 0.892556 0.115248
C14   C     C_R   0.512813 0.341775 0.096163 0.107461
C15   C     C_R   0.272181 0.427238 0.875690 -0.203424
C16   C     C_R   0.666817 0.333269 0.126389 -0.209487
C17   C     C_R   0.306816 0.495954 0.799374 0.389022
C18   C     C_R   0.678995 0.390101 0.205640 0.395906
C19   C     C_2   0.366885 0.273229 0.978383 -0.185578
C20   C     C_2   0.512757 0.293516 0.009870 -0.177176
H1    H     H_    0.649501 0.279806 0.709049 0.188151
H2    H     H_    0.269063 0.524671 0.259819 0.222744
H3    H     H_    0.638505 0.299108 0.968824 0.161327
H4    H     H_    0.239890 0.268344 0.017996 0.163035
H5    H     H_    0.170787 0.471438 0.923557 0.166349
H6    H     H_    0.778663 0.282365 0.087940 0.164326
H7    H     H_    0.254506 0.433613 0.121583 0.170570
H8    H     H_    0.590980 0.165519 0.843769 0.163973
H9    H     H_    0.702373 0.008850 0.490985 0.215227
H10   H     H_    0.297548 0.991222 0.509509 0.215887
N1    N     N_2   0.953500 0.457650 0.478520 0.140054
N2    N     N_2   0.046500 0.542350 0.521480 0.135159
O1    O     O_R   0.388470 0.738640 0.505270 -0.597072
O2    O     O_R   0.611530 0.261360 0.494730 -0.603153
O3    O     O_R   0.679650 0.711510 0.491500 -0.582775
O4    O     O_R   0.320350 0.288490 0.508500 -0.585868
O5    O     O_R   0.337210 0.515200 0.623500 -0.562126
O6    O     O_R   0.662790 0.484800 0.376500 -0.548296
O7    O     O_R   0.628380 0.488060 0.609730 -0.594103
O8    O     O_R   0.371620 0.511940 0.390270 -0.598972
Zn1   Zn    Zn3+2 0.305580 0.518120 0.509190 1.114705
Zn2   Zn    Zn3+2 0.694420 0.481880 0.490810 1.117338
Cl1   Cl    Cl    0.879892 0.371326 0.236686 -0.586603
Cl2   Cl    Cl    0.178849 0.649901 0.783845 -0.551696
Cl3   Cl    Cl    0.051913 0.311132 0.414626 -0.441838
Cl4   Cl    Cl    0.947660 0.686443 0.587063 -0.439794

loop_
_geom_bond_atom_site_label_1
_geom_bond_atom_site_label_2
_ccdc_geom_bond_type
C2    C4    S    
N2    Zn1   S    
C6    O6    A    
C15   C17   A    
N1    Zn2   S    
C5    O5    A    
C11   C13   A    
N1    N2    D    
O2    Zn2   S    
C20   H3    S    
C4    H10   S    
O1    Zn1   S    
C2    O2    A    
C13   C15   A    
C19   H4    S    
C17   Cl2   S    
C1    O1    A    
C18   Cl1   S    
C10   H2    S    
O5    Zn1   S    
C9    C11   A    
C9    H1    S    
O4    Zn1   S    
C10   C12   A    
C11   H8    S    
C16   C18   A    
O8    Zn1   S    
C12   C14   A    
O6    Zn2   S    
O7    Zn2   S    
C14   C16   A    
C5    O7    A    
C16   H6    S    
C6    O8    A    
C15   H5    S    
C13   C19   S    
C12   H7    S    
C3    C4    D    
C7    C9    A    
C1    O3    A    
C14   C20   S    
C3    H9    S    
N1    Cl3   S    
C2    O4    A    
C5    C7    S    
O3    Zn2   S    
C6    C8    S    
C1    C3    S    
N2    Cl4   S    
C8    C10   A    
C8    C18   A    
C19   C20   D    
C7    C17   A    
