data_mof_unit_63462.cif
_audit_creation_date              2012-12-10T17:08:44-0500
_audit_creation_method            fapswitch 2.2
_symmetry_space_group_name_H-M    P1
_symmetry_Int_Tables_number       1
_space_group_crystal_system       triclinic
_cell_length_a                    37.08845
_cell_length_b                    30.188017
_cell_length_c                    21.55558
_cell_angle_alpha                 90.003071
_cell_angle_beta                  54.389093
_cell_angle_gamma                 89.997967
_cell_volume                      19620.8649082

loop_
_atom_site_label
_atom_site_type_symbol
_atom_type_description
_atom_site_fract_x
_atom_site_fract_y
_atom_site_fract_z
_atom_type_partial_charge
C1    C     C_R   0.914325 0.499997 0.585586 0.800879
C2    C     C_R   0.085675 0.499993 0.414416 0.800880
C3    C     C_R   0.414325 0.999996 0.585583 0.800715
C4    C     C_R   0.585675 0.999993 0.414418 0.800961
C5    C     C_3   0.953543 0.486611 0.262212 -0.328270
C6    C     C_3   0.046468 0.486609 0.737775 -0.328610
C7    C     C_3   0.453390 0.987241 0.262394 -0.327791
C8    C     C_3   0.546834 0.988352 0.737337 -0.327266
C9    C     C_R   0.657048 0.472435 0.883393 -0.234886
C10   C     C_R   0.342956 0.472426 0.116608 -0.234868
C11   C     C_R   0.157049 0.972442 0.883401 -0.234866
C12   C     C_R   0.842956 0.972441 0.116591 -0.234879
C13   C     C_R   0.633911 0.500062 0.865803 -0.062306
C14   C     C_R   0.366089 0.500060 0.134197 -0.062322
C15   C     C_R   0.133912 0.000062 0.865803 -0.062307
C16   C     C_R   0.866088 0.000061 0.134198 -0.062326
C17   C     C_R   0.656814 0.527949 0.802038 -0.139126
C18   C     C_R   0.343181 0.527951 0.197964 -0.139138
C19   C     C_R   0.156814 0.027942 0.802028 -0.139140
C20   C     C_R   0.843181 0.027938 0.197985 -0.139169
C21   C     C_R   0.703302 0.529235 0.755701 0.031215
C22   C     C_R   0.296693 0.529235 0.244305 0.031216
C23   C     C_R   0.203302 0.029228 0.755688 0.031230
C24   C     C_R   0.796692 0.029220 0.244329 0.031250
C25   C     C_R   0.726598 0.500511 0.772836 0.016713
C26   C     C_R   0.273402 0.500504 0.227171 0.016714
C27   C     C_R   0.226598 0.000511 0.772832 0.016725
C28   C     C_R   0.773402 0.000504 0.227174 0.016710
C29   C     C_R   0.703323 0.471832 0.836505 0.130523
C30   C     C_R   0.296682 0.471820 0.163499 0.130509
C31   C     C_R   0.203324 0.971838 0.836512 0.130524
C32   C     C_R   0.796681 0.971835 0.163481 0.130516
C33   C     C_R   0.727205 0.558385 0.692894 0.265180
C34   C     C_R   0.272785 0.558388 0.307116 0.265181
C35   C     C_R   0.227205 0.058371 0.692871 0.265182
C36   C     C_R   0.772784 0.058359 0.307162 0.265174
C37   C     C_R   0.773539 0.558656 0.648104 -0.228403
C38   C     C_R   0.226451 0.558657 0.351908 -0.228404
C39   C     C_R   0.273539 0.058642 0.648081 -0.228418
C40   C     C_R   0.726450 0.058627 0.351955 -0.228548
C41   C     C_R   0.796698 0.529862 0.664169 0.052624
C42   C     C_R   0.203297 0.529857 0.335842 0.052625
C43   C     C_R   0.296698 0.029854 0.664155 0.052628
C44   C     C_R   0.703296 0.029842 0.335868 0.052672
C45   C     C_R   0.000879 0.500025 0.378995 0.776347
C46   C     C_R   0.999121 0.500027 0.621005 0.776388
C47   C     C_R   0.500926 0.000023 0.378950 0.776308
C48   C     C_R   0.498996 0.000022 0.621125 0.776305
C49   C     C_R   0.773233 0.500374 0.726358 0.063760
C50   C     C_R   0.226767 0.500365 0.273651 0.063764
C51   C     C_R   0.273233 0.000373 0.726354 0.063762
C52   C     C_R   0.726766 0.000364 0.273655 0.063759
C53   C     C_R   0.796428 0.470716 0.742102 0.125788
C54   C     C_R   0.203577 0.470701 0.257905 0.125780
C55   C     C_R   0.296428 0.970721 0.742107 0.125805
C56   C     C_R   0.703576 0.970715 0.257888 0.125806
C57   C     C_R   0.772931 0.442134 0.804915 -0.208002
C58   C     C_R   0.227078 0.442115 0.195090 -0.207977
C59   C     C_R   0.272932 0.942146 0.804930 -0.207989
C60   C     C_R   0.727078 0.942143 0.195053 -0.208001
C61   C     C_R   0.726682 0.442927 0.852150 -0.198021
C62   C     C_R   0.273328 0.442909 0.147854 -0.197984
C63   C     C_R   0.226682 0.942939 0.852165 -0.198001
C64   C     C_R   0.773327 0.942937 0.147817 -0.198026
C65   C     C_R   0.843041 0.530000 0.618925 -0.215183
C66   C     C_R   0.156955 0.529995 0.381085 -0.215178
C67   C     C_R   0.343041 0.029993 0.618912 -0.215130
C68   C     C_R   0.656954 0.029980 0.381111 -0.215195
C69   C     C_R   0.865984 0.500066 0.633806 -0.059548
C70   C     C_R   0.134016 0.500057 0.366201 -0.059551
C71   C     C_R   0.365984 0.000066 0.633803 -0.059458
C72   C     C_R   0.634016 0.000057 0.366205 -0.059518
C73   C     C_R   0.842763 0.470281 0.694813 -0.243673
C74   C     C_R   0.157241 0.470267 0.305193 -0.243660
C75   C     C_R   0.342763 0.970287 0.694818 -0.243662
C76   C     C_R   0.657241 0.970280 0.305177 -0.243707
C77   C     C_R   0.999998 0.585597 0.000001 0.873062
C78   C     C_R   0.499998 0.085597 0.000001 0.873833
C79   C     C_R   0.999918 0.498957 0.120210 0.811638
C80   C     C_R   0.000082 0.498953 0.879790 0.811792
C81   C     C_R   0.499916 0.998999 0.120213 0.812002
C82   C     C_R   0.500086 0.999082 0.879781 0.812709
C83   C     C_R   0.000001 0.414187 0.999998 0.796688
C84   C     C_R   0.500001 0.914187 0.999997 0.797200
C85   C     C_3   0.011982 0.546719 0.272441 -0.376521
C86   C     C_3   0.988072 0.546748 0.727514 -0.376599
C87   C     C_3   0.512639 0.046580 0.271807 -0.376819
C88   C     C_3   0.486251 0.046316 0.729265 -0.377303
C89   C     C_R   0.499999 0.414319 0.999999 0.782421
C90   C     C_R   1.000000 0.914319 0.999999 0.782427
C91   C     C_R   0.585569 0.499889 0.914315 0.828883
C92   C     C_R   0.414431 0.499889 0.085685 0.828894
C93   C     C_R   0.085569 0.999890 0.914315 0.828895
C94   C     C_R   0.914431 0.999890 0.085685 0.828904
C95   C     C_R   0.500000 0.585345 0.000001 0.931948
C96   C     C_R   0.000001 0.085345 0.000001 0.931962
C97   C     C_R   0.526259 0.342784 0.930889 -0.237122
C98   C     C_R   0.473732 0.342792 0.069108 -0.237124
C99   C     C_R   0.026261 0.842784 0.930889 -0.237162
C100  C     C_R   0.973731 0.842792 0.069108 -0.237156
C101  C     C_R   0.499997 0.365911 0.999998 -0.055243
C102  C     C_R   0.999997 0.865911 0.999998 -0.055244
C103  C     C_R   0.472978 0.296473 0.069495 0.105984
C104  C     C_R   0.527010 0.296466 0.930503 0.105981
C105  C     C_R   0.972978 0.796473 0.069494 0.105972
C106  C     C_R   0.027011 0.796466 0.930503 0.105976
C107  C     C_R   0.499993 0.273194 0.999999 0.064678
C108  C     C_R   0.999994 0.773194 0.999998 0.064591
C109  C     C_R   0.445639 0.273033 0.138033 -0.203774
C110  C     C_R   0.554348 0.273017 0.861965 -0.203708
C111  C     C_R   0.945637 0.773033 0.138032 -0.203844
C112  C     C_R   0.054350 0.773017 0.861965 -0.203838
C113  C     C_R   0.944899 0.726770 0.137826 -0.186608
C114  C     C_R   0.055088 0.726754 0.862172 -0.186600
C115  C     C_R   0.444900 0.226770 0.137827 -0.186391
C116  C     C_R   0.555085 0.226754 0.862171 -0.186394
C117  C     C_R   0.971968 0.703324 0.069217 0.098923
C118  C     C_R   0.028019 0.703317 0.930782 0.098890
C119  C     C_R   0.471968 0.203324 0.069217 0.098987
C120  C     C_R   0.528017 0.203316 0.930782 0.099056
C121  C     C_3   0.012843 0.545819 0.200012 0.449541
C122  C     C_3   0.987145 0.545828 0.800005 0.449440
C123  C     C_3   0.513457 0.045691 0.199417 0.449532
C124  C     C_3   0.485488 0.045440 0.801605 0.449829
C125  C     C_R   0.999994 0.726598 0.999999 0.058553
C126  C     C_R   0.499993 0.226598 0.999999 0.058381
C127  C     C_R   0.971635 0.657008 0.068515 -0.205829
C128  C     C_R   0.028354 0.657001 0.931485 -0.205704
C129  C     C_R   0.471635 0.157008 0.068516 -0.205403
C130  C     C_R   0.528352 0.157001 0.931485 -0.204433
C131  C     C_R   0.999995 0.633931 0.000000 -0.075207
C132  C     C_R   0.499995 0.133931 0.000001 -0.074368
C133  C     C_R   0.539654 0.656269 0.972885 0.155218
C134  C     C_R   0.460348 0.656275 0.027121 0.155218
C135  C     C_R   0.039652 0.156269 0.972889 0.155210
C136  C     C_R   0.960350 0.156275 0.027118 0.155206
C137  C     C_R   0.500001 0.633482 0.000003 -0.161019
C138  C     C_R   0.000001 0.133482 0.000003 -0.161015
C139  C     C_R   0.460125 0.702845 0.027523 0.060165
C140  C     C_R   0.539879 0.702839 0.972479 0.060170
C141  C     C_R   0.960125 0.202845 0.027528 0.060163
C142  C     C_R   0.039878 0.202838 0.972476 0.060154
C143  C     C_R   0.500002 0.726048 0.999999 -0.029452
C144  C     C_R   0.000002 0.226048 0.000000 -0.029443
C145  C     C_R   0.421026 0.726937 0.054826 -0.121751
C146  C     C_R   0.578978 0.726925 0.945174 -0.121753
C147  C     C_R   0.921025 0.226937 0.054843 -0.121772
C148  C     C_R   0.078979 0.226924 0.945158 -0.121744
C149  C     C_R   0.921220 0.273034 0.055039 -0.225699
C150  C     C_R   0.078785 0.273021 0.944957 -0.225676
C151  C     C_R   0.421223 0.773034 0.055010 -0.225674
C152  C     C_R   0.578782 0.773022 0.944984 -0.225688
C153  C     C_R   0.960411 0.296152 0.027802 0.108852
C154  C     C_R   0.039595 0.296146 0.972191 0.108845
C155  C     C_R   0.460413 0.796153 0.027783 0.108869
C156  C     C_R   0.539593 0.796147 0.972207 0.108879
C157  C     C_3   0.035698 0.466623 0.250020 -0.394568
C158  C     C_3   0.964250 0.466667 0.750027 -0.394744
C159  C     C_3   0.535297 0.966172 0.250379 -0.393886
C160  C     C_3   0.465412 0.965440 0.748980 -0.392781
C161  C     C_R   0.000003 0.272756 0.999998 0.100721
C162  C     C_R   0.500003 0.772756 0.999997 0.100713
C163  C     C_R   0.960611 0.342391 0.027889 -0.242382
C164  C     C_R   0.039395 0.342385 0.972102 -0.242384
C165  C     C_R   0.460614 0.842391 0.027865 -0.242335
C166  C     C_R   0.539392 0.842386 0.972123 -0.242366
C167  C     C_R   0.000003 0.365647 0.999995 -0.074090
C168  C     C_R   0.500003 0.865647 0.999994 -0.074226
C169  C     C_3   0.954495 0.486145 0.332759 -0.394811
C170  C     C_3   0.045497 0.486077 0.667253 -0.394820
C171  C     C_3   0.454352 0.986766 0.332927 -0.395114
C172  C     C_3   0.545857 0.987833 0.666821 -0.395677
C173  C     C_3   0.000883 0.499992 0.309978 0.077146
C174  C     C_3   0.999115 0.499995 0.690024 0.077230
C175  C     C_3   0.500928 0.999995 0.309935 0.077184
C176  C     C_3   0.498998 0.000003 0.690135 0.077160
C177  C     C_3   0.999944 0.499114 0.189206 0.056123
C178  C     C_3   0.000056 0.499112 0.810795 0.056170
C179  C     C_3   0.499948 0.999153 0.189203 0.056134
C180  C     C_3   0.500044 0.999233 0.810801 0.055985
C181  C     C_3   0.034262 0.465187 0.179920 -0.492539
C182  C     C_3   0.965738 0.465175 0.820068 -0.492454
C183  C     C_3   0.533838 0.964781 0.180300 -0.493101
C184  C     C_3   0.466930 0.964122 0.818998 -0.494404
Cu1   Cu    Cu3+1 1.000000 0.544430 0.500000 0.957776
Cu2   Cu    Cu3+1 0.500000 0.044430 0.500000 0.958012
Cu3   Cu    Cu3+1 0.000000 0.455520 0.500000 0.946216
Cu4   Cu    Cu3+1 0.500000 0.955520 0.500000 0.946227
Cu5   Cu    Cu3+1 0.955510 0.499950 0.044460 0.968132
Cu6   Cu    Cu3+1 0.044490 0.499950 0.955540 0.968122
Cu7   Cu    Cu3+1 0.455510 0.999950 0.044460 0.968268
Cu8   Cu    Cu3+1 0.544490 0.999950 0.955540 0.967056
Cu9   Cu    Cu3+1 0.499930 0.499950 0.937580 1.009582
Cu10  Cu    Cu3+1 0.500070 0.499950 0.062420 1.009557
Cu11  Cu    Cu3+1 0.999930 0.999950 0.937580 1.009526
Cu12  Cu    Cu3+1 0.000070 0.999950 0.062420 1.009532
H1    H     H_    0.044835 0.557897 0.257134 0.129304
H2    H     H_    0.955252 0.558002 0.742740 0.129430
H3    H     H_    0.545645 0.057309 0.256335 0.128835
H4    H     H_    0.453014 0.056292 0.744972 0.128083
H5    H     H_    0.943443 0.453374 0.255012 0.159087
H6    H     H_    0.056605 0.453391 0.744981 0.159134
H7    H     H_    0.442861 0.954126 0.255638 0.159470
H8    H     H_    0.558108 0.955488 0.743332 0.160232
H9    H     H_    0.029122 0.432800 0.274963 0.199162
H10   H     H_    0.970741 0.432839 0.725108 0.199119
H11   H     H_    0.528269 0.932430 0.275739 0.199367
H12   H     H_    0.473192 0.931854 0.722912 0.199734
H13   H     H_    0.025316 0.431232 0.173121 0.185467
H14   H     H_    0.974732 0.431209 0.826747 0.185502
H15   H     H_    0.524458 0.930942 0.173909 0.185396
H16   H     H_    0.477070 0.930517 0.824650 0.185437
H17   H     H_    0.638927 0.450741 0.932641 0.144527
H18   H     H_    0.361082 0.450728 0.067358 0.144545
H19   H     H_    0.138927 0.950753 0.932656 0.144530
H20   H     H_    0.861081 0.950754 0.067326 0.144535
H21   H     H_    0.637920 0.549121 0.790272 0.206575
H22   H     H_    0.362072 0.549129 0.209730 0.206572
H23   H     H_    0.137920 0.049110 0.790255 0.206566
H24   H     H_    0.862071 0.049106 0.209765 0.206571
H25   H     H_    0.791498 0.581330 0.600301 0.178820
H26   H     H_    0.208488 0.581334 0.399713 0.178815
H27   H     H_    0.291498 0.081311 0.600270 0.178773
H28   H     H_    0.708487 0.081293 0.399777 0.178668
H29   H     H_    0.861352 0.552716 0.571183 0.146778
H30   H     H_    0.138640 0.552715 0.428828 0.146777
H31   H     H_    0.361352 0.052705 0.571162 0.146729
H32   H     H_    0.638639 0.052690 0.428871 0.146623
H33   H     H_    0.860839 0.447489 0.706275 0.141421
H34   H     H_    0.139170 0.447471 0.293729 0.141427
H35   H     H_    0.360839 0.947499 0.706287 0.141346
H36   H     H_    0.639169 0.947495 0.293697 0.141373
H37   H     H_    0.790336 0.419346 0.817743 0.146295
H38   H     H_    0.209677 0.419322 0.182261 0.146316
H39   H     H_    0.290337 0.919363 0.817765 0.146272
H40   H     H_    0.709676 0.919361 0.182208 0.146284
H41   H     H_    0.986851 0.571196 0.313641 0.217231
H42   H     H_    0.013271 0.571180 0.686310 0.217223
H43   H     H_    0.487845 0.071389 0.312693 0.217583
H44   H     H_    0.510465 0.071669 0.688937 0.218122
H45   H     H_    0.709150 0.420730 0.900689 0.147787
H46   H     H_    0.290863 0.420709 0.099314 0.147821
H47   H     H_    0.209151 0.920748 0.900711 0.147780
H48   H     H_    0.790862 0.920748 0.099260 0.147780
H49   H     H_    0.546748 0.360917 0.877722 0.149199
H50   H     H_    0.453245 0.360931 0.122275 0.149208
H51   H     H_    0.046750 0.860918 0.877722 0.149198
H52   H     H_    0.953244 0.860931 0.122274 0.149199
H53   H     H_    0.424652 0.290491 0.191733 0.151848
H54   H     H_    0.575335 0.290469 0.808265 0.151813
H55   H     H_    0.924649 0.790491 0.191732 0.151856
H56   H     H_    0.075339 0.790469 0.808265 0.151857
H57   H     H_    0.923344 0.709317 0.191363 0.160156
H58   H     H_    0.076642 0.709295 0.808635 0.160155
H59   H     H_    0.423346 0.209317 0.191364 0.160018
H60   H     H_    0.576639 0.209295 0.808634 0.159742
H61   H     H_    0.950061 0.638828 0.121325 0.177923
H62   H     H_    0.049929 0.638815 0.878675 0.177954
H63   H     H_    0.450062 0.138828 0.121326 0.177427
H64   H     H_    0.549926 0.138815 0.878675 0.176582
H65   H     H_    0.389872 0.710652 0.076388 0.200094
H66   H     H_    0.610131 0.710635 0.923616 0.200093
H67   H     H_    0.889871 0.210652 0.076409 0.200093
H68   H     H_    0.110132 0.210634 0.923595 0.200109
H69   H     H_    0.890594 0.290641 0.076498 0.151713
H70   H     H_    0.109411 0.290623 0.923497 0.151731
H71   H     H_    0.390599 0.790641 0.076456 0.151711
H72   H     H_    0.609406 0.790624 0.923537 0.151704
H73   H     H_    0.930111 0.360231 0.049184 0.160095
H74   H     H_    0.069895 0.360221 0.950806 0.160095
H75   H     H_    0.430118 0.860231 0.049138 0.160083
H76   H     H_    0.569888 0.860222 0.950849 0.160073
H77   H     H_    0.046820 0.554318 0.149652 0.087625
H78   H     H_    0.953143 0.554302 0.850329 0.087701
H79   H     H_    0.547539 0.053767 0.148934 0.088068
H80   H     H_    0.451249 0.052767 0.852257 0.088980
H81   H     H_    0.069451 0.476451 0.231967 0.158108
H82   H     H_    0.930499 0.476584 0.768147 0.158099
H83   H     H_    0.569181 0.975541 0.232196 0.158065
H84   H     H_    0.431325 0.974035 0.767384 0.158093
H85   H     H_    0.067950 0.472610 0.127835 0.186723
H86   H     H_    0.932049 0.472553 0.872204 0.186728
H87   H     H_    0.567620 0.971786 0.128110 0.186512
H88   H     H_    0.433023 0.970388 0.871353 0.186234
H89   H     H_    0.946111 0.452345 0.358156 0.181624
H90   H     H_    0.053812 0.452237 0.641985 0.181777
H91   H     H_    0.445522 0.953083 0.358785 0.181246
H92   H     H_    0.555435 0.954359 0.640210 0.180657
H93   H     H_    0.928817 0.509209 0.376781 0.164589
H94   H     H_    0.071220 0.509073 0.623137 0.164439
H95   H     H_    0.428989 0.010175 0.376640 0.164831
H96   H     H_    0.570674 0.011794 0.623632 0.165240
H97   H     H_    0.928092 0.510787 0.271850 0.220076
H98   H     H_    0.071903 0.510821 0.728101 0.220079
H99   H     H_    0.428241 0.011741 0.271728 0.219757
H100  H     H_    0.571422 0.013400 0.728554 0.219274
O1    O     O_R   0.935120 0.537520 0.564840 -0.581642
O2    O     O_R   0.064880 0.537520 0.435160 -0.581641
O3    O     O_R   0.435120 0.037520 0.564840 -0.581624
O4    O     O_R   0.564880 0.037520 0.435160 -0.581588
O5    O     O_R   0.564810 0.499970 0.882380 -0.589742
O6    O     O_R   0.435190 0.499970 0.117620 -0.589734
O7    O     O_R   0.064810 0.999970 0.882380 -0.589749
O8    O     O_R   0.935190 0.999970 0.117620 -0.589748
O9    O     O_R   0.564880 0.499960 0.987830 -0.568421
O10   O     O_R   0.435120 0.499960 0.012170 -0.568412
O11   O     O_R   0.064880 0.999960 0.987830 -0.568420
O12   O     O_R   0.935120 0.999960 0.012170 -0.568427
O13   O     O_R   0.499950 0.564810 0.947310 -0.558038
O14   O     O_R   0.500050 0.564810 0.052690 -0.558039
O15   O     O_R   0.999950 0.064810 0.947310 -0.558039
O16   O     O_R   0.000050 0.064810 0.052690 -0.558034
O17   O     O_R   0.935080 0.462440 0.564870 -0.584125
O18   O     O_R   0.064920 0.462440 0.435130 -0.584119
O19   O     O_R   0.435080 0.962440 0.564870 -0.584165
O20   O     O_R   0.564920 0.962440 0.435130 -0.584082
O21   O     O_R   0.999990 0.537520 0.408860 -0.590944
O22   O     O_R   0.000010 0.537520 0.591140 -0.590944
O23   O     O_R   0.499990 0.037520 0.408860 -0.590901
O24   O     O_R   0.500010 0.037520 0.591140 -0.590820
O25   O     O_R   0.999950 0.462430 0.408890 -0.591196
O26   O     O_R   0.000050 0.462430 0.591110 -0.591196
O27   O     O_R   0.499950 0.962430 0.408890 -0.591228
O28   O     O_R   0.500050 0.962430 0.591110 -0.591282
O29   O     O_R   0.962420 0.564820 0.037570 -0.576696
O30   O     O_R   0.037580 0.564820 0.962430 -0.576724
O31   O     O_R   0.462420 0.064820 0.037570 -0.576472
O32   O     O_R   0.537580 0.064820 0.962430 -0.577469
O33   O     O_R   0.962440 0.499950 0.128690 -0.575590
O34   O     O_R   0.037560 0.499950 0.871310 -0.575587
O35   O     O_R   0.462440 0.999950 0.128690 -0.576435
O36   O     O_R   0.537560 0.999950 0.871310 -0.577762
O37   O     O_R   0.037530 0.500000 0.053640 -0.606755
O38   O     O_R   0.962470 0.500000 0.946360 -0.606745
O39   O     O_R   0.537530 1.000000 0.053640 -0.606509
O40   O     O_R   0.462470 1.000000 0.946360 -0.606174
O41   O     O_R   0.962440 0.435080 0.037530 -0.595886
O42   O     O_R   0.037560 0.435080 0.962470 -0.595876
O43   O     O_R   0.462440 0.935080 0.037530 -0.595813
O44   O     O_R   0.537560 0.935080 0.962470 -0.595679
O45   O     O_R   0.499930 0.435080 0.947280 -0.591202
O46   O     O_R   0.500070 0.435080 0.052720 -0.591221
O47   O     O_R   0.999930 0.935080 0.947280 -0.591225
O48   O     O_R   0.000070 0.935080 0.052720 -0.591222
Br1   Br    Br    0.698716 0.599093 0.665663 -0.488472
Br2   Br    Br    0.301268 0.599105 0.334347 -0.488462
Br3   Br    Br    0.198716 0.099069 0.665625 -0.488551
Br4   Br    Br    0.801267 0.099055 0.334425 -0.488777
Br5   Br    Br    0.593270 0.622870 0.935383 -0.522541
Br6   Br    Br    0.406732 0.622885 0.064629 -0.522519
Br7   Br    Br    0.093265 0.122870 0.935401 -0.522497
Br8   Br    Br    0.906736 0.122885 0.064615 -0.522519
F1    F     F_    0.983968 0.577498 0.205623 -0.683558
F2    F     F_    0.015977 0.577524 0.794504 -0.683572
F3    F     F_    0.484972 0.077746 0.204676 -0.683675
F4    F     F_    0.513249 0.078118 0.797030 -0.683936

loop_
_geom_bond_atom_site_label_1
_geom_bond_atom_site_label_2
_ccdc_geom_bond_type
C58   C62   A    
C55   C59   A    
C135  Br7   S    
C154  C161  A    
Cu11  O47   S    
C149  H69   S    
C4    O20   A    
Cu9   O45   S    
C109  H53   S    
C90   O47   A    
C26   C50   A    
C97   H49   S    
C21   C33   A    
C149  C153  A    
C7    H7    S    
C54   C74   A    
C11   C15   A    
C158  C174  S    
C135  C142  A    
C152  C156  A    
C123  H79   S    
C89   O46   A    
C70   C74   A    
C80   O38   A    
C46   C174  S    
C85   C121  S    
C151  C155  A    
C93   O11   A    
C94   O12   A    
C13   C91   S    
C45   O21   A    
Cu3   O26   S    
C61   H45   S    
C114  H58   S    
C27   C31   A    
Cu7   Cu8   S    
C28   C32   A    
C157  H9    S    
C141  C144  A    
Cu10  O6    S    
C9    H17   S    
C17   C21   A    
Cu4   O27   S    
C153  C161  A    
C134  Br6   S    
C19   C23   A    
C95   O14   A    
C136  C141  A    
C84   C168  S    
C31   C63   A    
C10   C30   A    
C156  C166  A    
C68   C72   A    
C65   H29   S    
C111  C113  A    
C159  H11   S    
C3    O3    A    
C178  C182  S    
Cu2   O24   S    
C86   H2    S    
C46   O26   A    
Cu7   O40   S    
C47   O23   A    
C142  C144  A    
C48   O24   A    
C83   O42   A    
C12   H20   S    
C147  H67   S    
C110  C116  A    
C116  H60   S    
C89   C101  S    
C79   O37   A    
C16   C94   S    
C59   H39   S    
C182  H86   S    
C130  H64   S    
C68   H32   S    
C57   C61   A    
C3    C71   S    
C59   C63   A    
C60   C64   A    
Cu8   O32   S    
C37   H25   S    
C104  C110  A    
C88   H4    S    
C66   C70   A    
C155  C165  A    
C49   C53   A    
C86   H42   S    
C51   C55   A    
Cu10  O9    S    
C127  C131  A    
C141  C147  A    
C96   O15   A    
C157  H81   S    
Cu11  Cu12  S    
C119  C126  A    
Cu9   Cu10  S    
C103  C107  A    
C4    O4    A    
C104  C107  A    
C180  C184  S    
C35   Br3   S    
C34   Br2   S    
Cu1   O21   S    
C159  H83   S    
Cu2   O4    S    
C160  H84   S    
C140  C143  A    
C88   C124  S    
C73   H33   S    
Cu12  O8    S    
Cu5   O41   S    
C152  H72   S    
C183  H87   S    
C24   C36   A    
Cu7   O35   S    
C153  C163  A    
C154  C164  A    
C124  F4    S    
C148  C150  A    
Cu4   O19   S    
C96   C138  S    
C172  H92   S    
Cu1   Cu3   S    
C182  H14   S    
Cu3   O18   S    
Cu1   O2    S    
C77   C131  S    
C78   C132  S    
C90   C102  S    
C9    C13   A    
C139  C143  A    
C95   O13   A    
C76   H36   S    
C79   C177  S    
Cu3   O17   S    
C85   H41   S    
C55   C75   A    
C44   C52   A    
C166  C168  A    
Cu10  O14   S    
Cu8   O39   S    
C27   C51   A    
C121  H77   S    
C22   C34   A    
C29   C61   A    
C95   C137  S    
C87   H43   S    
C122  F2    S    
C12   C16   A    
C32   C64   A    
C123  C179  S    
C10   C14   A    
C134  C139  A    
C121  C177  S    
C172  H96   S    
C83   C167  S    
C80   O34   A    
C116  C120  A    
C3    O19   A    
C169  H93   S    
C160  H12   S    
C67   H31   S    
C5    C177  S    
C2    O18   A    
Cu6   O42   S    
C16   C20   A    
C148  H68   S    
C82   O36   A    
C42   C50   A    
C113  C117  A    
C91   O9    A    
C26   C30   A    
C115  C119  A    
C145  H65   S    
C99   H51   S    
C18   H22   S    
C128  C131  A    
C6    C170  S    
C99   C106  A    
C21   C25   A    
Cu12  O16   S    
Cu5   O33   S    
C18   C22   A    
C24   C28   A    
Cu7   O43   S    
C129  H63   S    
C87   C175  S    
C88   C176  S    
C13   C17   A    
C90   O48   A    
Cu2   O3    S    
C87   C123  S    
C92   O10   A    
C177  C181  S    
C47   O27   A    
C119  C129  A    
C37   C41   A    
Cu1   O1    S    
C123  F3    S    
C40   C44   A    
C91   O5    A    
C89   O45   A    
C169  C173  S    
C117  C125  A    
C47   C175  S    
C172  C176  S    
C11   H19   S    
C48   C176  S    
Cu10  O46   S    
C7    C171  S    
C144  C161  A    
C77   O30   A    
C87   H3    S    
C133  C137  A    
C134  C137  A    
C84   O44   A    
C110  H54   S    
C15   C19   A    
C50   C54   A    
C163  H73   S    
C169  H89   S    
C1    O1    A    
C147  C149  A    
C98   H50   S    
C171  H91   S    
Cu11  O12   S    
C120  C126  A    
C158  H82   S    
C98   C103  A    
C88   H44   S    
Cu4   O28   S    
C41   C49   A    
Cu6   O34   S    
C86   C122  S    
C127  H61   S    
C69   C73   A    
C118  C125  A    
C150  H70   S    
C72   C76   A    
C129  C132  A    
C105  C111  A    
C81   O35   A    
C6    C178  S    
C25   C29   A    
C39   H27   S    
C83   O41   A    
C157  C181  S    
C112  C114  A    
C113  H57   S    
C158  H10   S    
C81   C179  S    
C140  C146  A    
C53   C57   A    
C10   H18   S    
C8    H100  S    
C48   O28   A    
C56   C60   A    
C80   C178  S    
C130  C132  A    
C100  H52   S    
C5    H97   S    
C114  C118  A    
C8    H8    S    
C66   H30   S    
Cu9   O13   S    
C117  C127  A    
C170  C174  S    
C78   O32   A    
C96   O16   A    
C85   H1    S    
C23   C35   A    
C30   C62   A    
Cu2   Cu4   S    
C4    C72   S    
C33   C37   A    
C122  C178  S    
C164  H74   S    
C165  H75   S    
C166  H76   S    
C164  C167  A    
Cu8   O44   S    
C58   H38   S    
C15   C93   S    
C170  H94   S    
C38   C42   A    
C64   H48   S    
C98   C101  A    
Cu12  O11   S    
Cu5   O38   S    
C103  C109  A    
C38   H26   S    
C82   O40   A    
Cu4   O20   S    
C5    H5    S    
C43   C51   A    
C65   C69   A    
C146  H66   S    
C67   C71   A    
C41   C65   A    
Cu5   Cu6   S    
C25   C49   A    
C97   C104  A    
C99   C102  A    
C133  C140  A    
C22   C26   A    
Cu5   O29   S    
C5    C169  S    
C86   C174  S    
C2    C70   S    
C111  H55   S    
C8    C172  S    
C157  C173  S    
C135  C138  A    
C133  Br5   S    
C56   C76   A    
C33   Br1   S    
C124  H80   S    
C14   C18   A    
C35   C39   A    
C60   H40   S    
C74   H34   S    
C112  H56   S    
C106  C112  A    
C100  C105  A    
C106  C108  A    
C40   H28   S    
C120  C130  A    
C6    H6    S    
C45   C173  S    
C45   O25   A    
C183  H15   S    
C122  H78   S    
C181  H13   S    
C8    C180  S    
Cu9   O5    S    
C20   C24   A    
Cu11  O7    S    
C85   C173  S    
C23   C27   A    
C108  C125  A    
Cu6   O37   S    
C136  Br8   S    
C184  H88   S    
C1    C69   S    
C84   O43   A    
C11   C31   A    
Cu1   O22   S    
C159  C175  S    
C12   C32   A    
C20   H24   S    
C170  H90   S    
C118  C128  A    
C2    O2    A    
C62   H46   S    
C179  C183  S    
C105  C108  A    
C78   O31   A    
C142  C148  A    
C36   C40   A    
C121  F1    S    
Cu6   O30   S    
C136  C138  A    
C7    H99   S    
C39   C43   A    
C171  C175  S    
C79   O33   A    
C128  H62   S    
C163  C167  A    
C181  H85   S    
C81   O39   A    
C184  H16   S    
C63   H47   S    
C100  C102  A    
C7    C179  S    
C75   H35   S    
C158  C182  S    
C14   C92   S    
C145  C151  A    
Cu11  O15   S    
C146  C152  A    
C43   C67   A    
C46   O22   A    
C1    O17   A    
C165  C168  A    
C44   C68   A    
C19   H23   S    
Cu9   O10   S    
C17   H21   S    
C54   C58   A    
C151  H71   S    
C139  C145  A    
C143  C162  A    
C92   O6    A    
C34   C38   A    
C77   O29   A    
C160  C176  S    
C93   O7    A    
C53   C73   A    
C107  C126  A    
C94   O8    A    
C155  C162  A    
C57   H37   S    
C6    H98   S    
C9    C29   A    
C36   Br4   S    
Cu8   O36   S    
C71   C75   A    
C28   C52   A    
Cu3   O25   S    
Cu7   O31   S    
Cu12  O48   S    
C124  C180  S    
C109  C115  A    
C156  C162  A    
C115  H59   S    
C150  C154  A    
C82   C180  S    
Cu2   O23   S    
C42   C66   A    
C159  C183  S    
C160  C184  S    
C97   C101  A    
C52   C56   A    
C171  H95   S    
