data_mof_unit_51664.cif
_audit_creation_date              2013-03-05T15:41:38-0500
_audit_creation_method            fapswitch 2.2
_symmetry_space_group_name_H-M    P1
_symmetry_Int_Tables_number       1
_space_group_crystal_system       triclinic
_cell_length_a                    7.812381
_cell_length_b                    8.524008
_cell_length_c                    15.7127
_cell_angle_alpha                 91.54502
_cell_angle_beta                  85.473236
_cell_angle_gamma                 93.296476
_cell_volume                      1041.09833296

loop_
_atom_site_label
_atom_site_type_symbol
_atom_site_description
_atom_site_fract_x
_atom_site_fract_y
_atom_site_fract_z
_atom_type_partial_charge
O1    O     O_R   0.389240 0.738570 0.505550 -0.575245
O2    O     O_R   0.678400 0.711630 0.491050 -0.577794
C1    C     C_R   0.543899 0.793037 0.487370 0.910081
O3    O     O_R   0.355360 0.513470 0.630110 -0.601667
O4    O     O_R   0.644510 0.486530 0.615610 -0.599510
C2    C     C_R   0.501317 0.499884 0.661496 0.908554
Zn1   Zn    Zn3+2 0.306930 0.517990 0.509680 1.082185
Zn2   Zn    Zn3+2 0.693070 0.482010 0.490320 1.059896
O5    O     O_R   0.321600 0.288370 0.508950 -0.588004
O6    O     O_R   0.610760 0.261430 0.494450 -0.606997
O7    O     O_R   0.355490 0.513470 0.384390 -0.611794
O8    O     O_R   0.644640 0.486530 0.369890 -0.612390
C3    C     C_R   0.454498 0.205937 0.492956 0.861473
C4    C     C_R   0.498559 0.499852 0.338517 0.871510
C5    C     C_3   0.409631 0.642739 0.954543 -0.463980
C6    C     C_3   0.684843 0.502074 0.945811 -0.358804
C7    C     C_3   0.680684 0.498773 0.044131 -0.465464
H1    H     H_    0.499088 0.751397 0.069906 0.168183
H2    H     H_    0.476212 0.751555 0.927579 0.231230
H3    H     H_    0.758262 0.403574 0.917001 0.240299
H4    H     H_    0.755322 0.612312 0.923154 0.201063
H5    H     H_    0.756120 0.603465 0.067984 0.222702
H6    H     H_    0.744533 0.393210 0.063406 0.232036
C8    C     C_1   0.495067 0.499546 0.249843 -0.068570
C9    C     C_3   0.498715 0.495322 0.917247 0.108911
C10   C     C_3   0.413102 0.648525 0.052704 0.052313
C11   C     C_3   0.491646 0.497070 0.083233 0.123580
C12   C     C_3   0.399441 0.342086 0.050452 -0.055018
C13   C     C_3   0.391331 0.347436 0.952365 0.144319
C14   C     C_1   0.492695 0.498725 0.174608 0.008494
C15   C     C_1   0.502875 0.496753 0.825615 -0.001700
C16   C     C_1   0.503745 0.498245 0.750257 -0.096207
H7    H     H_    0.255091 0.361110 0.938948 0.139058
H8    H     H_    0.274782 0.640116 0.936226 0.210370
H9    H     H_    0.477023 0.242773 0.066234 0.188546
C17   C     C_2   0.563624 0.952973 0.461760 -0.119147
C18   C     C_2   0.426858 0.043240 0.473460 0.036524
N1    N     N_2   0.950340 0.457950 0.477370 -0.112196
H10   H     H_    0.013415 0.383921 0.434289 0.198467
N2    N     N_2   0.049660 0.542050 0.522630 0.025732
I1    I     I_    0.167722 0.708326 0.114278 -0.268560
I2    I     I_    0.805776 0.024916 0.396476 -0.126858
N3    N     N_R   0.252028 0.981518 0.468226 0.231311
O9    O     O_R   0.131374 0.022724 0.524875 -0.338152
O10   O     O_R   0.211090 0.897091 0.401800 -0.338865
I3    I     I_    0.961214 0.698928 0.617004 -0.054639
N4    N     N_R   0.445940 0.200307 0.910401 0.213396
O11   O     O_R   0.340265 0.117235 0.864877 -0.360407
O12   O     O_R   0.595639 0.147385 0.920973 -0.400667
I4    I     I_    0.150722 0.275084 0.113177 -0.267600

loop_
_geom_bond_atom_site_label_1
_geom_bond_atom_site_label_2
_geom_bond_distance
_ccdc_geom_bond_type
C17   I2    2.145072 S    
C18   N3    1.442856 S    
O4    Zn2   1.975009 S    
C5    H2    1.114151 S    
Zn1   N2    2.025766 S    
C9    C15   1.437950 S    
C6    H4    1.113769 S    
C5    H8    1.112656 S    
C3    C18   1.420166 S    
C7    H5    1.113775 S    
H1    C10   1.114177 S    
C6    H3    1.110305 S    
Zn2   O8    1.960608 S    
O2    C1    1.297918 A    
N4    O12   1.301619 A    
C11   C14   1.436093 S    
N1    N2    1.271748 D    
N3    O10   1.302029 A    
C10   C11   1.563427 S    
C7    H6    1.113723 S    
Zn2   N1    2.025766 S    
C1    C17   1.428242 S    
C13   N4    1.470427 S    
O3    Zn1   1.960609 S    
Zn2   O6    1.952921 S    
C17   C18   1.350323 D    
O8    C4    1.290370 A    
Zn1   O7    1.975009 S    
N3    O9    1.301133 A    
C9    C13   1.562101 S    
O4    C2    1.291173 A    
O7    C4    1.290551 A    
C8    C14   1.183587 T    
C5    C9    1.550252 S    
N2    I3    2.074157 S    
C7    C11   1.553555 S    
C13   H7    1.114405 S    
C11   C12   1.562661 S    
N1    H10   1.029225 S    
C10   I1    2.159583 S    
O3    C2    1.289908 A    
C2    C16   1.396758 S    
C4    C8    1.395651 S    
C6    C9    1.552794 S    
Zn1   O5    1.966876 S    
O5    C3    1.291526 A    
C12   C13   1.549506 S    
C5    C10   1.544148 S    
O1    Zn1   1.952921 S    
C12   I4    2.161847 S    
C15   C16   1.183968 T    
O2    Zn2   1.966877 S    
N4    O11   1.301273 A    
C12   H9    1.113343 S    
C6    C7    1.543630 S    
O1    C1    1.282653 A    
O6    C3    1.285343 A    
