data_mof_unit_11249.cif
_audit_creation_date              2012-12-10T17:43:33-0500
_audit_creation_method            fapswitch 2.2
_symmetry_space_group_name_H-M    P1
_symmetry_Int_Tables_number       1
_space_group_crystal_system       triclinic
_cell_length_a                    14.88049
_cell_length_b                    10.850726
_cell_length_c                    10.042351
_cell_angle_alpha                 91.718438
_cell_angle_beta                  91.289888
_cell_angle_gamma                 93.645558
_cell_volume                      1616.98586111

loop_
_atom_site_label
_atom_site_type_symbol
_atom_type_description
_atom_site_fract_x
_atom_site_fract_y
_atom_site_fract_z
_atom_type_partial_charge
C1    C     C_R   0.508362 0.262184 0.499495 0.918850
C2    C     C_R   0.909957 0.618007 0.495806 0.071195
C3    C     C_R   0.944262 0.281046 0.467934 -0.205710
C4    C     C_R   0.037495 0.282992 0.467279 -0.207825
C5    C     C_R   0.088713 0.395799 0.478474 0.150726
C6    C     C_R   0.046976 0.509170 0.488208 -0.027328
C7    C     C_R   0.098793 0.624178 0.500273 0.028096
C8    C     C_R   0.053944 0.736295 0.504190 0.447608
C9    C     C_R   0.959690 0.731145 0.501654 -0.312877
C10   C     C_R   0.181275 0.396298 0.480824 -0.282346
C11   C     C_R   0.232348 0.507202 0.495939 -0.123893
C12   C     C_R   0.327656 0.501142 0.498822 0.890221
C13   C     C_R   0.193436 0.621407 0.508399 -0.067947
C14   C     C_R   0.581052 0.139319 0.737186 0.025437
C15   C     C_R   0.572577 0.083188 0.860202 -0.049598
C16   C     C_R   0.567105 0.954183 0.860811 -0.073885
C17   C     C_R   0.571754 0.889218 0.738555 0.016641
C18   C     C_R   0.540517 0.944082 0.621649 -0.024112
C19   C     C_R   0.547632 0.073687 0.619469 0.015627
C20   C     C_R   0.522799 0.131721 0.500446 -0.202748
C21   C     C_R   0.497949 0.062318 0.385343 -0.184792
C22   C     C_R   0.483195 0.936590 0.389450 0.452446
C23   C     C_R   0.501657 0.740249 0.501895 0.855660
C24   C     C_R   0.508107 0.874907 0.505470 -0.207277
C25   C     C_R   0.344491 0.400872 0.126477 0.043707
C26   C     C_R   0.263481 0.395580 0.053269 -0.258853
C27   C     C_R   0.266044 0.385931 0.916080 -0.312686
C28   C     C_R   0.349688 0.391135 0.855024 0.512150
C29   C     C_R   0.425250 0.450579 0.924000 0.092142
C30   C     C_R   0.424795 0.450668 0.067730 0.028309
C31   C     C_R   0.572239 0.544379 0.075663 0.009372
C32   C     C_R   0.574396 0.536495 0.933999 -0.055507
C33   C     C_R   0.672473 0.500053 0.500551 0.864456
C34   C     C_R   0.816910 0.614596 0.498325 -0.180834
C35   C     C_R   0.767864 0.501467 0.499170 -0.015111
C36   C     C_R   0.808855 0.390527 0.483598 -0.235977
C37   C     C_R   0.901895 0.391941 0.479229 0.144471
C38   C     C_R   0.953126 0.506510 0.487717 0.055161
H1    H     H_    0.782476 0.699518 0.497749 0.150233
H2    H     H_    0.200488 0.368513 0.099983 0.178693
H3    H     H_    0.205388 0.352840 0.861012 0.165648
H4    H     H_    0.768265 0.303797 0.475496 0.134631
H5    H     H_    0.905374 0.193067 0.460809 0.148996
H6    H     H_    0.069653 0.196259 0.459405 0.156191
H7    H     H_    0.214087 0.309931 0.473615 0.155228
H8    H     H_    0.924940 0.816021 0.505788 0.148954
H9    H     H_    0.480441 0.106184 0.293790 0.207055
N1    N     N_R   0.499150 0.498800 0.142780 -0.128731
N2    N     N_R   0.499120 0.498720 0.857170 -0.130480
O1    O     O_R   0.500000 0.316780 0.614690 -0.551839
O2    O     O_R   0.499990 0.316750 0.385360 -0.628938
O3    O     O_R   0.367850 0.499980 0.614680 -0.581790
O4    O     O_R   0.367840 0.499960 0.385350 -0.630066
O5    O     O_R   0.500010 0.683250 0.614640 -0.617186
O6    O     O_R   0.500000 0.683220 0.385310 -0.589423
O7    O     O_R   0.632160 0.500040 0.614650 -0.610137
O8    O     O_R   0.632150 0.500020 0.385320 -0.624840
Zn1   Zn    Zn3+2 0.500010 0.500020 0.653130 1.007560
Zn2   Zn    Zn3+2 0.499990 0.499980 0.346870 0.987144
C39   C     C_1   0.653234 0.233721 0.729947 0.162403
N3    N     N_1   0.713745 0.305617 0.728219 -0.192771
C40   C     C_1   0.584497 0.156653 0.983253 0.185406
N4    N     N_1   0.593957 0.215377 0.081276 -0.205291
C41   C     C_1   0.574932 0.891685 0.984921 0.209807
N5    N     N_1   0.580989 0.843838 0.085649 -0.149015
C42   C     C_1   0.650564 0.820660 0.723492 0.163854
N6    N     N_1   0.716289 0.771285 0.710299 -0.215325
O9    O     O_3   0.439461 0.878271 0.280215 -0.730130
H10   H     H_    0.392163 0.819311 0.313514 0.346632
C43   C     C_1   0.649072 0.603280 0.148313 0.282096
N7    N     N_1   0.711326 0.652136 0.203296 -0.202735
C44   C     C_1   0.343924 0.306143 0.223722 0.273050
N8    N     N_1   0.337836 0.227697 0.299142 -0.224296
O10   O     O_3   0.361761 0.314831 0.745999 -0.716058
H11   H     H_    0.303002 0.274343 0.714972 0.318072
C45   C     C_1   0.662265 0.549756 0.877068 0.256738
N9    N     N_1   0.735136 0.557790 0.838771 -0.158025
C46   C     C_1   0.251620 0.732274 0.535300 0.279764
N10   N     N_1   0.297669 0.820798 0.557732 -0.189007
O11   O     O_3   0.102150 0.849632 0.508450 -0.764984
H12   H     H_    0.060127 0.917037 0.510138 0.329944

loop_
_geom_bond_atom_site_label_1
_geom_bond_atom_site_label_2
_ccdc_geom_bond_type
C8    C9    A    
O6    Zn2   S    
C36   H4    S    
C19   C20   A    
C28   O10   S    
O4    Zn2   S    
C7    C8    A    
C29   N2    A    
C3    H5    S    
C26   C27   A    
C29   C30   A    
N1    Zn2   S    
C18   C24   A    
C30   N1    A    
C36   C37   A    
C37   C38   A    
C18   C19   A    
C5    C6    A    
O11   H12   S    
O8    Zn2   S    
C15   C16   A    
C34   C35   A    
C27   H3    S    
O9    H10   S    
C31   C43   S    
C35   C36   A    
C16   C17   A    
C23   C24   S    
C6    C38   A    
C43   N7    T    
C1    O1    A    
C12   O4    A    
C2    C34   A    
C33   O7    A    
C42   N6    T    
C9    H8    S    
C21   C22   A    
C12   O3    A    
O10   H11   S    
C34   H1    S    
O1    Zn1   S    
C45   N9    T    
C46   N10   T    
C4    C5    A    
C4    H6    S    
C25   C26   A    
N2    Zn1   S    
C39   N3    T    
C40   N4    T    
C2    C38   A    
C31   C32   A    
C10   H7    S    
C17   C18   A    
C17   C42   S    
C25   C44   S    
C1    O2    A    
C22   O9    S    
O3    Zn1   S    
C31   N1    A    
C22   C24   A    
O2    Zn2   S    
C3    C4    A    
C23   O5    A    
O5    Zn1   S    
C25   C30   A    
C13   C46   S    
C28   C29   A    
C1    C20   S    
C33   O8    A    
C14   C19   A    
C44   N8    T    
C32   C45   S    
C11   C12   S    
C23   O6    A    
C6    C7    A    
C14   C39   S    
C41   N5    T    
C5    C10   A    
C11   C13   A    
C26   H2    S    
C33   C35   S    
C15   C40   S    
O7    Zn1   S    
C32   N2    A    
C10   C11   A    
C7    C13   A    
C20   C21   A    
C3    C37   A    
C27   C28   A    
C8    O11   S    
C14   C15   A    
C16   C41   S    
C2    C9    A    
C21   H9    S    
