data_mof_unit_30169.cif
_audit_creation_date              2013-03-05T16:36:14-0500
_audit_creation_method            fapswitch 2.2
_symmetry_space_group_name_H-M    P1
_symmetry_Int_Tables_number       1
_space_group_crystal_system       triclinic
_cell_length_a                    27.638991
_cell_length_b                    9.085608
_cell_length_c                    7.779912
_cell_angle_alpha                 89.995394
_cell_angle_beta                  89.992625
_cell_angle_gamma                 92.373986
_cell_volume                      1951.99167633

loop_
_atom_site_label
_atom_site_type_symbol
_atom_site_description
_atom_site_fract_x
_atom_site_fract_y
_atom_site_fract_z
_atom_type_partial_charge
O1    O     O_R   0.500000 0.288390 0.642760 -0.579850
O2    O     O_R   0.500000 0.711610 0.357240 -0.574466
O3    O     O_R   0.500000 0.711610 0.642760 -0.575900
O4    O     O_R   0.500000 0.288390 0.357240 -0.579933
C1    C     C_R   0.499859 0.219990 0.500002 0.827994
C2    C     C_R   0.500131 0.780011 0.499994 0.848062
O5    O     O_R   0.430260 0.500000 0.642770 -0.557134
O6    O     O_R   0.569740 0.500000 0.357230 -0.555640
O7    O     O_R   0.569740 0.500000 0.642770 -0.564065
O8    O     O_R   0.430260 0.500000 0.357230 -0.561486
C3    C     C_R   0.406960 0.494148 0.499840 0.829588
C4    C     C_R   0.593061 0.505335 0.499812 0.828103
Cu1   Cu    Cu3+1 0.500000 0.500000 0.669080 1.028042
Cu2   Cu    Cu3+1 0.500000 0.500000 0.330920 1.029613
C5    C     C_R   0.170958 0.338178 0.484187 0.535979
C6    C     C_R   0.829090 0.662401 0.484216 0.537309
C7    C     C_R   0.182176 0.593388 0.415079 0.567521
C8    C     C_R   0.817915 0.407137 0.415390 0.565972
O9    O     O_2   0.190649 0.211580 0.533683 -0.483018
O10   O     O_2   0.809365 0.789011 0.533465 -0.481806
O11   O     O_2   0.212919 0.711251 0.393462 -0.486445
O12   O     O_2   0.787188 0.289196 0.394084 -0.487953
N1    N     N_R   0.200232 0.461891 0.463313 -0.468307
N2    N     N_R   0.799846 0.538615 0.463580 -0.468534
C9    C     C_R   0.274879 0.525934 0.622482 -0.162427
C10   C     C_R   0.725311 0.475558 0.624008 -0.143806
C11   C     C_R   0.278958 0.389038 0.356728 -0.154674
C12   C     C_R   0.721026 0.608688 0.355755 -0.174212
C13   C     C_R   0.325526 0.537710 0.630570 0.076717
C14   C     C_R   0.674549 0.462376 0.632222 0.080008
C15   C     C_R   0.329688 0.398674 0.362098 0.081067
C16   C     C_R   0.670445 0.597339 0.360889 0.079151
C17   C     C_R   0.251645 0.454127 0.484590 0.294116
C18   C     C_R   0.748438 0.546185 0.484980 0.295178
C19   C     C_R   0.101319 0.478749 0.405600 -0.176000
C20   C     C_R   0.898752 0.521885 0.405645 -0.176034
C21   C     C_R   0.120710 0.342967 0.453699 -0.112941
C22   C     C_R   0.879345 0.657654 0.453717 -0.113681
C23   C     C_R   0.132180 0.605865 0.387423 -0.116202
C24   C     C_R   0.867904 0.394741 0.387529 -0.115640
C25   C     C_R   0.089072 0.217873 0.473550 0.474377
C26   C     C_R   0.910976 0.782759 0.473566 0.474417
C27   C     C_R   0.112360 0.741133 0.341113 0.490002
C28   C     C_R   0.887728 0.259512 0.341118 0.490198
C29   C     C_R   0.353449 0.476892 0.497981 -0.051392
C30   C     C_R   0.646625 0.521310 0.497920 -0.051150
H1    H     H_    0.260431 0.333974 0.250528 0.134757
H2    H     H_    0.739144 0.662682 0.247941 0.140433
H3    H     H_    0.253468 0.577164 0.720749 0.145995
H4    H     H_    0.747109 0.426140 0.722458 0.139507
C31   C     C_R   0.969455 0.372236 0.364167 0.010888
C32   C     C_R   0.030621 0.628438 0.364233 0.010826
C33   C     C_R   0.980019 0.640506 0.386428 0.021551
C34   C     C_R   0.020053 0.360160 0.386338 0.021670
C35   C     C_R   0.949400 0.511840 0.382854 0.068775
C36   C     C_R   0.050673 0.488824 0.382839 0.068831
C37   C     C_R   0.938068 0.248879 0.333930 -0.327487
C38   C     C_R   0.062015 0.751796 0.334021 -0.327652
C39   C     C_R   0.959729 0.775301 0.428048 -0.340778
C40   C     C_R   0.040336 0.225342 0.427882 -0.341144
H5    H     H_    0.951948 0.142132 0.306022 0.158293
H6    H     H_    0.048134 0.858565 0.306227 0.158305
H7    H     H_    0.981883 0.875034 0.442935 0.149932
H8    H     H_    0.018187 0.125583 0.442621 0.149775
C41   C     C_1   0.499946 0.065378 0.499999 -0.171572
C42   C     C_1   0.500039 0.934626 0.499987 -0.167232
N3    N     N_1   0.500000 0.500000 0.076820 -0.031386
N4    N     N_1   0.500000 0.500000 0.923180 -0.033238
N5    N     N_3   0.357128 0.328830 0.230295 -0.552566
H9    H     H_    0.334226 0.283916 0.135142 0.217456
H10   H     H_    0.374182 0.240519 0.287239 0.216549
N6    N     N_3   0.643418 0.664210 0.226705 -0.557628
H11   H     H_    0.653165 0.776623 0.223804 0.222918
H12   H     H_    0.653643 0.618383 0.109543 0.238403
N7    N     N_3   0.348354 0.616684 0.770043 -0.556817
H13   H     H_    0.337232 0.565844 0.884853 0.236175
H14   H     H_    0.335861 0.723759 0.770332 0.228156
N8    N     N_3   0.651429 0.384460 0.772738 -0.557569
H15   H     H_    0.636955 0.284688 0.724395 0.222927
H16   H     H_    0.676848 0.357991 0.866156 0.219561
O13   O     O_3   0.105200 0.085983 0.535735 -0.501480
C43   C     C_3   0.089418 0.065765 0.707871 0.111346
H17   H     H_    0.055105 0.120716 0.739346 0.103730
H18   H     H_    0.118013 0.110391 0.796010 0.159081
C44   C     C_3   0.080717 0.902120 0.743092 -0.794623
H19   H     H_    0.114383 0.842369 0.720334 0.269574
H20   H     H_    0.068803 0.884803 0.877894 0.171814
H21   H     H_    0.051483 0.856870 0.658542 0.244209
O14   O     O_3   0.894829 0.914624 0.535732 -0.501506
C45   C     C_3   0.910528 0.934761 0.707959 0.111444
H22   H     H_    0.944658 0.879035 0.739960 0.103642
H23   H     H_    0.881760 0.890931 0.795910 0.159431
C46   C     C_3   0.919593 0.098306 0.742868 -0.795296
H24   H     H_    0.886098 0.158776 0.719702 0.269615
H25   H     H_    0.931445 0.115577 0.877735 0.172029
H26   H     H_    0.948976 0.142781 0.658416 0.244039
O15   O     O_3   0.141930 0.867190 0.324066 -0.476585
C47   C     C_3   0.141169 0.916841 0.152219 0.114187
H27   H     H_    0.107665 0.977174 0.128150 0.121475
H28   H     H_    0.143674 0.824112 0.058953 0.117783
C48   C     C_3   0.184405 0.022738 0.121756 -0.690541
H29   H     H_    0.218522 0.968587 0.154174 0.270220
H30   H     H_    0.185772 0.056493 0.984691 0.187372
H31   H     H_    0.181280 0.122517 0.202451 0.253620
O16   O     O_3   0.858166 0.133449 0.324052 -0.476418
C49   C     C_3   0.858884 0.083959 0.152145 0.112898
H32   H     H_    0.892356 0.023502 0.127937 0.121606
H33   H     H_    0.856418 0.176776 0.058960 0.117616
C50   C     C_3   0.815592 0.978284 0.121706 -0.688838
H34   H     H_    0.781511 0.032566 0.154324 0.269754
H35   H     H_    0.814173 0.944686 0.984605 0.187587
H36   H     H_    0.818682 0.878397 0.202264 0.253879

loop_
_geom_bond_atom_site_label_1
_geom_bond_atom_site_label_2
_geom_bond_distance
_ccdc_geom_bond_type
C38   H6    1.079723 S    
C46   H24   1.110661 S    
O3    C2    1.272635 A    
O15   C47   1.411418 S    
C33   C39   1.405741 A    
C16   N6    1.433404 S    
C34   C40   1.405697 A    
C28   O16   1.385490 S    
C11   C17   1.394994 A    
C5    O9    1.348821 S    
C7    N1    1.366241 A    
C2    C42   1.404880 S    
O1    C1    1.272659 A    
C19   C21   1.415604 A    
C22   C26   1.413450 A    
C50   H35   1.109728 S    
N8    H16   1.045825 S    
C49   H32   1.111358 S    
C7    C23   1.407741 A    
N5    H10   1.045719 S    
O7    Cu1   1.938352 S    
C5    C21   1.411400 A    
C20   C24   1.414121 A    
C8    C24   1.407624 A    
C27   C38   1.399926 A    
C10   C18   1.398570 A    
N1    C17   1.435267 S    
Cu2   N3    1.976875 S    
C31   C37   1.408409 A    
O3    Cu1   1.933463 S    
C6    O10   1.348795 S    
C5    N1    1.367116 A    
C44   H20   1.108447 S    
C12   C18   1.393920 A    
C6    N2    1.367008 A    
Cu1   Cu2   2.630856 S    
C21   C25   1.413460 A    
O2    C2    1.272641 A    
O7    C4    1.285318 A    
O5    C3    1.285065 A    
C9    H3    1.083558 S    
C33   C35   1.414772 A    
C9    C13   1.400911 A    
C34   C36   1.414746 A    
C11   C15   1.401863 A    
N3    N4    1.195306 T    
C48   H29   1.110559 S    
C12   C16   1.398099 A    
C1    C41   1.404843 S    
O8    Cu2   1.938355 S    
C50   H36   1.109081 S    
N8    H15   1.045592 S    
O4    C1    1.272600 A    
C23   C27   1.412820 A    
C44   H19   1.110708 S    
C43   H17   1.117054 S    
O13   C43   1.417976 S    
C13   C29   1.414289 A    
C4    C30   1.481609 S    
C19   C23   1.414117 A    
N7    H13   1.045837 S    
C15   N5    1.438448 S    
C45   H23   1.110201 S    
O5    Cu1   1.938407 S    
C28   C37   1.399791 A    
O6    C4    1.282938 A    
C25   O13   1.383068 S    
N7    H14   1.045692 S    
C32   C38   1.408420 A    
N6    H12   1.045859 S    
C10   C14   1.404618 A    
C46   H26   1.107760 S    
C43   H18   1.110350 S    
C8    N2    1.366155 A    
C3    C29   1.480883 S    
O1    Cu1   1.933496 S    
C47   C48   1.521356 S    
C32   C33   1.417930 A    
C45   C46   1.521082 S    
C48   H30   1.109758 S    
C44   H21   1.107804 S    
C11   H1    1.083563 S    
C12   H2    1.083730 S    
O6    Cu2   1.938404 S    
C19   C36   1.417699 A    
C8    O12   1.349679 S    
C16   C30   1.417461 A    
C14   C30   1.417192 A    
C27   O15   1.385532 S    
C25   C40   1.397492 A    
N6    H11   1.045664 S    
C26   C39   1.397575 A    
C37   H5    1.079722 S    
C13   N7    1.432884 S    
C48   H31   1.109051 S    
C43   C44   1.521125 S    
O16   C49   1.411421 S    
C39   H7    1.078649 S    
C40   H8    1.078620 S    
C26   O14   1.383036 S    
C31   C34   1.417848 A    
C10   H4    1.083369 S    
C20   C35   1.417709 A    
C50   H34   1.110563 S    
C45   H22   1.117066 S    
C49   H33   1.116271 S    
C20   C22   1.415642 A    
C31   C35   1.412608 A    
C41   C42   1.188075 T    
O4    Cu2   1.933464 S    
N5    H9    1.045944 S    
O2    Cu2   1.933496 S    
C47   H28   1.116250 S    
N2    C18   1.435052 S    
O8    C3    1.282765 A    
C14   N8    1.437627 S    
C24   C28   1.412766 A    
C46   H25   1.108481 S    
C47   H27   1.111362 S    
C15   C29   1.419699 A    
C9    C17   1.398026 A    
O14   C45   1.417994 S    
C49   C50   1.521373 S    
C32   C36   1.412585 A    
C6    C22   1.411516 A    
Cu1   N4    1.976875 S    
C7    O11   1.349657 S    
