data_mof_unit_23250.cif
_audit_creation_date              2012-12-10T17:05:58-0500
_audit_creation_method            fapswitch 2.2
_symmetry_space_group_name_H-M    P1
_symmetry_Int_Tables_number       1
_space_group_crystal_system       triclinic
_cell_length_a                    25.798886
_cell_length_b                    26.088363
_cell_length_c                    18.254725
_cell_angle_alpha                 89.877083
_cell_angle_beta                  134.943933
_cell_angle_gamma                 89.926004
_cell_volume                      8696.1741744

loop_
_atom_site_label
_atom_site_type_symbol
_atom_type_description
_atom_site_fract_x
_atom_site_fract_y
_atom_site_fract_z
_atom_type_partial_charge
Br1   Br    Br    0.283163 0.815440 0.753677 -0.453631
Br2   Br    Br    0.890768 0.433247 0.895334 -0.326836
Br3   Br    Br    0.388417 0.063342 0.895467 -0.323869
Br4   Br    Br    0.390770 0.933253 0.895337 -0.326823
Br5   Br    Br    0.801997 0.406283 0.225382 -0.284930
Br6   Br    Br    0.021852 0.938367 0.673064 -0.445280
Br7   Br    Br    0.301987 0.906275 0.225366 -0.284708
Br8   Br    Br    0.521850 0.438368 0.673061 -0.445280
Br9   Br    Br    0.280757 0.186062 0.752347 -0.445530
Br10  Br    Br    0.783160 0.315437 0.753676 -0.453629
Br11  Br    Br    0.780759 0.686055 0.752342 -0.445541
Br12  Br    Br    0.535713 0.713394 0.865754 -0.318329
Br13  Br    Br    0.531801 0.290271 0.863191 -0.344289
Br14  Br    Br    0.035712 0.213392 0.865754 -0.318323
Br15  Br    Br    0.031762 0.790341 0.863181 -0.344408
Br16  Br    Br    0.888443 0.563337 0.895482 -0.323914
C1    C     C_R   0.888979 0.748960 0.779795 0.574816
C2    C     C_R   0.493223 0.295768 0.541887 0.004185
C3    C     C_R   0.255567 0.526718 0.443766 -0.123383
C4    C     C_R   0.811669 0.552556 0.682981 -0.083799
C5    C     C_R   0.813549 0.446012 0.682669 -0.088109
C6    C     C_R   0.311659 0.052558 0.682973 -0.083806
C7    C     C_R   0.313554 0.946014 0.682672 -0.088109
C8    C     C_R   0.844449 0.525597 0.773117 0.220853
C9    C     C_R   0.845566 0.472085 0.773059 0.216781
C10   C     C_R   0.344439 0.025601 0.773111 0.220836
C11   C     C_R   0.345566 0.972089 0.773059 0.216777
C12   C     C_R   0.781745 0.472693 0.591060 -0.065064
C13   C     C_R   0.937109 0.284601 0.429115 -0.010775
C14   C     C_R   0.781198 0.526808 0.591591 -0.069024
C15   C     C_R   0.281747 0.972694 0.591061 -0.065063
C16   C     C_R   0.281196 0.026810 0.591588 -0.069020
C17   C     C_R   0.752014 0.554037 0.502014 -0.016172
C18   C     C_R   0.748183 0.446561 0.498364 -0.019391
C19   C     C_R   0.252012 0.054037 0.502010 -0.016179
C20   C     C_R   0.248182 0.946562 0.498365 -0.019384
C21   C     C_R   0.726273 0.527934 0.413838 0.225610
C22   C     C_R   0.714873 0.474450 0.406645 0.216802
C23   C     C_R   0.226263 0.027934 0.413832 0.225586
C24   C     C_R   0.993223 0.795768 0.541888 0.004180
C25   C     C_R   0.214864 0.974451 0.406643 0.216821
C26   C     C_R   0.747541 0.890237 0.497602 0.553741
C27   C     C_R   0.747023 0.109796 0.497362 0.549905
C28   C     C_R   0.247541 0.390237 0.497602 0.553741
C29   C     C_R   0.247023 0.609796 0.497362 0.549920
C30   C     C_R   0.890208 0.750295 0.500550 0.520947
C31   C     C_R   0.890097 0.249933 0.500352 0.501838
C32   C     C_R   0.390208 0.250295 0.500550 0.520947
C33   C     C_R   0.390097 0.749933 0.500352 0.501839
C34   C     C_R   0.610063 0.749733 0.499991 0.533358
C35   C     C_R   0.488874 0.781457 0.423436 0.032727
C36   C     C_R   0.610026 0.250385 0.500110 0.533559
C37   C     C_R   0.110063 0.249733 0.499991 0.533360
C38   C     C_R   0.110026 0.750385 0.500109 0.533552
C39   C     C_R   0.477092 0.810218 0.347276 -0.071242
C40   C     C_R   0.590466 0.340480 0.573831 -0.066608
C41   C     C_R   0.977092 0.310219 0.347277 -0.071233
C42   C     C_R   0.090466 0.840479 0.573831 -0.066605
C43   C     C_R   0.420439 0.846086 0.286913 -0.040823
C44   C     C_R   0.582479 0.382454 0.612376 -0.046228
C45   C     C_R   0.920441 0.346088 0.286917 -0.040824
C46   C     C_R   0.546740 0.296396 0.539242 0.029492
C47   C     C_R   0.082480 0.882454 0.612378 -0.046226
C48   C     C_R   0.373396 0.852704 0.299207 0.210597
C49   C     C_R   0.531370 0.381216 0.617969 0.182115
C50   C     C_R   0.873400 0.352708 0.299213 0.210566
C51   C     C_R   0.031371 0.881216 0.617971 0.182120
C52   C     C_R   0.988874 0.281458 0.423437 0.032727
C53   C     C_R   0.046741 0.796396 0.539243 0.029490
C54   C     C_R   0.551711 0.750378 0.495572 0.056171
C55   C     C_R   0.554639 0.252845 0.501682 0.054221
C56   C     C_R   0.051710 0.250378 0.495571 0.056176
C57   C     C_R   0.889562 0.250392 0.779890 0.572098
C58   C     C_R   0.054638 0.752845 0.501682 0.054210
C59   C     C_R   0.559528 0.719449 0.565365 -0.099335
C60   C     C_R   0.507017 0.211443 0.460964 -0.092007
C61   C     C_R   0.059526 0.219447 0.565361 -0.099319
C62   C     C_R   0.007016 0.711443 0.460963 -0.091980
C63   C     C_R   0.505743 0.719386 0.565245 -0.103085
C64   C     C_R   0.454769 0.210744 0.463535 -0.100735
C65   C     C_R   0.005741 0.219385 0.565242 -0.103078
C66   C     C_R   0.954768 0.710744 0.463535 -0.100712
C67   C     C_R   0.444922 0.751688 0.497921 0.037003
C68   C     C_R   0.388981 0.248962 0.779795 0.574801
C69   C     C_R   0.447832 0.252306 0.503937 0.041491
C70   C     C_R   0.944922 0.251688 0.497920 0.037009
C71   C     C_R   0.947831 0.752306 0.503937 0.041479
C72   C     C_R   0.465555 0.782295 0.111877 -0.128867
C73   C     C_R   0.468675 0.211918 0.113756 -0.125377
C74   C     C_R   0.965556 0.282298 0.111878 -0.128869
C75   C     C_R   0.968693 0.711885 0.113761 -0.125392
C76   C     C_R   0.396034 0.797885 0.062540 -0.098541
C77   C     C_R   0.400532 0.193874 0.065770 -0.086644
C78   C     C_R   0.896036 0.297888 0.062542 -0.098536
C79   C     C_R   0.389562 0.750392 0.779890 0.572101
C80   C     C_R   0.900558 0.693825 0.065779 -0.086653
C81   C     C_R   0.340988 0.803177 0.955671 0.318828
C82   C     C_R   0.344406 0.190218 0.958674 0.313663
C83   C     C_R   0.840989 0.303178 0.955672 0.318845
C84   C     C_R   0.844429 0.690172 0.958684 0.313684
C85   C     C_R   0.610151 0.749888 0.220105 0.562563
C86   C     C_R   0.610057 0.250173 0.219980 0.565443
C87   C     C_R   0.110151 0.249887 0.220105 0.562560
C88   C     C_R   0.110057 0.750174 0.219980 0.565440
C89   C     C_R   0.356150 0.792345 0.896357 0.193666
C90   C     C_R   0.380109 0.821220 0.367571 -0.038122
C91   C     C_R   0.357301 0.204353 0.897666 0.188766
C92   C     C_R   0.856150 0.292345 0.896357 0.193666
C93   C     C_R   0.857314 0.704327 0.897670 0.188749
C94   C     C_R   0.426114 0.770672 0.945795 -0.032741
C95   C     C_R   0.426556 0.226950 0.946289 -0.035576
C96   C     C_R   0.926114 0.270672 0.945795 -0.032743
C97   C     C_R   0.926563 0.726935 0.946290 -0.035582
C98   C     C_R   0.481754 0.767439 0.055460 -0.044717
C99   C     C_R   0.482756 0.229691 0.056094 -0.053083
C100  C     C_R   0.981755 0.267440 0.055460 -0.044718
C101  C     C_R   0.486922 0.338314 0.582989 -0.040264
C102  C     C_R   0.982765 0.729674 0.056096 -0.053083
C103  C     C_R   0.553043 0.750016 0.107659 -0.001200
C104  C     C_R   0.552650 0.249585 0.107398 0.001068
C105  C     C_R   0.053043 0.250016 0.107659 -0.001204
C106  C     C_R   0.052651 0.749585 0.107397 0.001064
C107  C     C_R   0.569432 0.732481 0.052801 0.186032
C108  C     C_R   0.567673 0.268452 0.051499 0.236945
C109  C     C_R   0.069432 0.232481 0.052801 0.186023
C110  C     C_R   0.067663 0.768471 0.051496 0.236886
C111  C     C_R   0.514657 0.735031 0.944508 0.131036
C112  C     C_R   0.880110 0.321222 0.367575 -0.038097
C113  C     C_R   0.512822 0.265853 0.943371 0.139930
C114  C     C_R   0.014656 0.235030 0.944508 0.131034
C115  C     C_R   0.012808 0.765877 0.943367 0.139885
C116  C     C_R   0.443862 0.752888 0.891783 0.011232
C117  C     C_R   0.443169 0.246367 0.891560 0.010070
C118  C     C_R   0.943862 0.252888 0.891783 0.011230
C119  C     C_R   0.943166 0.746368 0.891560 0.010082
C120  C     C_R   0.681503 0.946970 0.557370 0.271977
C121  C     C_R   0.685611 0.051371 0.565115 0.290617
C122  C     C_R   0.181502 0.446970 0.557369 0.271977
C123  C     C_R   0.986923 0.838314 0.582991 -0.040262
C124  C     C_R   0.185608 0.551371 0.565111 0.290623
C125  C     C_R   0.687899 0.971185 0.631428 -0.139265
C126  C     C_R   0.691198 0.024190 0.636548 -0.117391
C127  C     C_R   0.187898 0.471186 0.631426 -0.139234
C128  C     C_R   0.191194 0.524191 0.636544 -0.117340
C129  C     C_R   0.709491 0.027000 0.523455 -0.003607
C130  C     C_R   0.708768 0.972559 0.521682 0.001919
C131  C     C_R   0.209490 0.527000 0.523453 -0.003622
C132  C     C_R   0.208768 0.472559 0.521682 0.001913
C133  C     C_R   0.750393 0.610060 0.501217 0.565311
C134  C     C_R   0.437108 0.784600 0.429113 -0.010785
C135  C     C_R   0.749549 0.390167 0.498314 0.544934
C136  C     C_R   0.250392 0.110060 0.501214 0.565294
C137  C     C_R   0.249549 0.890167 0.498316 0.544920
C138  C     C_R   0.735743 0.946066 0.486137 0.041260
C139  C     C_R   0.735601 0.053997 0.486780 0.033724
C140  C     C_R   0.235743 0.446066 0.486137 0.041263
C141  C     C_R   0.235600 0.553998 0.486779 0.033726
C142  C     C_R   0.756001 0.973686 0.443931 -0.119803
C143  C     C_R   0.755567 0.026718 0.443766 -0.123381
C144  C     C_R   0.256001 0.473686 0.443931 -0.119803
H1    H     H_    0.607012 0.694820 0.619130 0.186447
H2    H     H_    0.679482 0.042939 0.676458 0.179713
H3    H     H_    0.173364 0.451146 0.666837 0.170148
H4    H     H_    0.179478 0.542939 0.676453 0.179729
H5    H     H_    0.811600 0.593868 0.686319 0.174052
H6    H     H_    0.813978 0.404704 0.685653 0.178540
H7    H     H_    0.311580 0.093871 0.686305 0.174046
H8    H     H_    0.313988 0.904706 0.685660 0.178544
H9    H     H_    0.512731 0.806144 0.335994 0.147612
H10   H     H_    0.630712 0.343111 0.570810 0.157431
H11   H     H_    0.012731 0.306145 0.335994 0.147610
H12   H     H_    0.509131 0.180011 0.424721 0.174062
H13   H     H_    0.130713 0.843111 0.570811 0.157433
H14   H     H_    0.414487 0.869838 0.232634 0.187127
H15   H     H_    0.616531 0.415899 0.638574 0.171086
H16   H     H_    0.914490 0.369841 0.232640 0.187128
H17   H     H_    0.116532 0.915899 0.638576 0.171089
H18   H     H_    0.342317 0.826808 0.374749 0.179591
H19   H     H_    0.447815 0.338651 0.588489 0.144844
H20   H     H_    0.842319 0.326810 0.374753 0.179606
H21   H     H_    0.947816 0.838651 0.588491 0.144851
H22   H     H_    0.511895 0.694476 0.618608 0.161917
H23   H     H_    0.107009 0.194817 0.619123 0.186430
H24   H     H_    0.418440 0.178115 0.431767 0.169980
H25   H     H_    0.011892 0.194473 0.618602 0.161900
H26   H     H_    0.918440 0.678115 0.431766 0.169985
H27   H     H_    0.506090 0.781554 0.195414 0.134582
H28   H     H_    0.509975 0.212186 0.197420 0.146648
H29   H     H_    0.006092 0.281558 0.195415 0.134582
H30   H     H_    0.009995 0.712153 0.197426 0.146631
H31   H     H_    0.385805 0.807076 0.109091 0.150862
H32   H     H_    0.392140 0.182077 0.113641 0.177699
H33   H     H_    0.885808 0.307080 0.109093 0.150863
H34   H     H_    0.009129 0.680011 0.424719 0.174052
H35   H     H_    0.892173 0.682015 0.113653 0.177672
H36   H     H_    0.199750 0.899147 0.843616 0.388291
H37   H     H_    0.185962 0.105672 0.801907 0.377063
H38   H     H_    0.699747 0.399145 0.843613 0.388288
H39   H     H_    0.686010 0.605599 0.801935 0.377082
H40   H     H_    0.522758 0.952001 0.448522 0.371868
H41   H     H_    0.495311 0.087247 0.393847 0.366183
H42   H     H_    0.022752 0.451998 0.448513 0.371884
H43   H     H_    0.995276 0.587256 0.393594 0.366203
H44   H     H_    0.731424 0.542610 0.218736 0.394080
H45   H     H_    0.775689 0.954205 0.415018 0.163844
H46   H     H_    0.591373 0.458713 0.122869 0.390484
H47   H     H_    0.231083 0.042534 0.218395 0.394133
H48   H     H_    0.090934 0.958691 0.122737 0.390310
H49   H     H_    0.615280 0.627648 0.068222 0.362535
H50   H     H_    0.657945 0.358861 0.036552 0.411618
H51   H     H_    0.115282 0.127645 0.068233 0.362487
H52   H     H_    0.157793 0.858978 0.036508 0.411585
H53   H     H_    0.774820 0.046467 0.414437 0.162557
H54   H     H_    0.275689 0.454205 0.415019 0.163845
H55   H     H_    0.274820 0.546467 0.414437 0.162556
H56   H     H_    0.673365 0.951146 0.666839 0.170137
O1    O     O_3   0.750020 0.750020 0.500000 -0.480716
O2    O     O_R   0.750010 0.134170 0.560720 -0.502775
O3    O     O_3   0.134198 0.857516 0.061760 -0.434386
O4    O     O_R   0.250010 0.365830 0.560720 -0.507568
O5    O     O_R   0.250010 0.634170 0.560720 -0.502765
O6    O     O_R   0.896180 0.719660 0.731600 -0.501809
O7    O     O_R   0.896180 0.280340 0.731600 -0.495069
O8    O     O_R   0.396180 0.219660 0.731600 -0.501802
O9    O     O_R   0.396180 0.780340 0.731600 -0.495071
O10   O     O_R   0.664580 0.780370 0.268400 -0.490817
O11   O     O_R   0.664580 0.219630 0.268400 -0.499351
O12   O     O_R   0.164580 0.280370 0.268400 -0.490819
O13   O     O_3   0.750020 0.249980 0.500000 -0.481316
O14   O     O_R   0.164580 0.719630 0.268400 -0.499371
O15   O     O_R   0.835450 0.780390 0.731600 -0.511212
O16   O     O_R   0.835450 0.219610 0.731600 -0.514907
O17   O     O_R   0.335450 0.280390 0.731600 -0.511211
O18   O     O_R   0.335450 0.719610 0.731600 -0.514904
O19   O     O_R   0.603870 0.719650 0.268400 -0.527962
O20   O     O_R   0.603870 0.280350 0.268400 -0.508356
O21   O     O_R   0.103870 0.219650 0.268400 -0.527960
O22   O     O_R   0.103870 0.780350 0.268400 -0.508350
O23   O     O_R   0.810750 0.634210 0.560720 -0.516223
O24   O     O_3   0.250020 0.250020 0.500000 -0.480719
O25   O     O_R   0.810750 0.365790 0.560720 -0.537307
O26   O     O_R   0.310750 0.134210 0.560720 -0.516238
O27   O     O_R   0.310750 0.865790 0.560720 -0.537320
O28   O     O_R   0.750010 0.865820 0.439280 -0.545963
O29   O     O_R   0.750010 0.134180 0.439280 -0.544089
O30   O     O_R   0.250010 0.365820 0.439280 -0.545965
O31   O     O_R   0.250010 0.634180 0.439280 -0.544091
O32   O     O_R   0.896180 0.719650 0.560720 -0.504751
O33   O     O_R   0.896180 0.280350 0.560720 -0.517925
O34   O     O_R   0.396180 0.219650 0.560720 -0.504757
O35   O     O_3   0.250020 0.749980 0.500000 -0.481313
O36   O     O_R   0.396180 0.780350 0.560720 -0.517928
O37   O     O_R   0.664570 0.780390 0.560720 -0.448364
O38   O     O_R   0.664570 0.219610 0.560720 -0.439723
O39   O     O_R   0.164570 0.280390 0.560720 -0.448352
O40   O     O_R   0.164570 0.719610 0.560720 -0.439727
O41   O     O_R   0.835460 0.780370 0.439280 -0.526308
O42   O     O_R   0.835460 0.219630 0.439280 -0.520461
O43   O     O_R   0.335460 0.280370 0.439280 -0.526307
O44   O     O_R   0.335460 0.719630 0.439280 -0.520470
O45   O     O_R   0.603860 0.719660 0.439280 -0.561093
O46   O     O_R   0.689310 0.634210 0.439280 -0.497562
O47   O     O_R   0.603860 0.280340 0.439280 -0.564294
O48   O     O_R   0.103860 0.219660 0.439280 -0.561097
O49   O     O_R   0.103860 0.780340 0.439280 -0.564287
O50   O     O_2   0.194833 0.791571 0.810302 -0.226102
O51   O     O_2   0.250367 0.825066 0.977896 -0.248078
O52   O     O_3   0.241345 0.885649 0.856087 -0.455648
O53   O     O_2   0.258913 0.158897 0.985786 -0.201263
O54   O     O_2   0.200469 0.207155 0.828066 -0.255723
O55   O     O_3   0.237789 0.112420 0.840991 -0.441398
O56   O     O_2   0.694834 0.291569 0.810306 -0.226089
O57   O     O_R   0.689310 0.365790 0.439280 -0.478897
O58   O     O_2   0.750369 0.325066 0.977899 -0.248196
O59   O     O_3   0.741343 0.385648 0.856085 -0.455648
O60   O     O_2   0.758958 0.658805 0.985809 -0.201347
O61   O     O_2   0.700489 0.707090 0.828105 -0.255683
O62   O     O_3   0.737825 0.612367 0.840975 -0.441411
O63   O     O_2   0.602700 0.877015 0.401564 -0.304258
O64   O     O_2   0.604176 0.870433 0.537611 -0.298928
O65   O     O_3   0.528892 0.943423 0.402163 -0.449947
O66   O     O_2   0.621468 0.129357 0.566999 -0.294411
O67   O     O_2   0.605032 0.126512 0.416295 -0.311641
O68   O     O_R   0.189310 0.134210 0.439280 -0.497563
O69   O     O_3   0.534438 0.061360 0.425723 -0.476846
O70   O     O_2   0.102701 0.377014 0.401565 -0.304265
O71   O     O_2   0.104174 0.370434 0.537609 -0.298919
O72   O     O_3   0.028892 0.443424 0.402158 -0.449983
O73   O     O_2   0.121464 0.629359 0.566990 -0.294276
O74   O     O_2   0.105032 0.626510 0.416290 -0.311801
O75   O     O_3   0.034435 0.561362 0.425720 -0.476898
O76   O     O_2   0.645013 0.583028 0.237940 -0.233394
O77   O     O_2   0.774878 0.604909 0.374919 -0.264827
O78   O     O_3   0.741254 0.522155 0.273289 -0.418652
O79   O     O_R   0.189310 0.865790 0.439280 -0.478858
O80   O     O_2   0.703872 0.405397 0.287801 -0.201309
O81   O     O_2   0.599046 0.412851 0.266027 -0.245832
O82   O     O_3   0.613319 0.481577 0.181993 -0.422652
O83   O     O_2   0.144984 0.083026 0.237933 -0.233607
O84   O     O_2   0.274851 0.104908 0.374879 -0.264640
O85   O     O_3   0.241215 0.022152 0.273250 -0.418411
O86   O     O_2   0.203811 0.905389 0.287756 -0.200986
O87   O     O_2   0.099018 0.912867 0.266056 -0.246162
O88   O     O_3   0.113281 0.981579 0.181989 -0.422812
O89   O     O_2   0.695069 0.740537 0.103041 -0.172738
O90   O     O_R   0.750010 0.865830 0.560720 -0.507572
O91   O     O_2   0.705558 0.695664 0.230473 -0.246364
O92   O     O_3   0.644187 0.648399 0.062068 -0.415008
O93   O     O_2   0.703703 0.304252 0.228050 -0.256794
O94   O     O_2   0.690322 0.267104 0.092970 -0.227070
O95   O     O_3   0.634265 0.357438 0.061682 -0.434447
O96   O     O_2   0.195066 0.240533 0.103032 -0.172707
O97   O     O_2   0.205559 0.195666 0.230473 -0.246345
O98   O     O_3   0.144184 0.148396 0.062071 -0.415013
O99   O     O_2   0.203711 0.804245 0.228056 -0.256816
O100  O     O_2   0.190268 0.767215 0.092851 -0.226956
S1    S     S_3+6 0.254156 0.825414 0.899361 0.085871
S2    S     S_3+6 0.657357 0.442222 0.284286 0.117671
S3    S     S_3+6 0.220926 0.061537 0.323063 0.102785
S4    S     S_3+6 0.157324 0.942224 0.284281 0.117598
S5    S     S_3+6 0.656676 0.704939 0.116750 0.114224
S6    S     S_3+6 0.652607 0.298503 0.113237 0.103624
S7    S     S_3+6 0.156675 0.204937 0.116749 0.114254
S8    S     S_3+6 0.152578 0.798553 0.113226 0.103659
S9    S     S_3+6 0.258078 0.167784 0.903543 0.096034
S10   S     S_3+6 0.754156 0.325413 0.899362 0.085855
S11   S     S_3+6 0.758110 0.667719 0.903558 0.096032
S12   S     S_3+6 0.604559 0.906569 0.473869 0.027205
S13   S     S_3+6 0.611824 0.095251 0.491985 0.022205
S14   S     S_3+6 0.104559 0.406569 0.473867 0.027197
S15   S     S_3+6 0.111822 0.595251 0.491980 0.022176
S16   S     S_3+6 0.720952 0.561538 0.323086 0.102715
Zn1   Zn    Zn3+2 0.663270 0.706640 0.413250 1.028234
Zn2   Zn    Zn3+2 0.750020 0.206610 0.413240 1.026305
Zn3   Zn    Zn3+2 0.250020 0.293390 0.413240 1.034078
Zn4   Zn    Zn3+2 0.250020 0.706610 0.413240 1.026281
Zn5   Zn    Zn3+2 0.750010 0.793400 0.586760 1.051093
Zn6   Zn    Zn3+2 0.750010 0.206600 0.586760 1.056092
Zn7   Zn    Zn3+2 0.250010 0.293400 0.586760 1.051102
Zn8   Zn    Zn3+2 0.250010 0.706600 0.586760 1.056096
Zn9   Zn    Zn3+2 0.663270 0.293360 0.413250 1.037904
Zn10  Zn    Zn3+2 0.163270 0.206640 0.413250 1.028227
Zn11  Zn    Zn3+2 0.163270 0.793360 0.413250 1.037912
Zn12  Zn    Zn3+2 0.836780 0.706640 0.586750 1.047557
Zn13  Zn    Zn3+2 0.836780 0.293360 0.586750 1.022965
Zn14  Zn    Zn3+2 0.336780 0.206640 0.586750 1.047548
Zn15  Zn    Zn3+2 0.336780 0.793360 0.586750 1.022953
Zn16  Zn    Zn3+2 0.750020 0.793390 0.413240 1.034083

loop_
_geom_bond_atom_site_label_1
_geom_bond_atom_site_label_2
_ccdc_geom_bond_type
C89   C94   A    
C86   O20   A    
C39   C43   A    
H47   O85   S    
C129  C130  A    
C23   C25   A    
C137  O79   A    
C88   O22   A    
C37   O48   A    
O89   S5    D    
C138  C142  A    
C122  C127  A    
C33   O44   A    
O69   S13   S    
C127  C128  A    
C110  S8    S    
O66   S13   D    
O80   S2    D    
O91   S5    D    
C124  S15   S    
O25   Zn13  S    
C75   C80   A    
C38   C58   S    
O1    Zn1   S    
O35   Zn4   S    
C112  H20   S    
C74   C100  A    
C65   C70   A    
C123  H21   S    
C81   C89   A    
C84   C93   A    
C128  H4    S    
C114  C118  A    
C85   C103  S    
O97   S7    D    
C127  H3    S    
C20   C137  S    
O84   S3    D    
O55   S9    S    
C68   C117  S    
O19   Zn1   S    
C2    C69   A    
C100  C105  A    
C31   C70   S    
O38   Zn6   S    
O46   Zn1   S    
O31   Zn4   S    
C5    H6    S    
O86   S4    D    
C7    C15   A    
C21   C22   A    
C13   C52   A    
C62   C66   A    
C130  C138  A    
C52   C56   A    
O15   Zn5   S    
C81   S1    S    
C75   C102  A    
C53   C58   A    
C48   C90   A    
C113  C117  A    
C5    C12   A    
C44   C49   A    
O41   Zn16  S    
O68   Zn10  S    
C142  C143  A    
C73   H28   S    
C40   C46   A    
C19   C136  S    
C42   H13   S    
C87   C105  S    
H41   O69   S    
O62   S11   S    
Br14  C114  S    
C77   H32   S    
O39   Zn7   S    
C36   O47   A    
C107  S5    S    
C142  H45   S    
C38   O40   A    
Br3   C10   S    
H49   O92   S    
C96   C118  A    
C79   C116  S    
C41   C45   A    
C103  C107  A    
O13   Zn6   S    
O28   Zn16  S    
O96   S7    D    
C63   H22   S    
C34   C54   S    
C30   O32   A    
C34   O37   A    
C17   C133  S    
C133  O23   A    
C50   C112  A    
C3    H55   S    
O13   Zn13  S    
O23   Zn12  S    
O100  S8    D    
C97   C119  A    
O24   Zn14  S    
C15   C20   A    
O4    Zn7   S    
C59   C63   A    
C120  C130  A    
C101  H19   S    
Br1   C89   S    
C34   O45   A    
O58   S10   D    
C121  C126  A    
C73   C99   A    
C90   C134  A    
Br10  C92   S    
C131  C132  A    
C28   O4    A    
O79   Zn11  S    
O35   Zn8   S    
C4    C14   A    
C4    H5    S    
O75   S15   S    
C6    C16   A    
C3    C144  A    
C26   C138  S    
C21   S16   S    
H39   O62   S    
C88   C106  S    
C31   O42   A    
C102  C106  A    
C60   H12   S    
O35   Zn15  S    
O76   S16   D    
C61   H23   S    
C33   O36   A    
C80   H35   S    
C35   C134  A    
C122  C132  A    
C1    C119  S    
O60   S11   D    
H44   O78   S    
O24   Zn10  S    
H37   O55   S    
C51   C123  A    
C94   C98   A    
C35   C39   A    
C98   C103  A    
C76   H31   S    
H42   O72   S    
C67   C134  A    
Br8   C49   S    
O40   Zn8   S    
O26   Zn14  S    
C124  C131  A    
C76   C81   A    
C38   O49   A    
C57   O7    A    
C139  C143  A    
C28   C140  S    
O24   Zn7   S    
C140  C144  A    
C29   C141  S    
O29   Zn2   S    
O87   S4    D    
C2    C46   A    
O1    Zn5   S    
H38   O59   S    
C25   S4    S    
O85   S3    S    
C79   O9    A    
C105  C109  A    
O35   Zn11  S    
O99   S8    D    
C135  O25   A    
C107  C111  A    
C15   C16   A    
C144  H54   S    
O65   S12   S    
O93   S6    D    
O1    Zn12  S    
Br6   C51   S    
C137  O27   A    
C6    C10   A    
O54   S9    D    
H36   O52   S    
C27   O2    A    
C41   C52   A    
O45   Zn1   S    
C96   C100  A    
Br4   C11   S    
C30   C71   S    
C5    C9    A    
C40   H10   S    
O33   Zn13  S    
O63   S12   D    
C60   C64   A    
O24   Zn3   S    
Br5   C50   S    
H51   O98   S    
Br9   C91   S    
C132  C140  A    
C59   H1    S    
C29   O5    A    
O36   Zn15  S    
C27   O29   A    
C80   C84   A    
C46   C55   A    
C64   H24   S    
C73   C77   A    
C31   O33   A    
Br15  C115  S    
C57   C118  S    
C54   C59   A    
C49   C101  A    
O59   S10   S    
C90   H18   S    
C136  O68   A    
C143  H53   S    
C43   H14   S    
O43   Zn3   S    
O83   S3    D    
O78   S16   S    
C10   C11   A    
C66   H26   S    
O57   Zn9   S    
C121  C129  A    
O44   Zn4   S    
O72   S14   S    
C55   C60   A    
O70   S14   D    
C84   S11   S    
H43   O75   S    
C62   H34   S    
C36   O38   A    
C72   H27   S    
C94   C116  A    
C79   O18   A    
O16   Zn6   S    
O32   Zn12  S    
C23   S3    S    
O6    Zn12  S    
C28   O30   A    
O74   S15   D    
C12   C18   A    
O3    S8    S    
C20   C25   A    
C45   H16   S    
C91   C95   A    
C27   C139  S    
C125  H56   S    
C74   C78   A    
O21   Zn10  S    
C68   O8    A    
O37   Zn5   S    
O71   S14   D    
C87   O12   A    
C17   C21   A    
C82   C91   A    
C92   C96   A    
C85   O10   A    
C19   C23   A    
C64   C69   A    
O42   Zn2   S    
C88   O14   A    
C61   C65   A    
C135  O57   A    
C2    C101  A    
C6    H7    S    
O61   S11   D    
C120  S12   S    
O50   S1    D    
C133  O46   A    
C86   C104  S    
C108  S6    S    
H40   O65   S    
C124  C128  A    
C126  H2    S    
C42   C53   A    
O94   S6    D    
H52   O3    S    
O17   Zn7   S    
C33   C67   S    
O30   Zn3   S    
C36   C55   S    
O1    Zn16  S    
C63   C67   A    
O27   Zn15  S    
O53   S9    D    
C108  C113  A    
O22   Zn11  S    
Br2   C9    S    
O48   Zn10  S    
C72   C98   A    
O13   Zn2   S    
O11   Zn2   S    
C7    H8    S    
C40   C44   A    
O98   S7    S    
C58   C62   A    
O2    Zn6   S    
C44   H15   S    
C37   O39   A    
O67   S13   D    
C37   C56   S    
H50   O95   S    
C39   H9    S    
O92   S5    S    
O90   Zn5   S    
C32   O43   A    
Br11  C93   S    
C78   H33   S    
C29   O31   A    
C1    O15   A    
Br12  C111  S    
C122  S14   S    
C43   C48   A    
C120  C125  A    
C26   O90   A    
C110  C115  A    
C24   C71   A    
C115  C119  A    
O88   S4    S    
C24   C123  A    
C111  C116  A    
C1    O6    A    
C45   C50   A    
O73   S15   D    
C4    C8    A    
C85   O19   A    
O9    Zn15  S    
C35   C54   A    
C7    C11   A    
O82   S2    S    
C93   C97   A    
C30   O41   A    
Br16  C8    S    
O81   S2    D    
C109  C114  A    
C65   H25   S    
O7    Zn13  S    
O12   Zn3   S    
C75   H30   S    
C47   C51   A    
C24   C53   A    
C109  S7    S    
C3    C141  A    
C16   C19   A    
C72   C76   A    
O56   S10   D    
C8    C9    A    
H48   O88   S    
O13   Zn9   S    
C95   C117  A    
C82   S9    S    
O14   Zn4   S    
C22   S2    S    
C106  C110  A    
C136  O26   A    
C56   C61   A    
O10   Zn16  S    
C87   O21   A    
O18   Zn8   S    
O5    Zn8   S    
C66   C71   A    
C13   C70   A    
C121  S13   S    
C83   S10   S    
O77   S16   D    
C83   C92   A    
C131  C141  A    
H46   O82   S    
O95   S6    S    
O64   S12   D    
C42   C47   A    
Br13  C113  S    
O34   Zn14  S    
C14   C17   A    
C18   C22   A    
O51   S1    D    
C18   C135  S    
O20   Zn9   S    
C47   H17   S    
C12   C14   A    
C68   O17   A    
C125  C126  A    
O49   Zn11  S    
O52   S1    S    
O47   Zn9   S    
C78   C83   A    
O8    Zn14  S    
C26   O28   A    
C86   O11   A    
C32   O34   A    
Br7   C48   S    
C97   C102  A    
C129  C139  A    
C99   C104  A    
C13   C112  A    
C32   C69   S    
C95   C99   A    
C77   C82   A    
C57   O16   A    
C104  C108  A    
C41   H11   S    
C74   H29   S    
