data_mof_unit_25913.cif
_audit_creation_date              2013-03-05T15:55:23-0500
_audit_creation_method            fapswitch 2.2
_symmetry_space_group_name_H-M    P1
_symmetry_Int_Tables_number       1
_space_group_crystal_system       triclinic
_cell_length_a                    27.739345
_cell_length_b                    10.716172
_cell_length_c                    9.873021
_cell_angle_alpha                 88.794468
_cell_angle_beta                  89.944138
_cell_angle_gamma                 91.841387
_cell_volume                      2932.68139329

loop_
_atom_site_label
_atom_site_type_symbol
_atom_site_description
_atom_site_fract_x
_atom_site_fract_y
_atom_site_fract_z
_atom_type_partial_charge
O1    O     O_R   0.500000 0.316780 0.614690 -0.655802
O2    O     O_R   0.500000 0.316750 0.385360 -0.643399
C1    C     C_R   0.502464 0.259598 0.502529 0.875539
O3    O     O_R   0.428760 0.500030 0.614650 -0.641982
O4    O     O_R   0.428750 0.500010 0.385320 -0.626069
C2    C     C_R   0.406057 0.499369 0.500094 0.858950
Zn1   Zn    Zn3+2 0.500000 0.500020 0.653130 0.941931
Zn2   Zn    Zn3+2 0.500000 0.499980 0.346870 0.965107
O5    O     O_R   0.500000 0.683250 0.614640 -0.621899
O6    O     O_R   0.500000 0.683220 0.385310 -0.602621
O7    O     O_R   0.571250 0.499990 0.614680 -0.623767
O8    O     O_R   0.571240 0.499970 0.385350 -0.624768
C3    C     C_R   0.495038 0.738734 0.499053 0.890225
C4    C     C_R   0.593959 0.500207 0.499945 0.878731
C5    C     C_R   0.176350 0.383673 0.492335 0.505589
O9    O     O_2   0.199949 0.275857 0.484036 -0.547700
N1    N     N_R   0.201736 0.494363 0.501515 -0.359561
C6    C     C_R   0.179392 0.605492 0.510620 0.510889
C7    C     C_R   0.278118 0.506008 0.623207 -0.095840
C8    C     C_R   0.328200 0.507423 0.623031 -0.207792
C9    C     C_R   0.327885 0.485172 0.378435 -0.193473
C10   C     C_R   0.277795 0.483324 0.379103 -0.094622
C11   C     C_R   0.253019 0.494088 0.501336 0.315469
C12   C     C_R   0.101868 0.495320 0.501289 -0.051404
C13   C     C_R   0.125908 0.382005 0.491947 -0.021182
C14   C     C_R   0.099289 0.269817 0.483544 -0.134424
C15   C     C_R   0.129024 0.608123 0.510799 -0.024844
C16   C     C_R   0.353411 0.497466 0.500476 -0.046357
H1    H     H_    0.346517 0.476823 0.282747 0.176437
H2    H     H_    0.258163 0.474206 0.284887 0.142641
H3    H     H_    0.116991 0.181331 0.478715 0.190312
C17   C     C_R   0.646633 0.500020 0.499818 -0.042699
C18   C     C_R   0.973014 0.383331 0.479449 0.045983
C19   C     C_R   0.976141 0.609997 0.521858 0.046707
C20   C     C_R   0.949357 0.496942 0.500489 0.071089
C21   C     C_R   0.944646 0.275060 0.450519 -0.215254
C22   C     C_R   0.894717 0.277193 0.448384 -0.134463
C23   C     C_R   0.871166 0.387241 0.474295 -0.022267
C24   C     C_R   0.898289 0.497511 0.500159 -0.051487
C25   C     C_R   0.874216 0.608353 0.525707 -0.021226
C26   C     C_R   0.823783 0.606784 0.525104 0.504486
N2    N     N_R   0.798381 0.498613 0.499639 -0.358374
C27   C     C_R   0.820789 0.389924 0.474361 0.505095
C28   C     C_R   0.722007 0.492647 0.377167 -0.100037
C29   C     C_R   0.671937 0.493226 0.377031 -0.215100
C30   C     C_R   0.672086 0.506476 0.622519 -0.213624
C31   C     C_R   0.722155 0.506150 0.622237 -0.099937
C32   C     C_R   0.747055 0.499134 0.499672 0.320611
O10   O     O_2   0.794301 0.284828 0.450363 -0.550925
C33   C     C_R   0.023998 0.381713 0.486799 0.046888
C34   C     C_R   0.050800 0.495847 0.501070 0.071245
C35   C     C_R   0.027163 0.610516 0.515083 0.046263
C36   C     C_R   0.049318 0.269346 0.481425 -0.214448
H4    H     H_    0.653140 0.488119 0.281112 0.161119
H5    H     H_    0.741425 0.487431 0.282348 0.139573
H6    H     H_    0.874616 0.191716 0.426094 0.192900
H7    H     H_    0.959836 0.187125 0.426028 0.141638
H8    H     H_    0.031657 0.178515 0.478385 0.138543
O11   O     O_2   0.205941 0.712870 0.518961 -0.539309
C37   C     C_R   0.105528 0.720822 0.519025 -0.131370
H9    H     H_    0.347083 0.516853 0.718441 0.182808
H10   H     H_    0.258736 0.514290 0.717693 0.144038
H11   H     H_    0.125677 0.808927 0.523987 0.193065
C38   C     C_R   0.950759 0.718856 0.550486 -0.215537
C39   C     C_R   0.900787 0.717839 0.551960 -0.136737
O12   O     O_2   0.800207 0.712432 0.548845 -0.551740
C40   C     C_R   0.055591 0.722324 0.520712 -0.213781
H12   H     H_    0.968352 0.806419 0.575250 0.140879
H13   H     H_    0.653409 0.511921 0.718497 0.160356
H14   H     H_    0.883044 0.803730 0.574040 0.190956
H15   H     H_    0.741684 0.511018 0.717004 0.139473
H16   H     H_    0.040469 0.813502 0.523572 0.139053
H17   H     H_    0.515272 0.115822 0.291393 0.175934
C41   C     C_R   0.500287 0.103292 0.763811 -0.234531
H18   H     H_    0.520952 0.187722 0.784089 0.191973
C42   C     C_R   0.481849 0.037591 0.876873 -0.244534
H19   H     H_    0.486493 0.077329 0.976146 0.185110
C43   C     C_R   0.457003 0.923296 0.861518 0.354105
C44   C     C_R   0.455527 0.870724 0.732792 -0.227033
H20   H     H_    0.436312 0.782212 0.720568 0.197475
C45   C     C_R   0.478615 0.931692 0.620453 0.040893
C46   C     C_R   0.494334 0.056015 0.631514 0.106956
C47   C     C_R   0.503700 0.125383 0.509008 -0.114412
C48   C     C_R   0.507169 0.065161 0.385280 -0.206534
H21   H     H_    0.508357 0.892771 0.286195 0.195339
C49   C     C_R   0.501478 0.938193 0.381006 -0.141816
C50   C     C_R   0.488571 0.870865 0.498466 -0.106508
H22   H     H_    0.554864 0.638877 0.122418 0.138191
C51   C     C_R   0.435518 0.338483 0.143905 -0.177335
H23   H     H_    0.433601 0.331347 0.251341 0.206961
C52   C     C_R   0.403372 0.260417 0.075047 -0.166650
H24   H     H_    0.378620 0.198402 0.130968 0.182779
C53   C     C_R   0.403261 0.261120 0.934892 -0.172272
H25   H     H_    0.378605 0.199213 0.881462 0.172999
C54   C     C_R   0.435510 0.339313 0.862896 -0.175864
H26   H     H_    0.434371 0.331563 0.755701 0.211522
C55   C     C_R   0.468179 0.420693 0.929324 0.172553
C56   C     C_R   0.468195 0.420537 0.074160 0.188861
N3    N     N_R   0.499540 0.498800 0.142780 -0.118122
C57   C     C_R   0.530222 0.576479 0.069791 -0.081765
H27   H     H_    0.554856 0.638790 0.870753 0.144873
C58   C     C_R   0.530220 0.576411 0.926404 -0.090140
N4    N     N_R   0.499520 0.498720 0.857170 -0.123663
N5    N     N_R   0.435169 0.858705 0.976494 0.205154
O13   O     O_R   0.433180 0.912282 0.093364 -0.416900
O14   O     O_R   0.416756 0.746130 0.965271 -0.402369

loop_
_geom_bond_atom_site_label_1
_geom_bond_atom_site_label_2
_geom_bond_distance
_ccdc_geom_bond_type
C53   H25   1.082780 S    
C17   C29   1.404628 A    
C20   C24   1.416817 A    
C54   H26   1.063753 S    
C12   C15   1.408524 A    
N5    O14   1.301781 A    
C55   C56   1.429932 A    
H21   C49   1.083676 S    
Zn1   O7    2.012203 S    
N1    C11   1.422646 S    
C41   C42   1.395005 A    
C37   H11   1.083658 S    
C38   H12   1.076512 S    
C21   C22   1.386094 A    
Zn2   N3    2.015341 S    
C48   C49   1.366228 A    
C40   H16   1.076540 S    
C15   C37   1.394474 A    
C23   C24   1.408381 A    
O7    C4    1.295533 A    
C5    C13   1.398778 A    
C7    H10   1.082939 S    
C39   H14   1.083646 S    
C18   C21   1.415157 A    
C5    N1    1.364571 A    
C19   C20   1.420378 A    
C26   N2    1.365102 A    
C8    H9    1.083262 S    
O5    C3    1.285221 A    
C30   H13   1.083081 S    
C22   H6    1.083638 S    
C2    C16   1.459875 S    
C31   C32   1.397334 A    
C37   C40   1.385893 A    
C51   C52   1.390800 A    
H17   C48   1.084007 S    
C12   C34   1.416773 A    
C14   H3    1.083663 S    
C53   C54   1.390394 A    
Zn1   N4    2.014273 S    
C9    C10   1.388998 A    
C41   C46   1.418770 A    
O3    Zn1   2.012708 S    
C57   C58   1.415680 A    
N5    O13   1.301491 A    
C45   C46   1.394942 A    
C33   C36   1.415290 A    
C41   H18   1.077867 S    
C42   C43   1.397104 A    
C43   N5    1.439850 S    
C34   C35   1.420492 A    
H27   C58   1.081743 S    
C12   C13   1.408687 A    
O3    C2    1.295093 A    
C21   H7    1.076520 S    
C52   H24   1.082762 S    
C44   C45   1.417180 A    
C43   C44   1.401082 A    
C27   O10   1.350104 S    
N2    C32   1.423957 S    
C8    C16   1.404668 A    
C33   C34   1.420411 A    
C18   C33   1.416843 A    
C9    H1    1.083146 S    
O1    C1    1.279652 A    
C7    C11   1.396854 A    
C22   C23   1.394578 A    
C52   C53   1.383624 A    
C47   C48   1.398171 A    
Zn2   O8    2.012705 S    
C3    C50   1.432853 S    
C19   C38   1.415176 A    
N1    C6    1.364658 A    
C55   N4    1.374566 A    
C42   H19   1.082989 S    
C31   H15   1.082966 S    
H22   C57   1.081770 S    
C35   C40   1.415173 A    
C25   C26   1.398551 A    
C9    C16   1.404583 A    
O8    C4    1.295628 A    
C29   H4    1.083064 S    
C56   N3    1.377151 A    
C25   C39   1.394495 A    
C1    C47   1.439861 S    
N2    C27   1.365162 A    
C14   C36   1.386181 A    
C24   C25   1.408429 A    
C28   C29   1.389116 A    
C49   C50   1.393202 A    
Zn1   O5    1.992095 S    
C30   C31   1.389018 A    
C10   H2    1.082940 S    
O1    Zn1   2.007795 S    
C17   C30   1.404599 A    
O2    Zn2   1.992093 S    
C6    C15   1.398344 A    
C4    C17   1.461202 S    
O6    C3    1.291134 A    
O4    Zn2   2.012206 S    
C36   H8    1.076553 S    
C54   C55   1.409375 A    
C26   O12   1.350123 S    
C19   C35   1.416661 A    
N3    C57   1.365521 A    
C51   C56   1.411066 A    
C38   C39   1.385951 A    
C7    C8    1.388839 A    
O2    C1    1.300392 A    
C13   C14   1.394536 A    
C23   C27   1.398666 A    
C45   C50   1.412672 A    
C28   H5    1.082962 S    
O4    C2    1.295518 A    
C18   C20   1.420471 A    
C58   N4    1.365704 A    
C44   H20   1.082038 S    
C28   C32   1.397329 A    
C6    O11   1.350132 S    
Zn2   O6    2.007795 S    
C46   C47   1.425532 A    
C10   C11   1.396911 A    
C51   H23   1.063019 S    
C5    O9    1.350042 S    
