data_mof_unit_10997.cif
_audit_creation_date              2013-03-05T16:01:06-0500
_audit_creation_method            fapswitch 2.2
_symmetry_space_group_name_H-M    P1
_symmetry_Int_Tables_number       1
_space_group_crystal_system       triclinic
_cell_length_a                    14.79091
_cell_length_b                    14.809612
_cell_length_c                    15.829685
_cell_angle_alpha                 75.235095
_cell_angle_beta                  102.143579
_cell_angle_gamma                 115.269625
_cell_volume                      3011.58688028

loop_
_atom_site_label
_atom_site_type_symbol
_atom_site_description
_atom_site_fract_x
_atom_site_fract_y
_atom_site_fract_z
_atom_type_partial_charge
O1    O     O_R   0.977900 0.338120 0.529810 -0.614879
O2    O     O_R   0.022100 0.661880 0.470190 -0.611676
O3    O     O_R   0.839850 0.379180 0.491620 -0.486001
O4    O     O_R   0.160150 0.620820 0.508380 -0.484528
C1    C     C_R   0.880295 0.312525 0.512997 0.868032
C2    C     C_R   0.119429 0.687460 0.487825 0.867724
O5    O     O_R   0.069010 0.479460 0.640020 -0.577487
O6    O     O_R   0.930990 0.520540 0.359980 -0.588636
O7    O     O_R   0.930960 0.520530 0.601820 -0.518211
O8    O     O_R   0.069040 0.479470 0.398180 -0.514449
C3    C     C_R   0.999623 0.499938 0.659708 0.823149
C4    C     C_R   0.000234 0.499841 0.340314 0.828238
Cu1   Cu    Cu3+1 0.081740 0.475690 0.522610 1.062407
Cu2   Cu    Cu3+1 0.918260 0.524310 0.477390 1.058379
C5    C     C_3   0.044594 0.439875 0.049370 0.277373
C6    C     C_3   0.953838 0.557618 0.950904 0.274230
C7    C     C_3   0.950350 0.405290 0.983396 0.410794
C8    C     C_3   0.048047 0.592078 0.016874 0.416669
H1    H     H_    0.822694 0.432057 0.032543 0.197161
H2    H     H_    0.175575 0.565485 0.967530 0.200204
C9    C     C_1   0.999475 0.500606 0.749010 -0.066592
C10   C     C_1   0.999839 0.498306 0.251112 -0.069476
C11   C     C_3   0.096841 0.536047 0.982407 -0.396743
C12   C     C_3   0.901531 0.461386 0.017909 -0.420682
C13   C     C_3   0.000535 0.501184 0.916065 -0.080161
C14   C     C_3   0.997896 0.496241 0.084233 -0.081416
C15   C     C_1   0.999935 0.501056 0.824469 0.132052
C16   C     C_1   0.998894 0.497039 0.175754 0.128481
C17   C     C_R   0.810767 0.204885 0.526160 -0.186534
C18   C     C_R   0.187069 0.795669 0.477743 -0.195915
C19   C     C_R   0.768567 0.040708 0.623218 0.373529
C20   C     C_R   0.223541 0.964414 0.389221 0.368371
C21   C     C_R   0.840363 0.134139 0.588463 -0.314444
C22   C     C_R   0.154364 0.867302 0.419948 -0.316727
C23   C     C_R   0.710234 0.175890 0.485924 0.307717
C24   C     C_R   0.287278 0.826530 0.518581 0.287643
C25   C     C_R   0.636421 0.079816 0.518573 -0.100151
C26   C     C_R   0.357800 0.926192 0.490132 -0.105184
C27   C     C_R   0.664977 0.020440 0.597019 -0.127798
C28   C     C_R   0.327554 0.987403 0.414515 -0.121440
C29   C     C_R   0.533829 0.044083 0.480234 0.038145
C30   C     C_R   0.459680 0.963449 0.528995 0.042929
C31   C     C_R   0.488557 0.925324 0.616363 -0.186553
C32   C     C_R   0.503237 0.082913 0.393361 -0.195478
C33   C     C_R   0.589294 0.948040 0.649356 0.344780
C34   C     C_R   0.402180 0.062588 0.362707 0.332858
H3    H     H_    0.075459 0.845966 0.394863 0.205239
H4    H     H_    0.919032 0.153891 0.613921 0.194715
H5    H     H_    0.432836 0.879172 0.661104 0.203193
H6    H     H_    0.556873 0.126972 0.346630 0.206993
N1    N     N_R   0.795440 0.560790 0.443380 -0.242093
N2    N     N_R   0.204560 0.439210 0.556620 -0.247205
C35   C     C_R   0.718383 0.667018 0.344926 0.402687
C36   C     C_R   0.281377 0.329125 0.647448 0.373351
C37   C     C_R   0.796367 0.632256 0.370458 -0.102688
C38   C     C_R   0.205605 0.366606 0.628394 -0.082909
C39   C     C_R   0.717131 0.517484 0.493763 0.535342
C40   C     C_R   0.281385 0.483119 0.503955 0.528130
C41   C     C_R   0.629048 0.538490 0.464417 -0.193562
C42   C     C_R   0.370154 0.462658 0.530106 -0.177877
C43   C     C_R   0.634930 0.622226 0.394625 -0.050595
C44   C     C_R   0.364768 0.377137 0.598006 -0.061616
C45   C     C_R   0.537798 0.482062 0.505075 0.066535
C46   C     C_R   0.461033 0.519624 0.487624 0.084220
C47   C     C_R   0.478729 0.613984 0.430075 -0.226031
C48   C     C_R   0.518815 0.385944 0.558876 -0.193742
C49   C     C_R   0.560302 0.662288 0.378913 0.499761
C50   C     C_R   0.439486 0.338003 0.610916 0.471015
H7    H     H_    0.143522 0.332718 0.667724 0.162610
H8    H     H_    0.861829 0.667183 0.335311 0.152770
H9    H     H_    0.429052 0.650725 0.424713 0.198912
H10   H     H_    0.564097 0.344998 0.560099 0.209631
O9    O     O_3   0.904546 0.307809 0.961045 -0.575170
C51   C     C_3   0.843771 0.238197 0.026130 0.073346
H11   H     H_    0.773808 0.251501 0.019554 0.146910
H12   H     H_    0.883933 0.245216 0.093698 0.170627
C52   C     C_3   0.815354 0.130174 0.013013 -0.282527
H13   H     H_    0.778558 0.122460 0.944927 0.244248
H14   H     H_    0.884673 0.115215 0.022244 0.256088
C53   C     C_3   0.743782 0.051300 0.077894 -0.881229
H15   H     H_    0.780067 0.055558 0.146560 0.270563
H16   H     H_    0.724096 0.973991 0.066003 0.269906
H17   H     H_    0.673389 0.064129 0.069153 0.256420
O10   O     O_3   0.095088 0.689291 0.039776 -0.582907
C54   C     C_3   0.148285 0.762580 0.971370 0.105455
H18   H     H_    0.127753 0.829055 0.959731 0.189844
H19   H     H_    0.129374 0.736628 0.907146 0.134813
C55   C     C_3   0.261528 0.796929 0.000180 -0.353426
H20   H     H_    0.280104 0.826169 0.062425 0.241660
H21   H     H_    0.283202 0.731123 0.012627 0.231912
C56   C     C_3   0.322286 0.880313 0.930347 -0.876627
H22   H     H_    0.305464 0.852733 0.867509 0.268089
H23   H     H_    0.403930 0.902611 0.952912 0.271907
H24   H     H_    0.304248 0.948252 0.919114 0.255110
N3    N     N_R   0.262208 0.529100 0.414446 0.108528
O11   O     O_R   0.255738 0.617030 0.395176 -0.387988
O12   O     O_R   0.262176 0.487779 0.351060 -0.321243
N4    N     N_R   0.733390 0.470691 0.583706 0.108610
O13   O     O_R   0.731376 0.511740 0.646469 -0.335135
O14   O     O_R   0.739762 0.382694 0.603675 -0.387749
O15   O     O_3   0.729338 0.752190 0.279041 -0.552848
C57   C     C_3   0.745197 0.738762 0.198618 0.074582
H25   H     H_    0.684419 0.749550 0.147731 0.194119
H26   H     H_    0.741236 0.661506 0.199506 0.134844
C58   C     C_3   0.846473 0.819917 0.171393 -0.395976
H27   H     H_    0.846894 0.896600 0.164893 0.255278
H28   H     H_    0.908275 0.812942 0.222807 0.235011
C59   C     C_3   0.866219 0.809793 0.084146 -0.730987
H29   H     H_    0.868928 0.734595 0.090049 0.275461
H30   H     H_    0.939684 0.870133 0.066020 0.274578
H31   H     H_    0.806176 0.818115 0.031189 0.276762
O16   O     O_3   0.276021 0.249136 0.717110 -0.565996
C60   C     C_3   0.202688 0.158002 0.691830 0.119911
H32   H     H_    0.213928 0.150458 0.626757 0.164572
H33   H     H_    0.125749 0.155803 0.688048 0.137843
C61   C     C_3   0.211637 0.067655 0.760439 -0.331430
H34   H     H_    0.289373 0.071136 0.767273 0.239104
H35   H     H_    0.196797 0.071528 0.825152 0.238454
C62   C     C_3   0.137341 0.966795 0.734384 -0.824602
H36   H     H_    0.058874 0.961062 0.727567 0.305926
H37   H     H_    0.144976 0.902901 0.785869 0.248703
H38   H     H_    0.152992 0.960029 0.671113 0.257888
N5    N     N_R   0.092915 0.373026 0.102388 0.151305
O17   O     O_R   0.127685 0.328593 0.064019 -0.269868
O18   O     O_R   0.101235 0.356971 0.187795 -0.289787
N6    N     N_R   0.905838 0.624699 0.897744 0.148543
O19   O     O_R   0.870277 0.668562 0.935943 -0.313842
O20   O     O_R   0.898793 0.641718 0.812363 -0.301185
N7    N     N_R   0.612126 0.905928 0.739682 0.157622
O21   O     O_R   0.677400 0.964418 0.792347 -0.358671
O22   O     O_R   0.556323 0.813038 0.772825 -0.275599
N8    N     N_R   0.377887 0.107908 0.273855 0.157313
O23   O     O_R   0.433402 0.201682 0.242714 -0.264470
O24   O     O_R   0.311638 0.051779 0.219936 -0.332328
N9    N     N_R   0.319496 0.752427 0.579055 0.127879
O25   O     O_R   0.385868 0.727501 0.559337 -0.345566
O26   O     O_R   0.277645 0.705018 0.651111 -0.359977
N10   N     N_R   0.682212 0.249780 0.420681 0.121898
O27   O     O_R   0.725470 0.290278 0.348784 -0.369708
O28   O     O_R   0.620431 0.283342 0.436613 -0.343140
N11   N     N_R   0.801947 0.966425 0.682048 0.169934
O29   O     O_R   0.755688 0.871004 0.675612 -0.270536
O30   O     O_R   0.886303 0.995095 0.733364 -0.347281
N12   N     N_R   0.187238 0.039065 0.335371 0.175419
O31   O     O_R   0.101268 0.011056 0.286109 -0.324759
O32   O     O_R   0.232867 0.133594 0.344725 -0.270634
O33   O     O_3   0.566838 0.743559 0.308792 -0.561622
C63   C     C_3   0.526601 0.810743 0.318880 0.066730
H39   H     H_    0.579076 0.889252 0.293942 0.177058
H40   H     H_    0.522778 0.810251 0.388519 0.144602
C64   C     C_3   0.425314 0.791196 0.261455 -0.355399
H41   H     H_    0.437885 0.811612 0.191026 0.222723
H42   H     H_    0.375390 0.709388 0.274881 0.280582
C65   C     C_3   0.373417 0.853619 0.277433 -0.793369
H43   H     H_    0.358434 0.832891 0.347093 0.272037
H44   H     H_    0.300650 0.838423 0.234604 0.277341
H45   H     H_    0.421889 0.935725 0.261788 0.257019
O34   O     O_3   0.427504 0.244887 0.665376 -0.594459
C66   C     C_3   0.510521 0.253856 0.731460 0.082282
H46   H     H_    0.481512 0.228707 0.796438 0.181339
H47   H     H_    0.568577 0.333038 0.730456 0.180639
C67   C     C_3   0.559600 0.183931 0.724590 -0.358665
H48   H     H_    0.504674 0.103571 0.736382 0.223639
H49   H     H_    0.581582 0.201780 0.657481 0.253817
C68   C     C_3   0.652945 0.196070 0.791441 -0.790642
H50   H     H_    0.708259 0.276292 0.781961 0.290897
H51   H     H_    0.689277 0.147868 0.782547 0.283099
H52   H     H_    0.631815 0.172560 0.859406 0.240068

loop_
_geom_bond_atom_site_label_1
_geom_bond_atom_site_label_2
_geom_bond_distance
_ccdc_geom_bond_type
C48   C50   1.398848 A    
C24   N9    1.437679 S    
C33   N7    1.438589 S    
C68   H50   1.110975 S    
C17   C21   1.394719 A    
O9    C51   1.410465 S    
C35   C37   1.401298 A    
N3    O11   1.299852 A    
C8    C14   1.537581 S    
C63   C64   1.531475 S    
C40   N3    1.433803 S    
N9    O25   1.301731 A    
C54   H18   1.111120 S    
C61   H34   1.111891 S    
O5    C3    1.300333 A    
C58   H28   1.110589 S    
O15   C57   1.417664 S    
C5    N5    1.457225 S    
O1    C1    1.311963 A    
C23   C25   1.421196 A    
C63   H40   1.113660 S    
C26   C30   1.423644 A    
N11   O30   1.301539 A    
C23   N10   1.437689 S    
C34   N8    1.438724 S    
C39   C41   1.423954 A    
C59   H30   1.110435 S    
C40   C42   1.426247 A    
C67   C68   1.526032 S    
C4    C10   1.416753 S    
C59   H29   1.110887 S    
C57   C58   1.531230 S    
C42   C44   1.421870 A    
C29   C30   1.411666 A    
C64   C65   1.521350 S    
O4    Cu1   1.936580 S    
C60   H32   1.117033 S    
C35   C43   1.423391 A    
C48   H10   1.073305 S    
O33   C63   1.412862 S    
C35   O15   1.389639 S    
N8    O23   1.301414 A    
C47   C49   1.415022 A    
C51   C52   1.528921 S    
C8    O10   1.411708 S    
C64   H41   1.111900 S    
C66   H47   1.117710 S    
N1    C39   1.372124 A    
C65   H44   1.110262 S    
C27   C33   1.414859 A    
C60   C61   1.528830 S    
C5    C11   1.544276 S    
C9    C15   1.194785 T    
C45   C48   1.404229 A    
C6    C12   1.545338 S    
C10   C16   1.194856 T    
Cu1   Cu2   2.715363 S    
C7    O9    1.411660 S    
C66   H46   1.111195 S    
O2    C2    1.308841 A    
C53   H17   1.110926 S    
C50   O34   1.387787 S    
O16   C60   1.414591 S    
C32   C34   1.394792 A    
C42   C46   1.446973 A    
C67   H49   1.110370 S    
C62   H37   1.109860 S    
N2    C40   1.378571 A    
C58   C59   1.525710 S    
C36   C38   1.399539 A    
C41   C43   1.419851 A    
C7    C12   1.555479 S    
C51   H11   1.113008 S    
C18   C22   1.397735 A    
C54   H19   1.116816 S    
C8    C11   1.553978 S    
C61   C62   1.526683 S    
N5    O17   1.300171 A    
O10   C54   1.414207 S    
C65   H45   1.109422 S    
N12   O32   1.301619 A    
C56   H22   1.111010 S    
C31   H5    1.079773 S    
C5    C14   1.538144 S    
C36   C44   1.418870 A    
C52   H13   1.110751 S    
C3    C9    1.416644 S    
C20   C22   1.395840 A    
C19   N11   1.438506 S    
C28   C34   1.413091 A    
O7    Cu2   1.927485 S    
C66   C67   1.530889 S    
C56   H23   1.110451 S    
Cu1   N2    2.039609 S    
O7    C3    1.301748 A    
C43   C49   1.414456 A    
Cu2   N1    2.039610 S    
H2    C11   1.109636 S    
O6    C4    1.300256 A    
C19   C21   1.395788 A    
C52   H14   1.111768 S    
C36   O16   1.384334 S    
C6    C8    1.531325 S    
C63   H39   1.111121 S    
C57   H26   1.116949 S    
C31   C33   1.392913 A    
C65   H43   1.109718 S    
O3    Cu2   1.936578 S    
O8    C4    1.301869 A    
N8    O24   1.301533 A    
C53   H16   1.110501 S    
C2    C18   1.470558 S    
C55   H21   1.110703 S    
N4    O13   1.301271 A    
C68   H52   1.110855 S    
N4    O14   1.299816 A    
C49   O33   1.398191 S    
O34   C66   1.418040 S    
C29   C32   1.408484 A    
O6    Cu2   1.924037 S    
O4    C2    1.305368 A    
O1    Cu1   1.951032 S    
C30   C31   1.404749 A    
C51   H12   1.115479 S    
C1    C17   1.470855 S    
C20   C28   1.416406 A    
C67   H48   1.111887 S    
C54   C55   1.530261 S    
C32   H6    1.077612 S    
C6    C13   1.538743 S    
N9    O26   1.301898 A    
N6    O20   1.300234 A    
C14   C16   1.448727 S    
C12   C14   1.555242 S    
C53   H15   1.110904 S    
O3    C1    1.302126 A    
O8    Cu1   1.927485 S    
C62   H36   1.110717 S    
N3    O12   1.301445 A    
C5    C7    1.531907 S    
N10   O28   1.301663 A    
C44   C50   1.410830 A    
C13   C15   1.448575 S    
C58   H27   1.111300 S    
C17   C23   1.413144 A    
C41   C45   1.436160 A    
C59   H31   1.110949 S    
C18   C24   1.411656 A    
N12   O31   1.301707 A    
C7    C13   1.537902 S    
C46   C47   1.410807 A    
C24   C26   1.419054 A    
H1    C12   1.109953 S    
N7    O21   1.301120 A    
C25   C27   1.425999 A    
C47   H9    1.065226 S    
N11   O29   1.301560 A    
C56   H24   1.110490 S    
C26   C28   1.422160 A    
C52   C53   1.526472 S    
C55   C56   1.526189 S    
N6    O19   1.300006 A    
C39   N4    1.435438 S    
C62   H38   1.111421 S    
C61   H35   1.111815 S    
N1    C37   1.350699 A    
C64   H42   1.108720 S    
C25   C29   1.428867 A    
C57   H25   1.111254 S    
O2    Cu2   1.951031 S    
C20   N12   1.439123 S    
C37   H8    1.080251 S    
N5    O18   1.300234 A    
N10   O27   1.301989 A    
C45   C46   1.415606 A    
O5    Cu1   1.924038 S    
C11   C13   1.554858 S    
C55   H20   1.111692 S    
C68   H51   1.108487 S    
C38   H7    1.081902 S    
C19   C27   1.418863 A    
C21   H4    1.083573 S    
C22   H3    1.083378 S    
C60   H33   1.113732 S    
C6    N6    1.457336 S    
N2    C38   1.353283 A    
N7    O22   1.301491 A    
