data_mof_unit_24474.cif
_audit_creation_date              2012-10-26T19:07:32-0400
_audit_creation_method            fapswitch 2.2
_symmetry_space_group_name_H-M    P1
_symmetry_Int_Tables_number       1
_space_group_crystal_system       triclinic
_cell_length_a                    15.074013
_cell_length_b                    13.843195
_cell_length_c                    10.661471
_cell_angle_alpha                 90.523966
_cell_angle_beta                  87.878259
_cell_angle_gamma                 89.896178
_cell_volume                      2223.1324559

loop_
_atom_site_label
_atom_site_type_symbol
_atom_type_description
_atom_site_fract_x
_atom_site_fract_y
_atom_site_fract_z
_atom_type_partial_charge
C1    C     C_R   0.328719 0.500087 0.500185 0.548598
C2    C     C_R   0.954137 0.674706 0.472637 -0.133780
C3    C     C_R   0.444739 0.793297 0.584079 0.227016
C4    C     C_R   0.557368 0.203610 0.421032 0.223627
C5    C     C_R   0.552626 0.794876 0.414746 0.220504
C6    C     C_R   0.443109 0.207984 0.581865 0.229916
C7    C     C_R   0.555195 0.896767 0.418263 0.022396
C8    C     C_R   0.442018 0.104458 0.585623 -0.016748
C9    C     C_R   0.442874 0.896854 0.586823 -0.017058
C10   C     C_R   0.556088 0.101656 0.419498 0.023841
C11   C     C_R   0.499282 0.948302 0.503414 0.010561
C12   C     C_R   0.671278 0.499977 0.500532 0.531594
C13   C     C_R   0.498945 0.051578 0.502961 0.009324
C14   C     C_R   0.611597 0.948269 0.334989 -0.139138
C15   C     C_R   0.385756 0.052172 0.669134 -0.142254
C16   C     C_R   0.386242 0.950543 0.669813 -0.140807
C17   C     C_R   0.612405 0.048658 0.336074 -0.134048
C18   C     C_R   0.499988 0.499475 0.259892 0.554909
C19   C     C_R   0.500228 0.500511 0.740109 0.571186
C20   C     C_3   0.433350 0.552481 0.046120 0.101312
C21   C     C_3   0.567215 0.447427 0.953859 0.100004
C22   C     C_3   0.509586 0.590132 0.962164 0.110381
C23   C     C_R   0.953471 0.500405 0.502507 0.061338
C24   C     C_3   0.491004 0.409740 0.037851 0.107524
C25   C     C_3   0.421754 0.462989 0.960242 -0.159562
C26   C     C_3   0.578807 0.536885 0.039793 -0.171592
C27   C     C_3   0.499842 0.501492 0.876108 0.047944
C28   C     C_3   0.500694 0.498413 0.123901 0.043786
C29   C     C_R   0.814799 0.587224 0.487190 -0.141285
C30   C     C_R   0.185134 0.413227 0.514689 -0.139071
C31   C     C_R   0.768182 0.500146 0.502007 -0.015848
C32   C     C_R   0.231796 0.500269 0.500475 -0.016072
C33   C     C_R   0.814392 0.413402 0.518459 -0.140258
C34   C     C_R   0.046485 0.500407 0.501938 0.061473
C35   C     C_R   0.185627 0.587426 0.486774 -0.139154
C36   C     C_R   0.906808 0.412820 0.518079 0.011923
C37   C     C_R   0.093171 0.588056 0.487035 0.009758
C38   C     C_R   0.907220 0.587973 0.487481 0.011627
C39   C     C_R   0.092717 0.412725 0.516107 0.009891
C40   C     C_R   0.953305 0.326131 0.532771 -0.132906
C41   C     C_R   0.046646 0.674765 0.472587 -0.134743
C42   C     C_R   0.045812 0.326053 0.531517 -0.135198
Cu1   Cu    Cu3+1 0.500000 0.597420 0.500000 0.978272
Cu2   Cu    Cu3+1 0.500000 0.402580 0.500000 0.979618
H1    H     H_    0.358164 0.433216 0.927705 0.106034
H2    H     H_    0.919293 0.742402 0.461068 0.110145
H3    H     H_    0.656123 0.911452 0.268316 0.146951
H4    H     H_    0.340751 0.089081 0.734895 0.103202
H5    H     H_    0.341474 0.914746 0.735900 0.106230
H6    H     H_    0.657371 0.084227 0.269877 0.152260
H7    H     H_    0.325313 0.637352 0.024105 0.236649
H8    H     H_    0.319164 0.567042 0.151524 0.221194
H9    H     H_    0.675397 0.362757 0.975773 0.237666
H10   H     H_    0.681313 0.432947 0.848236 0.220304
H11   H     H_    0.522516 0.733146 0.000445 0.234729
H12   H     H_    0.642376 0.566671 0.072383 0.101704
H13   H     H_    0.578273 0.695406 0.870013 0.233138
H14   H     H_    0.478045 0.266776 0.999374 0.239089
H15   H     H_    0.422728 0.304279 0.130263 0.230762
H16   H     H_    0.321362 0.757049 0.648243 0.195363
H17   H     H_    0.399489 0.758488 0.759035 0.237685
H18   H     H_    0.673065 0.279939 0.393476 0.246848
H19   H     H_    0.596348 0.295166 0.276739 0.291755
H20   H     H_    0.639939 0.691370 0.342022 0.266598
H21   H     H_    0.557324 0.727587 0.243592 0.257262
H22   H     H_    0.319912 0.243789 0.649043 0.191852
H23   H     H_    0.779355 0.654492 0.474886 0.125686
H24   H     H_    0.400054 0.247162 0.757166 0.207458
H25   H     H_    0.220541 0.345770 0.525142 0.127803
H26   H     H_    0.778667 0.346264 0.532123 0.123284
H27   H     H_    0.221496 0.654783 0.475280 0.132070
H28   H     H_    0.918142 0.258440 0.544798 0.110741
H29   H     H_    0.081798 0.742508 0.461059 0.108536
H30   H     H_    0.080666 0.258310 0.542670 0.105763
N1    N     N_R   0.500000 0.743810 0.500000 -0.195866
N2    N     N_3   0.385528 0.263445 0.664575 -0.554943
N3    N     N_R   0.500000 0.256190 0.500000 -0.195768
N4    N     N_3   0.361440 0.612223 0.099006 -0.605222
N5    N     N_3   0.639151 0.387750 0.900914 -0.599449
N6    N     N_3   0.517751 0.689638 0.920389 -0.611157
N7    N     N_3   0.483092 0.310154 0.079515 -0.612217
N8    N     N_3   0.387012 0.739107 0.666440 -0.544559
N9    N     N_3   0.623262 0.249210 0.341477 -0.645836
N10   N     N_3   0.600805 0.747918 0.312911 -0.657459
O1    O     O_R   0.370260 0.582280 0.500030 -0.477983
O2    O     O_R   0.629740 0.417720 0.499970 -0.516416
O3    O     O_R   0.629740 0.582280 0.499970 -0.527970
O4    O     O_R   0.370260 0.417720 0.500030 -0.484550
O5    O     O_R   0.499980 0.582260 0.316850 -0.504062
O6    O     O_R   0.500020 0.417740 0.683150 -0.461183
O7    O     O_R   0.500020 0.582260 0.683150 -0.463756
O8    O     O_R   0.499980 0.417740 0.316850 -0.509166

loop_
_geom_bond_atom_site_label_1
_geom_bond_atom_site_label_2
_ccdc_geom_bond_type
C21   C26   S    
C8    C13   A    
C34   C37   A    
C14   C17   A    
C24   N7    S    
C2    H2    S    
C7    C11   A    
Cu1   O5    S    
Cu2   N3    S    
C35   C37   A    
C9    C16   A    
H17   N8    S    
H8    N4    S    
C20   C25   S    
C10   C17   A    
C15   C16   A    
C33   C36   A    
H20   N10   S    
C29   H23   S    
H16   N8    S    
C7    C14   A    
C29   C38   A    
C31   C33   A    
C19   C27   S    
Cu2   O8    S    
C1    O4    A    
C40   C42   A    
C21   C27   S    
C35   H27   S    
C1    O1    A    
H13   N6    S    
C15   H4    S    
Cu2   O2    S    
C39   C42   A    
Cu1   N1    S    
C42   H30   S    
C34   C39   A    
Cu1   O1    S    
C32   C35   A    
C24   C28   S    
C36   C40   A    
C18   C28   S    
C24   C25   S    
H14   N7    S    
C5    C7    A    
C5    N10   S    
H21   N10   S    
C6    C8    A    
C20   C28   S    
C41   H29   S    
C1    C32   S    
Cu1   O7    S    
H19   N9    S    
H18   N9    S    
C5    N1    A    
Cu1   Cu2   S    
C3    C9    A    
C2    C38   A    
C23   C34   A    
H22   N2    S    
C21   N5    S    
C3    N8    S    
C16   H5    S    
C9    C11   A    
C33   H26   S    
C20   C22   S    
C8    C15   A    
C22   C27   S    
C12   C31   S    
H24   N2    S    
C4    C10   A    
C25   H1    S    
C30   H25   S    
Cu2   O6    S    
C3    N1    A    
H10   N5    S    
C40   H28   S    
C12   O3    A    
H9    N5    S    
C18   O5    A    
H15   N7    S    
C6    N3    A    
C10   C13   A    
C26   H12   S    
C17   H6    S    
C6    N2    S    
C14   H3    S    
C20   N4    S    
C25   C27   S    
C23   C38   A    
C26   C28   S    
C12   O2    A    
C18   O8    A    
H7    N4    S    
Cu1   O3    S    
C4    N3    A    
C29   C31   A    
C19   O6    A    
C30   C32   A    
H11   N6    S    
C11   C13   A    
C4    N9    S    
C30   C39   A    
C37   C41   A    
C19   O7    A    
C22   N6    S    
C23   C36   A    
C22   C26   S    
C21   C24   S    
C2    C41   A    
Cu2   O4    S    
