data_mof_unit_22691.cif
_audit_creation_date              2012-12-10T18:09:36-0500
_audit_creation_method            fapswitch 2.2
_symmetry_space_group_name_H-M    P1
_symmetry_Int_Tables_number       1
_space_group_crystal_system       triclinic
_cell_length_a                    15.942573
_cell_length_b                    14.591262
_cell_length_c                    9.403441
_cell_angle_alpha                 89.6086
_cell_angle_beta                  89.960617
_cell_angle_gamma                 90.15101
_cell_volume                      2187.39051277

loop_
_atom_site_label
_atom_site_type_symbol
_atom_type_description
_atom_site_fract_x
_atom_site_fract_y
_atom_site_fract_z
_atom_type_partial_charge
C1    C     C_R   0.119515 0.379023 0.500542 0.902242
C2    C     C_R   0.121123 0.619159 0.499779 0.800438
C3    C     C_R   0.619671 0.879350 0.500375 0.886347
C4    C     C_R   0.621429 0.118940 0.499914 0.799603
C5    C     C_3   0.070479 0.443706 0.084216 -0.185313
C6    C     C_3   0.070821 0.444163 0.916768 -0.182554
C7    C     C_3   0.576392 0.953476 0.084182 -0.192229
C8    C     C_3   0.576946 0.954558 0.916685 -0.184178
C9    C     C_R   0.885954 0.373681 0.500328 0.926627
C10   C     C_R   0.886142 0.627021 0.499616 0.815754
C11   C     C_R   0.386355 0.873134 0.500339 0.913665
C12   C     C_R   0.386518 0.127290 0.499772 0.823862
C13   C     C_3   0.818184 0.242912 0.642737 0.292727
C14   C     C_3   0.820717 0.239013 0.362709 0.316433
C15   C     C_3   0.808049 0.744685 0.651111 0.307621
C16   C     C_3   0.827372 0.774883 0.376436 0.261061
C17   C     C_3   0.329911 0.724466 0.619301 0.311961
C18   C     C_3   0.305987 0.759166 0.346816 0.285855
C19   C     C_3   0.308507 0.245171 0.651826 0.307429
C20   C     C_3   0.326522 0.274400 0.376389 0.264687
C21   C     C_3   0.264160 0.648385 0.594947 -0.407856
C22   C     C_3   0.226919 0.698002 0.345968 -0.400400
C23   C     C_3   0.230013 0.307017 0.652844 -0.411565
C24   C     C_3   0.259273 0.348413 0.397709 -0.409725
C25   C     C_3   0.741761 0.177509 0.642718 -0.397087
C26   C     C_3   0.755012 0.161770 0.378221 -0.413556
C27   C     C_3   0.729385 0.806160 0.652326 -0.407447
C28   C     C_3   0.759743 0.848819 0.397617 -0.408428
C29   C     C_3   0.735168 0.353142 0.496922 -0.568915
C30   C     C_3   0.735520 0.648742 0.468722 -0.553695
C31   C     C_3   0.236387 0.850779 0.537597 -0.567799
C32   C     C_3   0.236313 0.148048 0.471502 -0.568548
C33   C     C_3   0.820135 0.301042 0.500513 -0.106634
C34   C     C_3   0.819825 0.700053 0.499548 -0.096776
C35   C     C_3   0.319959 0.800858 0.500112 -0.111450
C36   C     C_3   0.320125 0.200100 0.500385 -0.091565
C37   C     C_3   0.192340 0.685323 0.499028 -0.034158
C38   C     C_3   0.191109 0.313619 0.502008 -0.053366
C39   C     C_3   0.693216 0.184736 0.500094 -0.030453
C40   C     C_3   0.691057 0.813940 0.501167 -0.048452
C41   C     C_3   0.164355 0.780551 0.554555 -0.323517
C42   C     C_3   0.163001 0.216236 0.457364 -0.298633
C43   C     C_3   0.662230 0.284787 0.480427 -0.350657
C44   C     C_3   0.662212 0.717397 0.454720 -0.306706
C45   C     C_3   0.011127 0.593809 0.082587 -0.171190
C46   C     C_3   0.011113 0.593690 0.915010 -0.187739
C47   C     C_3   0.921537 0.463367 0.084029 -0.195547
C48   C     C_3   0.922004 0.462085 0.916693 -0.188299
C49   C     C_3   0.500871 0.094366 0.082512 -0.168478
C50   C     C_3   0.499720 0.094266 0.914950 -0.184497
C51   C     C_3   0.426535 0.952612 0.084145 -0.197759
C52   C     C_3   0.427073 0.951382 0.916858 -0.189761
Cu1   Cu    Cu3+1 0.000100 0.500000 0.642410 0.959909
Cu2   Cu    Cu3+1 0.000100 0.500000 0.357590 0.952126
Cu3   Cu    Cu3+1 0.500100 1.000000 0.642410 0.959037
Cu4   Cu    Cu3+1 0.500100 0.000000 0.357590 0.951304
H1    H     H_    0.808377 0.291539 0.731980 0.094037
H2    H     H_    0.798744 0.283521 0.273519 0.107895
H3    H     H_    0.795354 0.687812 0.727839 0.102168
H4    H     H_    0.811562 0.738845 0.275789 0.123454
H5    H     H_    0.313025 0.757494 0.721937 0.114496
H6    H     H_    0.292636 0.817337 0.272995 0.099523
H7    H     H_    0.295645 0.188511 0.728853 0.099954
H8    H     H_    0.310129 0.237940 0.276358 0.121713
H9    H     H_    0.293219 0.587698 0.543727 0.227537
H10   H     H_    0.239499 0.630031 0.297863 0.216484
H11   H     H_    0.244285 0.376918 0.692407 0.214627
H12   H     H_    0.287141 0.412621 0.440456 0.223128
H13   H     H_    0.760956 0.105058 0.660986 0.211310
H14   H     H_    0.784475 0.094567 0.402358 0.220950
H15   H     H_    0.743137 0.875720 0.693721 0.213756
H16   H     H_    0.787391 0.912900 0.441132 0.221235
H17   H     H_    0.239670 0.625220 0.700144 0.174761
H18   H     H_    0.178150 0.730792 0.277952 0.185742
H19   H     H_    0.183144 0.277597 0.728287 0.145942
H20   H     H_    0.232028 0.365745 0.291953 0.168159
H21   H     H_    0.699629 0.195970 0.732580 0.167717
H22   H     H_    0.721650 0.154510 0.274936 0.171520
H23   H     H_    0.682355 0.775840 0.726542 0.150001
H24   H     H_    0.732809 0.866492 0.291759 0.167746
H25   H     H_    0.726356 0.393440 0.596009 0.201563
H26   H     H_    0.733549 0.403456 0.407216 0.197613
H27   H     H_    0.721405 0.598709 0.555562 0.197433
H28   H     H_    0.739944 0.608323 0.368942 0.200126
H29   H     H_    0.242510 0.890263 0.638056 0.196937
H30   H     H_    0.220139 0.901401 0.452813 0.204578
H31   H     H_    0.222779 0.098422 0.559207 0.196439
H32   H     H_    0.240474 0.106977 0.372291 0.200494
H33   H     H_    0.146494 0.774784 0.668696 0.214304
H34   H     H_    0.109363 0.806869 0.495750 0.248887
H35   H     H_    0.110560 0.191665 0.525263 0.258498
H36   H     H_    0.141985 0.217671 0.344604 0.216565
H37   H     H_    0.612560 0.301331 0.558493 0.253321
H38   H     H_    0.636944 0.293814 0.371512 0.234490
H39   H     H_    0.609210 0.693536 0.521635 0.261292
H40   H     H_    0.640363 0.719710 0.342424 0.216098
H41   H     H_    0.070542 0.625212 0.120441 0.176647
H42   H     H_    0.070358 0.625392 0.876151 0.165026
H43   H     H_    0.910701 0.392668 0.123180 0.207419
H44   H     H_    0.913304 0.390102 0.881482 0.190489
H45   H     H_    0.557114 0.132636 0.119163 0.184634
H46   H     H_    0.553999 0.134526 0.874158 0.172726
H47   H     H_    0.424745 0.881001 0.123369 0.211531
H48   H     H_    0.426578 0.878905 0.881194 0.195470
H49   H     H_    0.959112 0.638065 0.119927 0.206817
H50   H     H_    0.959316 0.637152 0.875604 0.215450
H51   H     H_    0.867640 0.504770 0.122326 0.142954
H52   H     H_    0.867506 0.501515 0.875268 0.143235
H53   H     H_    0.444938 0.132086 0.121016 0.202531
H54   H     H_    0.442345 0.129564 0.877597 0.207156
H55   H     H_    0.368217 0.986076 0.122657 0.144157
H56   H     H_    0.368399 0.983092 0.875845 0.143290
H57   H     H_    0.131843 0.469707 0.123548 0.155981
H58   H     H_    0.132120 0.470840 0.877464 0.155276
H59   H     H_    0.064414 0.371721 0.122658 0.167824
H60   H     H_    0.065610 0.372340 0.879298 0.165730
H61   H     H_    0.634432 0.986870 0.124548 0.156678
H62   H     H_    0.634574 0.989752 0.877422 0.156583
H63   H     H_    0.578091 0.880953 0.121321 0.168920
H64   H     H_    0.580417 0.882647 0.879290 0.161043
N1    N     N_3   0.001260 0.500000 0.143650 -0.140964
N2    N     N_3   0.001260 0.500000 0.856350 -0.138631
N3    N     N_3   0.501260 0.000000 0.143650 -0.142718
N4    N     N_3   0.501260 1.000000 0.856350 -0.139102
O1    O     O_R   0.091250 0.408820 0.620260 -0.583313
O2    O     O_R   0.091250 0.408820 0.379740 -0.587158
O3    O     O_R   0.091250 0.591180 0.620260 -0.584628
O4    O     O_R   0.091250 0.591180 0.379740 -0.600566
O5    O     O_R   0.591250 0.908820 0.620260 -0.576565
O6    O     O_R   0.591250 0.908820 0.379740 -0.589938
O7    O     O_R   0.591250 0.091180 0.620260 -0.582513
O8    O     O_R   0.591250 0.091180 0.379740 -0.597729
O9    O     O_R   0.908940 0.408800 0.620260 -0.581085
O10   O     O_R   0.908940 0.408800 0.379740 -0.585346
O11   O     O_R   0.908940 0.591200 0.620260 -0.578395
O12   O     O_R   0.908940 0.591200 0.379740 -0.596112
O13   O     O_R   0.408940 0.908800 0.620260 -0.575202
O14   O     O_R   0.408940 0.908800 0.379740 -0.587574
O15   O     O_R   0.408940 0.091200 0.620260 -0.579518
O16   O     O_R   0.408940 0.091200 0.379740 -0.592728
S1    S     S_3+6 0.911697 0.181351 0.692374 0.025865
O17   O     O_2   0.898814 0.144315 0.840356 -0.257467
O18   O     O_2   0.927242 0.102181 0.595114 -0.171798
O19   O     O_3   0.995576 0.250877 0.693014 -0.556048
H65   H     H_    0.036467 0.220381 0.756755 0.344024
S2    S     S_3+6 0.919532 0.196196 0.297033 0.024501
O20   O     O_2   0.990348 0.240055 0.375306 -0.330368
O21   O     O_2   0.926136 0.093806 0.311120 -0.172562
O22   O     O_3   0.927609 0.223184 0.123558 -0.547014
H66   H     H_    0.986793 0.210547 0.098410 0.370649
S3    S     S_3+6 0.896654 0.804457 0.726995 0.001999
O23   O     O_2   0.977896 0.766730 0.672278 -0.354495
O24   O     O_2   0.892764 0.905609 0.696740 -0.187424
O25   O     O_3   0.892652 0.790017 0.904382 -0.552119
H67   H     H_    0.948506 0.809697 0.938934 0.399949
S4    S     S_3+6 0.925210 0.830666 0.331543 0.029270
O26   O     O_2   0.911553 0.884053 0.196396 -0.219474
O27   O     O_2   0.954190 0.896613 0.442763 -0.167284
O28   O     O_3   0.000719 0.754765 0.301206 -0.573913
H68   H     H_    0.009232 0.727662 0.395850 0.348747
S5    S     S_3+6 0.430706 0.675440 0.660937 0.014803
O29   O     O_2   0.418955 0.614844 0.789455 -0.256177
O30   O     O_2   0.464870 0.617762 0.543317 -0.171827
O31   O     O_3   0.500033 0.757648 0.701898 -0.585902
H69   H     H_    0.537136 0.729843 0.774645 0.341770
S6    S     S_3+6 0.393342 0.700457 0.265251 0.011576
O32   O     O_2   0.475578 0.740008 0.313165 -0.319004
O33   O     O_2   0.391079 0.599489 0.297878 -0.186654
O34   O     O_3   0.384956 0.713709 0.088004 -0.557188
H70   H     H_    0.442074 0.702591 0.050461 0.385118
S7    S     S_3+6 0.397215 0.304556 0.727746 0.002074
O35   O     O_2   0.478183 0.264748 0.675756 -0.357733
O36   O     O_2   0.394875 0.405409 0.694576 -0.184293
O37   O     O_3   0.391988 0.292101 0.905380 -0.547191
H71   H     H_    0.449029 0.307202 0.939902 0.399660
S8    S     S_3+6 0.423956 0.329352 0.329666 0.027268
O38   O     O_2   0.410417 0.382909 0.194655 -0.213481
O39   O     O_2   0.455029 0.394480 0.440470 -0.170074
O40   O     O_3   0.496787 0.250921 0.298712 -0.582716
H72   H     H_    0.508752 0.228138 0.395147 0.350907

loop_
_geom_bond_atom_site_label_1
_geom_bond_atom_site_label_2
_ccdc_geom_bond_type
C16   C28   S    
C41   H33   S    
S7    O35   D    
C31   H29   S    
C29   C33   S    
C3    O6    A    
C51   N3    S    
O34   H70   S    
C7    H61   S    
Cu1   O11   S    
C52   H56   S    
Cu3   Cu4   S    
C13   C25   S    
C14   C33   S    
C15   S3    S    
S5    O29   D    
C18   S6    S    
C8    H62   S    
C7    C8    S    
C4    O8    A    
C20   S8    S    
C45   C46   S    
C29   H25   S    
S7    O36   D    
C26   H22   S    
Cu3   O15   S    
C37   C41   S    
C25   H21   S    
C32   C36   S    
S4    O26   D    
C11   O14   A    
C1    O1    A    
C38   C42   S    
C27   H23   S    
C19   C36   S    
S1    O18   D    
C49   H45   S    
C5    C6    S    
Cu4   O16   S    
C26   C39   S    
C47   N1    S    
C13   H1    S    
C28   C40   S    
C51   H47   S    
Cu2   O10   S    
C21   H17   S    
C50   H54   S    
C43   H38   S    
C47   H43   S    
C42   H35   S    
C16   H4    S    
S3    O25   S    
C23   H11   S    
C30   H27   S    
O37   H71   S    
C6    H58   S    
Cu1   O3    S    
C17   H5    S    
C21   H9    S    
S8    O40   S    
C22   H10   S    
C20   C24   S    
C19   H7    S    
Cu3   O5    S    
C16   S4    S    
C47   C48   S    
C24   C38   S    
S3    O23   D    
C12   O16   A    
C22   C37   S    
C13   S1    S    
C12   C36   S    
C18   C35   S    
C15   C34   S    
Cu1   O1    S    
C16   C34   S    
C2    O3    A    
S8    O39   D    
C41   H34   S    
C46   H42   S    
C31   H30   S    
C18   C22   S    
C5    H59   S    
S6    O33   D    
C30   C44   S    
C28   H16   S    
C14   H2    S    
S5    O30   D    
C45   H49   S    
C4    O7    A    
S2    O21   D    
C32   C42   S    
C48   H44   S    
S7    O37   S    
C30   C34   S    
C51   C52   S    
Cu4   N3    S    
C7    H63   S    
Cu1   O9    S    
C1    O2    A    
S1    O19   S    
C23   H19   S    
C24   H20   S    
C39   C43   S    
C45   N1    S    
Cu1   Cu2   S    
C32   H31   S    
Cu2   O4    S    
C17   C21   S    
C20   H8    S    
C19   C23   S    
C13   C33   S    
C44   H40   S    
S2    O22   S    
Cu4   O14   S    
C15   C27   S    
O28   H68   S    
C4    C39   S    
C27   C40   S    
C10   O12   A    
Cu2   O12   S    
C12   O15   A    
C50   N4    S    
C9    O9    A    
C10   C34   S    
C14   C26   S    
C6    H60   S    
O25   H67   S    
Cu4   O8    S    
C17   S5    S    
C1    C38   S    
C9    C33   S    
C29   C43   S    
S8    O38   D    
Cu2   N1    S    
C3    C40   S    
C50   H46   S    
Cu3   O7    S    
S6    O32   D    
C26   H14   S    
C31   C35   S    
C25   H13   S    
C22   H18   S    
S5    O31   S    
C27   H15   S    
C8    H64   S    
C49   H53   S    
S2    O20   D    
Cu3   N4    S    
O31   H69   S    
C5    N1    S    
C51   H55   S    
C31   C41   S    
C5    H57   S    
C3    O5    A    
C15   H3    S    
S4    O28   S    
C8    N4    S    
S6    O34   S    
C7    N3    S    
O19   H65   S    
C23   C38   S    
C14   S2    S    
C47   H51   S    
Cu3   O13   S    
Cu1   N2    S    
C11   C35   S    
C11   O13   A    
C10   O11   A    
C44   H39   S    
C45   H41   S    
O22   H66   S    
C9    O10   A    
C48   N2    S    
Cu2   O2    S    
C2    C37   S    
C48   H52   S    
C46   H50   S    
C52   N4    S    
S4    O27   D    
C43   H37   S    
C52   H48   S    
C42   H36   S    
S3    O24   D    
C19   S7    S    
C30   H28   S    
C28   H24   S    
Cu4   O6    S    
C24   H12   S    
O40   H72   S    
C20   C36   S    
C40   C44   S    
C21   C37   S    
C29   H26   S    
C49   N3    S    
C49   C50   S    
C6    N2    S    
C46   N2    S    
C18   H6    S    
C17   C35   S    
S1    O17   D    
C25   C39   S    
C2    O4    A    
C32   H32   S    
