data_mof_unit_36529.cif
_audit_creation_date              2012-12-10T18:33:32-0500
_audit_creation_method            fapswitch 2.2
_symmetry_space_group_name_H-M    P1
_symmetry_Int_Tables_number       1
_space_group_crystal_system       triclinic
_cell_length_a                    8.781903
_cell_length_b                    15.13634
_cell_length_c                    13.829729
_cell_angle_alpha                 90.43965
_cell_angle_beta                  96.978391
_cell_angle_gamma                 89.445489
_cell_volume                      1824.5859449

loop_
_atom_site_label
_atom_site_type_symbol
_atom_type_description
_atom_site_fract_x
_atom_site_fract_y
_atom_site_fract_z
_atom_type_partial_charge
C1    C     C_R   0.506248 0.330265 0.499939 0.805657
C2    C     C_R   0.494365 0.670213 0.499943 0.799660
C3    C     C_R   0.580459 0.567929 0.115050 -0.077543
C4    C     C_R   0.585950 0.432156 0.897361 -0.084887
C5    C     C_R   0.574863 0.565473 0.216847 0.018249
C6    C     C_R   0.577765 0.434670 0.794498 0.020645
C7    C     C_R   0.426731 0.435589 0.201982 0.124518
C8    C     C_R   0.422076 0.562771 0.787029 0.096016
C9    C     C_R   0.428815 0.434649 0.100465 -0.236569
C10   C     C_R   0.423737 0.562906 0.888779 -0.242628
C11   C     C_R   0.506610 0.500475 0.055137 0.078743
C12   C     C_R   0.506579 0.498040 0.946023 0.076778
C13   C     C_R   0.204576 0.504250 0.476405 0.865591
C14   C     C_R   0.795437 0.495288 0.523888 0.883482
C15   C     C_2   0.041494 0.521264 0.468853 -0.082202
C16   C     C_2   0.959061 0.479591 0.532898 -0.083907
C17   C     C_R   0.376664 0.099390 0.524707 -0.133811
C18   C     C_R   0.559843 0.903422 0.427957 -0.148577
C19   C     C_R   0.381956 0.190905 0.525300 -0.187303
C20   C     C_R   0.556294 0.811778 0.428425 -0.190073
C21   C     C_R   0.510228 0.234288 0.498646 -0.091737
C22   C     C_R   0.486882 0.767052 0.499749 -0.112758
C23   C     C_R   0.637693 0.185167 0.472331 -0.028540
C24   C     C_R   0.416251 0.816037 0.570274 0.000371
C25   C     C_R   0.632264 0.092841 0.475594 -0.183385
C26   C     C_R   0.426941 0.908058 0.571455 -0.188936
C27   C     C_R   0.502024 0.049558 0.500330 0.077685
C28   C     C_R   0.497023 0.952303 0.500195 0.080385
Cu1   Cu    Cu3+1 0.500000 0.499990 0.596430 0.960276
Cu2   Cu    Cu3+1 0.500000 0.500010 0.403570 0.967158
H1    H     H_    0.273499 0.067774 0.542248 0.147380
H2    H     H_    0.611526 0.935957 0.370738 0.143077
H3    H     H_    0.284154 0.228219 0.544898 0.132085
H4    H     H_    0.609634 0.775720 0.373263 0.166173
H5    H     H_    0.729989 0.054177 0.458408 0.172679
H6    H     H_    0.377296 0.945486 0.627136 0.165010
H7    H     H_    0.633293 0.615541 0.263299 0.151154
H8    H     H_    0.635417 0.384370 0.756489 0.160720
H9    H     H_    0.366307 0.384349 0.235382 0.130508
H10   H     H_    0.357421 0.612894 0.744705 0.164950
H11   H     H_    0.369853 0.382533 0.057249 0.143561
H12   H     H_    0.360617 0.613802 0.922905 0.148478
N1    N     N_R   0.500000 0.500020 0.258690 -0.185158
N2    N     N_R   0.500000 0.499980 0.741310 -0.190612
O1    O     O_R   0.500010 0.371450 0.581430 -0.607448
O2    O     O_R   0.499990 0.628550 0.418570 -0.610041
O3    O     O_R   0.500010 0.371460 0.418560 -0.544921
O4    O     O_R   0.499990 0.628540 0.581440 -0.558879
O5    O     O_R   0.274840 0.499990 0.562640 -0.588841
O6    O     O_R   0.725160 0.500010 0.437360 -0.571401
O7    O     O_R   0.274840 0.500000 0.399770 -0.599249
O8    O     O_R   0.725160 0.500000 0.600230 -0.594395
C29   C     C_3   0.972720 0.594150 0.399036 -0.397697
C30   C     C_3   0.088246 0.660122 0.365935 -0.336697
C31   C     C_3   0.006746 0.740105 0.316153 -0.822650
H13   H     H_    0.929048 0.718624 0.251164 0.278022
H14   H     H_    0.939285 0.776081 0.367157 0.256862
H15   H     H_    0.092950 0.785848 0.292506 0.253725
H16   H     H_    0.166631 0.683745 0.429531 0.246625
H17   H     H_    0.156972 0.628016 0.313007 0.245554
H18   H     H_    0.910270 0.562693 0.333142 0.224363
H19   H     H_    0.889724 0.633874 0.436380 0.207574
C32   C     C_3   0.030216 0.408234 0.604377 -0.401520
C33   C     C_3   0.919092 0.353823 0.657201 -0.334391
C34   C     C_3   0.998841 0.272884 0.706177 -0.802643
H20   H     H_    0.039929 0.227907 0.650838 0.263499
H21   H     H_    0.097799 0.293290 0.759146 0.254018
H22   H     H_    0.916611 0.236413 0.745680 0.270352
H23   H     H_    0.877034 0.395571 0.714799 0.235553
H24   H     H_    0.820317 0.331288 0.605853 0.224942
H25   H     H_    0.096655 0.361386 0.562974 0.200891
H26   H     H_    0.109222 0.440168 0.662856 0.232810
C35   C     C_2   0.779168 0.226089 0.443429 0.797077
O9    O     O_2   0.776189 0.300479 0.409629 -0.582581
O10   O     O_R   0.917178 0.178155 0.453653 -0.779305
H27   H     H_    0.005450 0.212712 0.432228 0.329516
C36   C     C_2   0.322313 0.775175 0.639663 0.820567
O11   O     O_2   0.234202 0.715377 0.612834 -0.631472
O12   O     O_R   0.328838 0.808311 0.734724 -0.754745
H28   H     H_    0.257836 0.776098 0.774819 0.331505
C37   C     C_2   0.665732 0.640752 0.075146 0.818049
O13   O     O_2   0.726310 0.629926 0.000816 -0.567388
O14   O     O_R   0.678548 0.722115 0.123888 -0.794521
H29   H     H_    0.739606 0.766516 0.090248 0.342676
C38   C     C_2   0.681645 0.361780 0.950075 0.826068
O15   O     O_2   0.728617 0.370002 0.036549 -0.568205
O16   O     O_R   0.721779 0.286283 0.899588 -0.786514
H30   H     H_    0.788504 0.243611 0.942583 0.342891

loop_
_geom_bond_atom_site_label_1
_geom_bond_atom_site_label_2
_ccdc_geom_bond_type
C31   H13   S    
C1    C21   S    
C5    H7    S    
C10   H12   S    
C35   O9    D    
O16   H30   S    
C37   O13   D    
C30   H17   S    
C36   O11   D    
C2    O2    A    
C15   C29   S    
C19   C21   A    
Cu2   O7    S    
C24   C26   A    
C15   C16   D    
C13   O7    A    
C29   H18   S    
C14   O8    A    
C34   H21   S    
C2    C22   S    
C6    H8    S    
C16   C32   S    
C33   H24   S    
C4    C12   A    
C20   H4    S    
C36   O12   S    
Cu2   O6    S    
C6    N2    A    
C35   O10   S    
C23   C35   S    
C37   O14   S    
C30   H16   S    
C38   O16   S    
C21   C23   A    
Cu1   O4    S    
C17   C27   A    
Cu2   O3    S    
C18   C28   A    
C4    C6    A    
C19   H3    S    
C1    O3    A    
Cu1   O5    S    
C4    C38   S    
C2    O4    A    
C38   O15   D    
O12   H28   S    
Cu1   O1    S    
O10   H27   S    
C3    C37   S    
Cu1   Cu2   S    
C29   H19   S    
O14   H29   S    
C34   H22   S    
C33   H23   S    
C9    C11   A    
C10   C12   A    
C25   H5    S    
C13   O5    A    
C26   H6    S    
C32   H25   S    
C7    N1    A    
C13   C15   S    
Cu1   N2    S    
C17   H1    S    
C22   C24   A    
Cu2   N1    S    
C18   H2    S    
C7    C9    A    
C30   C31   S    
C14   C16   S    
C26   C28   A    
Cu2   O2    S    
C8    N2    A    
C20   C22   A    
C3    C5    A    
C11   C12   S    
C29   C30   S    
C25   C27   A    
C9    H11   S    
C33   C34   S    
C31   H14   S    
C1    O1    A    
C14   O6    A    
C17   C19   A    
C18   C20   A    
C23   C25   A    
C5    N1    A    
C3    C11   A    
C32   C33   S    
C24   C36   S    
C32   H26   S    
C8    C10   A    
C34   H20   S    
C31   H15   S    
C27   C28   S    
C7    H9    S    
C8    H10   S    
Cu1   O8    S    
