data_mof_unit_29454.cif
_audit_creation_date              2012-12-11T16:09:24-0500
_audit_creation_method            fapswitch 2.2
_symmetry_space_group_name_H-M    P1
_symmetry_Int_Tables_number       1
_space_group_crystal_system       triclinic
_cell_length_a                    6.985528
_cell_length_b                    21.32447
_cell_length_c                    23.610464
_cell_angle_alpha                 90.027747
_cell_angle_beta                  90.514345
_cell_angle_gamma                 90.333839
_cell_volume                      3516.87612837

loop_
_atom_site_label
_atom_site_type_symbol
_atom_type_description
_atom_site_fract_x
_atom_site_fract_y
_atom_site_fract_z
_atom_type_partial_charge
O1    O     O_R   0.494270 0.443530 0.442350 -0.533827
O2    O     O_R   0.824060 0.436290 0.557250 -0.542144
O3    O     O_R   0.994370 0.556470 0.557650 -0.534319
C1    C     C_R   0.655656 0.421363 0.576735 0.730297
O4    O     O_R   0.823990 0.436120 0.442760 -0.536873
O5    O     O_R   0.994300 0.556300 0.442340 -0.534706
C2    C     C_R   0.653861 0.420963 0.423465 0.728069
O6    O     O_R   0.494350 0.443700 0.557660 -0.533887
O7    O     O_3   0.660800 0.539430 0.500000 -0.366007
V1    V     V_3+5 0.935650 0.492690 0.500000 1.394652
O8    O     O_R   0.324020 0.563710 0.442750 -0.536410
C3    C     C_R   0.155068 0.578843 0.423404 0.732160
O9    O     O_R   0.324090 0.563880 0.557240 -0.537421
C4    C     C_R   0.156118 0.578956 0.576644 0.718535
V2    V     V_3+5 0.435660 0.507310 0.500000 1.403667
O10   O     O_3   0.160640 0.460570 0.500000 -0.370470
C5    C     C_3   0.051775 0.719614 0.797155 -0.141588
C6    C     C_3   0.236170 0.705451 0.763781 0.162729
H1    H     H_    0.004285 0.695137 0.836111 0.114038
H2    H     H_    0.425589 0.798366 0.767486 0.110456
C7    C     C_1   0.147614 0.624609 0.622178 -0.187436
C8    C     C_1   0.072040 0.874282 0.877267 -0.194505
C9    C     C_3   0.938125 0.722702 0.740304 -0.199402
C10   C     C_3   0.123380 0.708320 0.707641 0.067121
C11   C     C_3   0.982382 0.794056 0.735981 -0.139428
C12   C     C_3   0.097146 0.790352 0.792082 0.116389
C13   C     C_3   0.167769 0.778847 0.703503 0.160743
C14   C     C_3   0.283467 0.776285 0.759632 -0.147529
C15   C     C_1   0.137489 0.662414 0.660558 -0.072231
C16   C     C_1   0.082352 0.836299 0.839014 -0.047739
H3    H     H_    0.877370 0.830919 0.724527 0.111666
H4    H     H_    0.796399 0.700704 0.732038 0.130975
C17   C     C_3   0.220116 0.816169 0.256175 -0.341995
C18   C     C_3   0.889957 0.777097 0.231464 -0.310235
C19   C     C_3   0.900630 0.726747 0.279988 0.049887
H5    H     H_    0.168389 0.790722 0.344684 0.139053
H6    H     H_    0.163710 0.861725 0.271622 0.139442
H7    H     H_    0.792764 0.763306 0.196355 0.153082
H8    H     H_    0.829454 0.821229 0.248825 0.107822
H9    H     H_    0.853540 0.750969 0.319310 0.078398
C20   C     C_1   0.144763 0.624447 0.377830 -0.195889
C21   C     C_3   0.091947 0.790818 0.207260 0.259240
C22   C     C_3   0.228124 0.768594 0.306026 -0.376773
C23   C     C_3   0.114055 0.707676 0.291509 0.258345
C24   C     C_3   0.198892 0.680648 0.236378 -0.323495
C25   C     C_3   0.178270 0.728019 0.186565 -0.325320
C26   C     C_1   0.132986 0.662076 0.339274 -0.115798
C27   C     C_1   0.081577 0.837093 0.159978 -0.094005
C28   C     C_1   0.073646 0.874943 0.121517 -0.190903
H10   H     H_    0.321276 0.736776 0.167656 0.135505
H11   H     H_    0.085901 0.707445 0.152687 0.139768
H12   H     H_    0.351448 0.670445 0.243397 0.153083
H13   H     H_    0.367607 0.825011 0.240454 0.147797
H14   H     H_    0.380007 0.757346 0.315836 0.146395
H15   H     H_    0.133295 0.634735 0.225610 0.144824
C29   C     C_3   0.398702 0.268688 0.715480 -0.016952
C30   C     C_3   0.732995 0.232781 0.695070 -0.385901
C31   C     C_3   0.718616 0.184022 0.743766 -0.332730
H16   H     H_    0.320776 0.177301 0.752742 0.125167
H17   H     H_    0.356471 0.241424 0.677018 0.111987
H18   H     H_    0.885400 0.245826 0.689281 0.146548
H19   H     H_    0.683797 0.210789 0.654693 0.136518
H20   H     H_    0.658559 0.139254 0.726863 0.140757
H21   H     H_    0.864591 0.173849 0.760566 0.142637
C32   C     C_1   0.572319 0.124135 0.877343 -0.193448
C33   C     C_3   0.611098 0.291906 0.707767 0.281457
C34   C     C_3   0.388676 0.222035 0.766962 -0.361310
C35   C     C_3   0.590551 0.208754 0.792002 0.277120
C36   C     C_3   0.676301 0.271797 0.813298 -0.337543
C37   C     C_3   0.685783 0.320544 0.764472 -0.331798
C38   C     C_1   0.580055 0.162267 0.839109 -0.091715
C39   C     C_1   0.632241 0.338071 0.660703 -0.086738
C40   C     C_1   0.646053 0.375850 0.622336 -0.200673
H22   H     H_    0.603789 0.362917 0.776152 0.132153
H23   H     H_    0.834907 0.337303 0.759602 0.139873
H24   H     H_    0.587595 0.290740 0.848214 0.137332
H25   H     H_    0.297396 0.240762 0.801413 0.136481
H26   H     H_    0.822801 0.264101 0.830782 0.138205
C41   C     C_3   0.447068 0.306079 0.252111 -0.399906
C42   C     C_3   0.800824 0.284879 0.262638 -0.355949
C43   C     C_3   0.792987 0.234880 0.214797 -0.440688
H27   H     H_    0.528941 0.294947 0.165758 0.131606
H28   H     H_    0.462106 0.356322 0.240008 0.139657
H29   H     H_    0.921458 0.274638 0.292112 0.137814
H30   H     H_    0.831893 0.331584 0.243667 0.149601
H31   H     H_    0.834743 0.257306 0.174474 0.162816
H32   H     H_    0.898357 0.197376 0.223427 0.161794
C44   C     C_1   0.578518 0.123536 0.121549 -0.206980
C45   C     C_3   0.608012 0.287802 0.294984 0.225602
C46   C     C_3   0.456056 0.264647 0.197601 -0.026365
C47   C     C_3   0.589250 0.206478 0.208601 0.221746
C48   C     C_3   0.548322 0.172572 0.266919 -0.036856
C49   C     C_3   0.554902 0.220965 0.318111 -0.038262
C50   C     C_1   0.587288 0.161157 0.160206 -0.093810
C51   C     C_1   0.623026 0.335846 0.340979 -0.089501
C52   C     C_1   0.638785 0.374630 0.378541 -0.199436
H33   H     H_    0.412077 0.225903 0.337554 0.118444
H34   H     H_    0.305284 0.301166 0.272842 0.134337
H35   H     H_    0.675529 0.142100 0.272805 0.123757
O11   O     O_R   0.724990 0.055630 0.941600 -0.534282
O12   O     O_R   0.395220 0.063160 0.056480 -0.535791
O13   O     O_R   0.225040 0.942970 0.056870 -0.534733
C53   C     C_R   0.565204 0.078202 0.075856 0.729236
O14   O     O_R   0.395270 0.063000 0.941990 -0.537616
O15   O     O_R   0.225080 0.942800 0.941570 -0.533327
C54   C     C_R   0.563718 0.078198 0.922690 0.726212
O16   O     O_R   0.724940 0.055790 0.056910 -0.536138
O17   O     O_3   0.558580 0.959880 0.999250 -0.367430
V3    V     V_3+5 0.283680 0.006590 0.999220 1.411660
O18   O     O_R   0.895380 0.935350 0.941950 -0.537539
C55   C     C_R   0.063405 0.920179 0.922636 0.725408
O19   O     O_R   0.895330 0.935520 0.056440 -0.537551
C56   C     C_R   0.064212 0.920522 0.075894 0.726079
V4    V     V_3+5 0.783690 0.991900 0.999180 1.412167
O20   O     O_3   0.058660 0.038680 0.999200 -0.368043
C57   C     C_3   0.379204 0.653989 0.778629 -0.364275
C58   C     C_3   0.483728 0.667844 0.834264 -0.772763
H36   H     H_    0.567828 0.712029 0.830888 0.228116
H37   H     H_    0.379778 0.672108 0.869359 0.227571
H38   H     H_    0.583759 0.629007 0.844149 0.215024
H39   H     H_    0.301589 0.608559 0.782052 0.179559
H40   H     H_    0.485131 0.650087 0.744063 0.173799
C59   C     C_3   0.758469 0.670265 0.273210 -0.328074
C60   C     C_3   0.718980 0.645257 0.213127 -0.778025
H41   H     H_    0.625464 0.677378 0.188729 0.209853
H42   H     H_    0.850452 0.637249 0.188822 0.226647
H43   H     H_    0.641694 0.599739 0.216160 0.208085
H44   H     H_    0.805621 0.630159 0.299636 0.183980
H45   H     H_    0.620155 0.684491 0.291578 0.158676
C61   C     C_3   0.249629 0.321991 0.722072 -0.369905
C62   C     C_3   0.182084 0.351267 0.665445 -0.301786
C63   C     C_3   0.170810 0.422648 0.669132 -0.715291
H46   H     H_    0.065459 0.436588 0.701710 0.206467
H47   H     H_    0.313262 0.442850 0.680146 0.216261
H48   H     H_    0.124901 0.442010 0.627632 0.230324
H49   H     H_    0.274979 0.338197 0.629637 0.197748
H50   H     H_    0.038045 0.332978 0.654119 0.181974
H51   H     H_    0.121391 0.301889 0.742502 0.151243
H52   H     H_    0.302893 0.358366 0.751869 0.186503
C64   C     C_3   0.692874 0.199766 0.366573 -0.386010
C65   C     C_3   0.622127 0.140990 0.397719 -0.319393
C66   C     C_3   0.761522 0.122266 0.444833 -0.782592
H53   H     H_    0.904775 0.112087 0.427087 0.228761
H54   H     H_    0.775241 0.160517 0.476597 0.225875
H55   H     H_    0.707522 0.079503 0.466394 0.217203
H56   H     H_    0.480522 0.150431 0.416888 0.188365
H57   H     H_    0.607012 0.101060 0.367879 0.197338
H58   H     H_    0.837816 0.191287 0.349577 0.186116
H59   H     H_    0.707357 0.237604 0.398666 0.186843
C67   C     C_3   0.381039 0.123056 0.265696 -0.372224
C68   C     C_3   0.202530 0.136597 0.300803 -0.319213
C69   C     C_3   0.051717 0.085343 0.291010 -0.810870
H60   H     H_    0.995957 0.087278 0.246844 0.224395
H61   H     H_    0.113913 0.038283 0.298894 0.232102
H62   H     H_    0.931400 0.091389 0.320614 0.222101
H63   H     H_    0.239407 0.136707 0.346566 0.189656
H64   H     H_    0.142720 0.182885 0.289125 0.184236
H65   H     H_    0.333468 0.113470 0.221652 0.190886
H66   H     H_    0.438684 0.077410 0.280864 0.160586
C70   C     C_3   0.233853 0.811713 0.649614 -0.362036
C71   C     C_3   0.268133 0.881550 0.659651 -0.769992
H67   H     H_    0.134242 0.904440 0.673686 0.225415
H68   H     H_    0.381488 0.888739 0.692339 0.223630
H69   H     H_    0.315198 0.903970 0.619654 0.216546
H70   H     H_    0.368683 0.789796 0.635082 0.178198
H71   H     H_    0.122906 0.805422 0.616065 0.180759
C72   C     C_3   0.256162 0.249978 0.171543 -0.372383
C73   C     C_3   0.256706 0.252999 0.106151 -0.326329
C74   C     C_3   0.070169 0.228701 0.079784 -0.747937
H72   H     H_    0.029793 0.182501 0.098015 0.237427
H73   H     H_    0.953494 0.262896 0.086380 0.209958
H74   H     H_    0.088703 0.222906 0.033413 0.211720
H75   H     H_    0.279395 0.302348 0.092464 0.180267
H76   H     H_    0.375674 0.225152 0.088739 0.204973
H77   H     H_    0.205646 0.203386 0.185687 0.195790
H78   H     H_    0.152672 0.285581 0.186273 0.179160

loop_
_geom_bond_atom_site_label_1
_geom_bond_atom_site_label_2
_ccdc_geom_bond_type
C11   H3    S    
C28   C56   S    
C46   C72   S    
C67   C68   S    
C74   H72   S    
C41   H34   S    
C51   C52   T    
C34   H25   S    
C10   C13   S    
C30   C33   S    
C42   H29   S    
C64   H58   S    
O19   V4    S    
V4    O20   S    
C30   C31   S    
C59   C60   S    
C24   C25   S    
O17   V3    S    
C73   H76   S    
C2    C52   S    
C3    C20   S    
C57   H40   S    
C6    C10   S    
C5    C12   S    
C68   H64   S    
C4    C7    S    
C72   H77   S    
C58   H37   S    
O5    C3    A    
O14   V3    S    
C42   C43   S    
O12   V3    S    
V2    O10   S    
C57   C58   S    
C36   H24   S    
C18   C19   S    
C21   C25   S    
O17   V4    S    
C42   C45   S    
C10   C15   S    
C41   C46   S    
H16   C34   S    
O18   C55   A    
O8    V2    S    
C33   C39   S    
C63   H46   S    
C18   C21   S    
C37   H22   S    
C9    C10   S    
O1    V2    S    
C70   H71   S    
C8    C16   T    
O7    V1    S    
O18   V4    S    
C43   H31   S    
C23   C26   S    
C1    O6    A    
O15   C55   A    
O12   C53   A    
O1    C2    A    
O9    C4    A    
C59   H45   S    
C31   H21   S    
C74   H73   S    
C66   H55   S    
C36   H26   S    
C61   H52   S    
O14   C54   A    
O19   C56   A    
C71   H68   S    
C71   H67   S    
C17   H13   S    
C73   H75   S    
C44   C50   T    
C57   H39   S    
C34   C35   S    
C17   C22   S    
C30   H19   S    
C6    C14   S    
C64   C65   S    
C62   H49   S    
C67   H66   S    
C58   H38   S    
C6    C57   S    
C47   C48   S    
O4    C2    A    
V3    O20   S    
C35   C36   S    
H2    C14   S    
C24   H12   S    
C11   C12   S    
C32   C38   T    
C7    C15   T    
C25   H11   S    
C45   C49   S    
C17   H6    S    
C18   H8    S    
C45   C51   S    
O2    C1    A    
C22   C23   S    
O16   V4    S    
C42   H30   S    
C62   H50   S    
C22   H14   S    
C5    C9    S    
C69   H62   S    
C68   C69   S    
C5    C6    S    
C20   C26   T    
O11   V4    S    
C35   C38   S    
C21   C27   S    
C70   H70   S    
C19   C23   S    
C1    C40   S    
C43   H32   S    
O3    C4    A    
C65   H56   S    
C60   H43   S    
C31   C35   S    
C73   C74   S    
C69   H61   S    
C12   C16   S    
O6    V2    S    
O9    V2    S    
C48   C67   S    
C74   H74   S    
C66   H54   S    
C17   C21   S    
C62   C63   S    
O2    V1    S    
C49   H33   S    
C32   C54   S    
C72   C73   S    
C44   C53   S    
C23   C24   S    
C71   H69   S    
C60   H42   S    
C31   H20   S    
O15   V3    S    
C27   C28   T    
C67   H65   S    
C18   H7    S    
O11   C54   A    
C39   C40   T    
H5    C22   S    
O5    V1    S    
O8    C3    A    
C30   H18   S    
C11   C13   S    
C29   C34   S    
C25   H10   S    
C12   C14   S    
H27   C46   S    
C70   C71   S    
C19   C59   S    
C61   C62   S    
C13   C70   S    
O4    V1    S    
O3    V1    S    
V1    O10   S    
C65   C66   S    
C9    H4    S    
C47   C50   S    
C41   H28   S    
C46   C47   S    
C33   C37   S    
C63   H48   S    
C29   C33   S    
C48   C49   S    
C5    H1    S    
C19   H9    S    
C9    C11   S    
O7    V2    S    
C36   C37   S    
C41   C45   S    
C65   H57   S    
C43   C47   S    
C68   H63   S    
C29   H17   S    
C69   H60   S    
C24   H15   S    
C63   H47   S    
C8    C55   S    
C59   H44   S    
C37   H23   S    
O13   C56   A    
C49   C64   S    
C66   H53   S    
C60   H41   S    
O13   V3    S    
C53   O16   A    
C58   H36   S    
C64   H59   S    
C29   C61   S    
C48   H35   S    
C72   H78   S    
C13   C14   S    
C61   H51   S    
