data_mof_unit_5363.cif
_audit_creation_date              2012-12-10T19:44:41-0500
_audit_creation_method            fapswitch 2.2
_symmetry_space_group_name_H-M    P1
_symmetry_Int_Tables_number       1
_space_group_crystal_system       triclinic
_cell_length_a                    8.582447
_cell_length_b                    14.891352
_cell_length_c                    14.149539
_cell_angle_alpha                 89.629205
_cell_angle_beta                  98.737809
_cell_angle_gamma                 90.093877
_cell_volume                      1787.34503111

loop_
_atom_site_label
_atom_site_type_symbol
_atom_type_description
_atom_site_fract_x
_atom_site_fract_y
_atom_site_fract_z
_atom_type_partial_charge
C1    C     C_R   0.501011 0.327452 0.500506 0.954117
C2    C     C_R   0.377384 0.460630 0.884331 -0.290313
C3    C     C_R   0.498849 0.501112 0.053118 0.040779
C4    C     C_R   0.500431 0.501122 0.946739 0.047073
C5    C     C_R   0.200917 0.499968 0.475006 0.985063
C6    C     C_R   0.799088 0.499961 0.524999 0.956093
C7    C     C_2   0.035829 0.499996 0.461506 -0.380909
C8    C     C_2   0.964183 0.499822 0.538514 -0.372296
C9    C     C_R   0.475050 0.087225 0.570752 -0.292320
C10   C     C_R   0.516965 0.912670 0.421466 -0.292745
C11   C     C_R   0.450638 0.179506 0.568707 0.500049
C12   C     C_R   0.502859 0.672853 0.499840 0.939864
C13   C     C_R   0.493553 0.820408 0.416464 0.508566
C14   C     C_R   0.521826 0.231659 0.504096 -0.209384
C15   C     C_R   0.527063 0.769069 0.501036 -0.216284
C16   C     C_R   0.624525 0.193342 0.447745 -0.377404
C17   C     C_R   0.594704 0.809060 0.587073 -0.389128
C18   C     C_R   0.655862 0.101933 0.454201 0.545842
C19   C     C_R   0.625955 0.900670 0.590480 0.548017
C20   C     C_R   0.576389 0.048924 0.513723 -0.001867
C21   C     C_R   0.580453 0.952341 0.507963 -0.006865
C22   C     C_3   0.400461 0.211153 0.718768 -0.270492
C23   C     C_R   0.368177 0.533564 0.092534 0.432478
C24   C     C_3   0.525853 0.782464 0.264993 -0.273961
C25   C     C_3   0.911179 0.076343 0.439819 -0.291362
C26   C     C_3   0.844069 0.916511 0.702710 -0.328336
C27   C     C_3   0.223845 0.656982 0.040190 -0.293143
C28   C     C_3   0.727544 0.674992 0.961875 -0.320440
C29   C     C_R   0.623664 0.542087 0.906123 0.450068
C30   C     C_R   0.371475 0.531305 0.192854 -0.094867
C31   C     C_R   0.621141 0.539723 0.806035 -0.103287
C32   C     C_R   0.627687 0.469204 0.215768 -0.031786
C33   C     C_R   0.379421 0.460762 0.785159 -0.035941
C34   C     C_R   0.629566 0.469392 0.116603 -0.279815
H1    H     H_    0.409934 0.044852 0.613595 0.177196
H2    H     H_    0.545659 0.851748 0.239590 0.160383
H3    H     H_    0.682084 0.234453 0.399760 0.190028
H4    H     H_    0.622766 0.769431 0.651896 0.189953
H5    H     H_    0.933521 0.046589 0.513028 0.159791
H6    H     H_    0.943057 0.148855 0.442033 0.171642
H7    H     H_    0.989751 0.041852 0.396229 0.194755
H8    H     H_    0.914691 0.929176 0.644095 0.156908
H9    H     H_    0.854062 0.844983 0.725788 0.159033
H10   H     H_    0.895711 0.957850 0.764597 0.194416
H11   H     H_    0.333351 0.691015 0.025442 0.134069
H12   H     H_    0.478278 0.954005 0.358983 0.183955
H13   H     H_    0.195998 0.676851 0.111370 0.165895
H14   H     H_    0.125825 0.680814 0.985596 0.202374
H15   H     H_    0.614854 0.693745 0.986538 0.151275
H16   H     H_    0.732170 0.703156 0.889306 0.153253
H17   H     H_    0.824738 0.706037 0.011671 0.191661
H18   H     H_    0.270522 0.554626 0.223041 0.160082
H19   H     H_    0.716387 0.570148 0.775080 0.147996
H20   H     H_    0.728694 0.443807 0.263374 0.144476
H21   H     H_    0.284329 0.428992 0.738189 0.155331
H22   H     H_    0.732084 0.443692 0.089544 0.194491
H23   H     H_    0.973761 0.500261 0.388499 0.172838
H24   H     H_    0.280877 0.428069 0.912226 0.192173
H25   H     H_    0.026280 0.499595 0.611528 0.177984
H26   H     H_    0.322425 0.250850 0.758299 0.177424
H27   H     H_    0.521493 0.239624 0.736115 0.171456
H28   H     H_    0.398019 0.140610 0.744615 0.160225
H29   H     H_    0.473174 0.742810 0.202044 0.170507
H30   H     H_    0.640257 0.750238 0.294311 0.169114
N1    N     N_R   0.500000 0.499980 0.252470 -0.113214
N2    N     N_R   0.500000 0.500020 0.747530 -0.113418
O1    O     O_R   0.500010 0.369070 0.579480 -0.587684
O2    O     O_3   0.420269 0.782080 0.332338 -0.599321
O3    O     O_3   0.753634 0.063190 0.396809 -0.614391
O4    O     O_3   0.685100 0.941775 0.675956 -0.611475
O5    O     O_3   0.234962 0.562911 0.032920 -0.597066
O6    O     O_3   0.749394 0.581178 0.964009 -0.598769
O7    O     O_R   0.499990 0.630930 0.420520 -0.574400
O8    O     O_R   0.500010 0.369060 0.420520 -0.626210
O9    O     O_R   0.499990 0.630940 0.579480 -0.632752
O10   O     O_R   0.271750 0.500000 0.560890 -0.616067
O11   O     O_R   0.728250 0.500000 0.439110 -0.629486
O12   O     O_R   0.271750 0.499990 0.401930 -0.630975
O13   O     O_R   0.728250 0.500010 0.598070 -0.635266
O14   O     O_3   0.342837 0.217727 0.620120 -0.611104
Zn1   Zn    Zn3+2 0.500000 0.500010 0.606140 0.950498
Zn2   Zn    Zn3+2 0.500000 0.499990 0.393860 0.955354

loop_
_geom_bond_atom_site_label_1
_geom_bond_atom_site_label_2
_ccdc_geom_bond_type
C27   H14   S    
C33   H21   S    
C31   N2    A    
C34   H22   S    
C3    C23   A    
C6    O13   A    
C26   H10   S    
C7    C8    D    
C24   H2    S    
C1    O8    A    
C19   C21   A    
C25   H6    S    
C22   H26   S    
C28   H17   S    
C1    O1    A    
C28   H16   S    
C26   H9    S    
C4    C29   A    
C16   H3    S    
C29   O6    S    
C27   H11   S    
C18   O3    S    
C24   H30   S    
C12   O7    A    
C28   O6    S    
O8    Zn2   S    
C32   H20   S    
C33   N2    A    
C10   C21   A    
C23   C30   A    
C23   O5    S    
C25   H7    S    
C11   C14   A    
C5    C7    S    
O9    Zn1   S    
C6    O11   A    
C6    C8    S    
C3    C34   A    
C32   C34   A    
C2    C4    A    
C10   H12   S    
C8    H25   S    
C22   H28   S    
C28   H15   S    
O12   Zn2   S    
C9    C20   A    
C12   C15   S    
C31   H19   S    
C9    C11   A    
C2    C33   A    
O1    Zn1   S    
C24   H29   S    
C13   C15   A    
C26   O4    S    
C14   C16   A    
C25   O3    S    
C3    C4    S    
O7    Zn2   S    
C27   O5    S    
C26   H8    S    
O13   Zn1   S    
C27   H13   S    
C15   C17   A    
C30   H18   S    
C10   C13   A    
O10   Zn1   S    
C2    H24   S    
C5    O10   A    
C22   O14   S    
C29   C31   A    
C25   H5    S    
C22   H27   S    
N1    Zn2   S    
O11   Zn2   S    
C17   C19   A    
C18   C20   A    
C17   H4    S    
C30   N1    A    
C11   O14   S    
C24   O2    S    
C20   C21   S    
C16   C18   A    
C12   O9    A    
C9    H1    S    
C19   O4    S    
C1    C14   S    
C5    O12   A    
C7    H23   S    
C32   N1    A    
N2    Zn1   S    
C13   O2    S    
