data_mof_unit_62696.cif
_audit_creation_date              2013-03-05T16:07:42-0500
_audit_creation_method            fapswitch 2.2
_symmetry_space_group_name_H-M    P1
_symmetry_Int_Tables_number       1
_space_group_crystal_system       triclinic
_cell_length_a                    36.033818
_cell_length_b                    25.9695
_cell_length_c                    22.186075
_cell_angle_alpha                 89.95984
_cell_angle_beta                  144.294506
_cell_angle_gamma                 90.037071
_cell_volume                      12116.6821434

loop_
_atom_site_label
_atom_site_type_symbol
_atom_site_description
_atom_site_fract_x
_atom_site_fract_y
_atom_site_fract_z
_atom_type_partial_charge
Zn1   Zn    Zn3+2 0.824550 0.706220 0.087530 1.144953
Zn2   Zn    Zn3+2 0.824550 0.293780 0.087530 1.143654
Zn3   Zn    Zn3+2 0.324550 0.206220 0.087530 1.151971
Zn4   Zn    Zn3+2 0.324550 0.793780 0.087530 1.152535
Zn5   Zn    Zn3+2 0.762980 0.793760 0.087560 1.130809
Zn6   Zn    Zn3+2 0.762980 0.206240 0.087560 1.125247
Zn7   Zn    Zn3+2 0.262980 0.293760 0.087560 1.152235
Zn8   Zn    Zn3+2 0.262980 0.706240 0.087560 1.157060
Zn9   Zn    Zn3+2 0.737010 0.793770 0.912460 1.087093
Zn10  Zn    Zn3+2 0.737010 0.206230 0.912460 1.087871
Zn11  Zn    Zn3+2 0.237010 0.293770 0.912460 1.037525
Zn12  Zn    Zn3+2 0.237010 0.706230 0.912460 1.046783
Zn13  Zn    Zn3+2 0.675440 0.706230 0.912460 1.108167
Zn14  Zn    Zn3+2 0.675440 0.293770 0.912460 1.101838
Zn15  Zn    Zn3+2 0.175440 0.206230 0.912460 1.125744
Zn16  Zn    Zn3+2 0.175440 0.793770 0.912460 1.119971
O1    O     O_3   0.749990 0.749990 0.000000 -0.573696
O2    O     O_3   0.749990 0.250010 0.000000 -0.570470
O3    O     O_3   0.249990 0.249990 0.000000 -0.568458
O4    O     O_3   0.249990 0.750010 0.000000 -0.568864
O5    O     O_R   0.637170 0.719360 0.938750 -0.590616
O6    O     O_R   0.637170 0.280640 0.938750 -0.591847
O7    O     O_R   0.137170 0.219360 0.938750 -0.586299
O8    O     O_R   0.137170 0.780640 0.938750 -0.587129
O9    O     O_R   0.862810 0.719350 0.061240 -0.590547
O10   O     O_R   0.862810 0.280650 0.061240 -0.589013
O11   O     O_R   0.362810 0.219350 0.061240 -0.579881
O12   O     O_R   0.362810 0.780650 0.061240 -0.579948
O13   O     O_R   0.845300 0.780620 0.233710 -0.585030
O14   O     O_R   0.845300 0.219380 0.233710 -0.585690
O15   O     O_R   0.345300 0.280620 0.233710 -0.587212
O16   O     O_R   0.345300 0.719380 0.233710 -0.583708
O17   O     O_R   0.654690 0.780640 0.766300 -0.632418
O18   O     O_R   0.654690 0.219360 0.766300 -0.627923
O19   O     O_R   0.154690 0.280640 0.766300 -0.630910
O20   O     O_R   0.154690 0.719360 0.766300 -0.631921
O21   O     O_R   0.759080 0.866840 0.061290 -0.595092
O22   O     O_R   0.759080 0.133160 0.061290 -0.595757
O23   O     O_R   0.259080 0.366840 0.061290 -0.592790
O24   O     O_R   0.259080 0.633160 0.061290 -0.587258
O25   O     O_R   0.697810 0.633140 0.938720 -0.584502
O26   O     O_R   0.697810 0.366860 0.938720 -0.603644
O27   O     O_R   0.197810 0.133140 0.938720 -0.599950
O28   O     O_R   0.197810 0.866860 0.938720 -0.610705
O29   O     O_R   0.740900 0.866850 0.938740 -0.591728
O30   O     O_R   0.740900 0.133150 0.938740 -0.590798
O31   O     O_R   0.240900 0.366850 0.938740 -0.632460
O32   O     O_R   0.240900 0.633150 0.938740 -0.627226
O33   O     O_R   0.802180 0.633140 0.061250 -0.569770
O34   O     O_R   0.802180 0.366860 0.061250 -0.585063
O35   O     O_R   0.302180 0.133140 0.061250 -0.573083
O36   O     O_R   0.302180 0.866860 0.061250 -0.586193
O37   O     O_R   0.888390 0.719350 0.233690 -0.588816
O38   O     O_R   0.888390 0.280650 0.233690 -0.587465
O39   O     O_R   0.388390 0.219350 0.233690 -0.593698
O40   O     O_R   0.388390 0.780650 0.233690 -0.592792
O41   O     O_R   0.611600 0.719370 0.766300 -0.605224
O42   O     O_R   0.611600 0.280630 0.766300 -0.612281
O43   O     O_R   0.111600 0.219370 0.766300 -0.621805
O44   O     O_R   0.111600 0.780630 0.766300 -0.625129
O45   O     O_R   0.698440 0.780630 0.061300 -0.609803
O46   O     O_R   0.698440 0.219370 0.061300 -0.609516
O47   O     O_R   0.198440 0.280630 0.061300 -0.598237
O48   O     O_R   0.198440 0.719370 0.061300 -0.600035
O49   O     O_R   0.801540 0.780630 0.938710 -0.615747
O50   O     O_R   0.801540 0.219370 0.938710 -0.615709
O51   O     O_R   0.301540 0.280630 0.938710 -0.645569
O52   O     O_R   0.301540 0.719370 0.938710 -0.641484
C1    C     C_R   0.650522 0.749967 0.000061 0.858651
C2    C     C_R   0.650537 0.250022 0.000096 0.858691
C3    C     C_R   0.150499 0.249983 0.000014 0.871095
C4    C     C_R   0.150519 0.750008 0.000061 0.865107
C5    C     C_R   0.849457 0.749992 0.999934 0.818274
C6    C     C_R   0.849463 0.250032 0.999951 0.823998
C7    C     C_R   0.349473 0.250001 0.999963 0.832460
C8    C     C_R   0.349477 0.750020 0.999980 0.841875
C9    C     C_R   0.891546 0.750152 0.282437 0.950623
C10   C     C_R   0.891335 0.250111 0.282406 0.952610
C11   C     C_R   0.391745 0.250978 0.282462 0.955678
C12   C     C_R   0.391885 0.748926 0.282462 0.962379
C13   C     C_R   0.609121 0.749630 0.717795 0.899872
C14   C     C_R   0.608976 0.250165 0.717814 0.901315
C15   C     C_R   0.109343 0.249748 0.717706 0.941462
C16   C     C_R   0.109347 0.750200 0.717779 0.939043
C17   C     C_R   0.751876 0.891301 0.002505 0.895898
C18   C     C_R   0.749767 0.108734 0.000073 0.853621
C19   C     C_R   0.249635 0.391183 0.999492 0.901712
C20   C     C_R   0.248765 0.608635 0.998934 0.940479
C21   C     C_R   0.749177 0.608687 0.997083 0.938095
C22   C     C_R   0.749946 0.390948 0.002603 0.943999
C23   C     C_R   0.249326 0.108707 0.998159 0.942831
C24   C     C_R   0.250089 0.890985 0.002535 0.950802
C25   C     C_3   0.685128 0.530999 0.953501 0.268383
C26   C     C_3   0.683762 0.468435 0.951384 0.285171
C27   C     C_3   0.192393 0.030900 0.971779 0.267301
C28   C     C_3   0.188299 0.968767 0.962051 0.276367
C29   C     C_3   0.810858 0.529430 0.110545 0.009597
C30   C     C_3   0.808327 0.469469 0.114990 -0.030566
C31   C     C_3   0.315005 0.029472 0.107713 -0.007299
C32   C     C_3   0.312997 0.969690 0.114385 -0.027119
C33   C     C_3   0.747804 0.528726 0.927425 0.173057
C34   C     C_3   0.751425 0.466703 0.935902 0.174845
C35   C     C_3   0.237098 0.028897 0.915073 0.166779
C36   C     C_3   0.244755 0.966994 0.927135 0.188953
C37   C     C_3   0.746949 0.550841 0.995169 -0.373470
C38   C     C_3   0.747552 0.448312 0.000601 -0.374448
C39   C     C_3   0.247316 0.050909 0.996644 -0.350430
C40   C     C_3   0.248348 0.948401 0.001432 -0.371648
H1    H     H_    0.848686 0.534775 0.126724 0.214231
H2    H     H_    0.850849 0.454738 0.147629 0.217534
H3    H     H_    0.346631 0.034791 0.110311 0.219995
H4    H     H_    0.352627 0.954359 0.139189 0.212164
C41   C     C_3   0.498505 0.204735 0.971920 -0.059504
C42   C     C_3   0.487160 0.790129 0.949117 -0.062205
C43   C     C_3   0.000427 0.704037 0.975736 -0.061513
C44   C     C_3   0.017010 0.297413 0.008797 -0.060681
C45   C     C_3   0.941549 0.738451 0.907189 0.197868
C46   C     C_3   0.948415 0.276701 0.920894 0.198582
C47   C     C_3   0.441264 0.240694 0.906649 0.200720
C48   C     C_3   0.440221 0.747064 0.904604 0.201003
C49   C     C_1   0.888962 0.750097 0.000036 0.018414
C50   C     C_1   0.889001 0.249962 0.000117 0.019830
C51   C     C_1   0.389067 0.250163 0.000241 0.011788
C52   C     C_1   0.389057 0.749937 0.000229 0.012089
C53   C     C_1   0.611418 0.250260 0.000769 -0.030780
C54   C     C_1   0.611324 0.749771 0.000580 -0.026967
C55   C     C_1   0.111346 0.750220 0.000627 -0.013441
C56   C     C_1   0.111294 0.249709 0.000519 -0.012932
C57   C     C_3   0.022149 0.715841 0.069235 0.189329
C58   C     C_3   0.031916 0.270443 0.088689 0.192568
C59   C     C_3   0.520762 0.214403 0.066448 0.189507
C60   C     C_3   0.510358 0.792907 0.045493 0.189562
C61   C     C_3   0.962922 0.750349 0.000754 -0.202755
C62   C     C_3   0.962937 0.249632 0.000785 -0.202922
C63   C     C_3   0.463173 0.250453 0.001249 -0.202724
C64   C     C_3   0.463096 0.749765 0.001102 -0.202346
C65   C     C_3   0.560897 0.260379 0.097466 0.167472
C66   C     C_3   0.561744 0.752405 0.099135 0.166457
C67   C     C_3   0.060152 0.762494 0.096032 0.166846
C68   C     C_3   0.053145 0.222018 0.082039 0.165368
C69   C     C_3   0.538984 0.250638 0.003036 -0.052052
C70   C     C_3   0.538871 0.749708 0.002814 -0.052187
C71   C     C_3   0.038783 0.750617 0.002643 -0.054098
C72   C     C_3   0.038612 0.249037 0.002298 -0.054336
C73   C     C_3   0.001370 0.797014 0.027634 0.184583
C74   C     C_3   0.984606 0.201180 0.994207 0.183653
C75   C     C_3   0.503755 0.296440 0.032357 0.188746
C76   C     C_3   0.514931 0.709261 0.054832 0.187931
C77   C     C_3   0.481534 0.286610 0.937896 -0.059855
C78   C     C_3   0.491726 0.706647 0.958435 -0.059047
C79   C     C_3   0.979695 0.785047 0.934217 -0.059993
C80   C     C_3   0.969797 0.228289 0.914501 -0.061832
C81   C     C_1   0.922310 0.750211 0.000257 0.217306
C82   C     C_1   0.922357 0.249841 0.000352 0.217763
C83   C     C_1   0.422503 0.250311 0.000636 0.216086
C84   C     C_1   0.422464 0.749851 0.000566 0.216026
C85   C     C_1   0.578657 0.250453 0.001714 0.144671
C86   C     C_1   0.578534 0.749693 0.001469 0.144981
C87   C     C_1   0.078523 0.750415 0.001450 0.153938
C88   C     C_1   0.078422 0.249407 0.001244 0.152759
C89   C     C_3   0.510466 0.799919 0.561622 0.294454
C90   C     C_3   0.512960 0.197632 0.561626 0.294098
C91   C     C_3   0.994225 0.278131 0.561181 0.289549
C92   C     C_3   0.994333 0.721822 0.561037 0.287518
C93   C     C_3   0.455856 0.802002 0.440371 -0.052215
C94   C     C_3   0.458510 0.196219 0.440295 -0.054722
C95   C     C_3   0.936441 0.281281 0.439679 -0.063365
C96   C     C_3   0.936663 0.718962 0.439589 -0.062195
H5    H     H_    0.470278 0.829646 0.424061 0.225204
H6    H     H_    0.474565 0.171199 0.424203 0.227642
H7    H     H_    0.933404 0.321771 0.420328 0.218453
H8    H     H_    0.933484 0.678521 0.419892 0.215996
H9    H     H_    0.496229 0.701842 0.593620 0.227866
H10   H     H_    0.493796 0.292129 0.594243 0.223587
H11   H     H_    0.028854 0.170835 0.595208 0.239134
H12   H     H_    0.028881 0.829079 0.595437 0.237692
H13   H     H_    0.407510 0.716869 0.424695 0.218331
H14   H     H_    0.406214 0.275712 0.426294 0.215702
H15   H     H_    0.933828 0.178314 0.425861 0.230049
H16   H     H_    0.934258 0.822364 0.425674 0.227853
C97   C     C_3   0.508629 0.701055 0.561184 -0.160780
C98   C     C_3   0.505738 0.296016 0.561286 -0.165693
C99   C     C_3   0.034668 0.194194 0.561347 -0.195888
C100  C     C_3   0.035040 0.805900 0.561987 -0.193045
C101  C     C_3   0.571622 0.746572 0.560709 -0.195258
C102  C     C_3   0.570968 0.257310 0.560584 -0.198492
C103  C     C_3   0.065232 0.282618 0.559726 -0.173681
C104  C     C_3   0.065557 0.717734 0.559974 -0.172036
C105  C     C_3   0.551578 0.749428 0.602791 -0.145749
C106  C     C_3   0.551302 0.250192 0.602810 -0.143850
C107  C     C_3   0.052169 0.251125 0.602565 -0.130788
C108  C     C_3   0.052327 0.748934 0.602722 -0.130574
H17   H     H_    0.595035 0.782884 0.578344 0.260479
H18   H     H_    0.596093 0.222525 0.577971 0.258324
H19   H     H_    0.069090 0.324061 0.576525 0.241732
H20   H     H_    0.069448 0.676258 0.576688 0.242266
C109  C     C_3   0.449217 0.748429 0.397993 -0.287549
C110  C     C_3   0.448797 0.251265 0.397973 -0.285016
C111  C     C_3   0.949697 0.250104 0.397693 -0.291790
C112  C     C_3   0.950052 0.750275 0.397842 -0.293473
C113  C     C_3   0.444752 0.704528 0.441493 0.050521
C114  C     C_3   0.441967 0.291848 0.441889 0.052467
C115  C     C_3   0.969697 0.193360 0.441231 0.076662
C116  C     C_3   0.970309 0.807004 0.441681 0.076098
C117  C     C_3   0.511400 0.738399 0.441821 0.044699
C118  C     C_3   0.510244 0.265569 0.441714 0.042788
C119  C     C_3   0.008273 0.275672 0.441060 0.044278
C120  C     C_3   0.008695 0.724863 0.441322 0.041159
H21   H     H_    0.510891 0.697440 0.427290 0.208168
H22   H     H_    0.507496 0.307118 0.427264 0.210937
H23   H     H_    0.022546 0.247989 0.424270 0.198282
H24   H     H_    0.023056 0.752676 0.424756 0.197055
C121  C     C_3   0.757869 0.969270 0.080840 0.199895
C122  C     C_3   0.763600 0.030882 0.087534 0.198841
C123  C     C_3   0.189953 0.468061 0.961629 0.182440
C124  C     C_3   0.185163 0.529944 0.949990 0.166566
H25   H     H_    0.648477 0.951235 0.857538 0.206954
H26   H     H_    0.646895 0.038594 0.873826 0.190187
H27   H     H_    0.194545 0.460763 0.841520 0.202624
H28   H     H_    0.212058 0.547584 0.856997 0.216505
C125  C     C_3   0.691437 0.970054 0.895141 -0.370247
C126  C     C_3   0.686733 0.028971 0.895933 -0.391259
C127  C     C_3   0.240758 0.470769 0.923138 -0.413153
C128  C     C_3   0.249052 0.529556 0.934618 -0.392680
C129  C     C_3   0.811904 0.971376 0.046209 0.021008
C130  C     C_3   0.805537 0.031151 0.031595 0.033454
C131  C     C_3   0.313425 0.468992 0.109315 0.032485
C132  C     C_3   0.310452 0.528840 0.113356 0.041957
C133  C     C_3   0.754044 0.949099 0.007055 -0.153242
C134  C     C_3   0.751386 0.051125 0.003709 -0.168314
C135  C     C_3   0.248158 0.448705 0.998116 -0.158926
C136  C     C_3   0.248425 0.550725 0.000064 -0.132056
H29   H     H_    0.855406 0.965309 0.130391 0.200646
H30   H     H_    0.850909 0.048442 0.106746 0.170028
H31   H     H_    0.321687 0.451958 0.165377 0.201908
H32   H     H_    0.306728 0.536305 0.157249 0.205101
H33   H     H_    0.689206 0.960406 0.843664 0.291701
H34   H     H_    0.671633 0.046706 0.832911 0.284868
H35   H     H_    0.275796 0.453391 0.937988 0.260178
H36   H     H_    0.294347 0.539477 0.971557 0.276104
N1    N     N_R   0.692254 0.553234 0.024764 0.245653
O53   O     O_R   0.662609 0.595630 0.999747 -0.266710
O54   O     O_R   0.726581 0.532287 0.111960 -0.224549
N2    N     N_R   0.680344 0.449122 0.010280 0.259938
O55   O     O_R   0.633795 0.465340 0.982762 -0.208450
O56   O     O_R   0.705728 0.405438 0.059371 -0.308108
N3    N     N_R   0.211056 0.050398 0.057150 0.241013
O57   O     O_R   0.194057 0.096693 0.050690 -0.272809
O58   O     O_R   0.242511 0.023564 0.137948 -0.207886
N4    N     N_R   0.186940 0.946380 0.022259 0.255687
O59   O     O_R   0.142260 0.961012 0.000251 -0.197631
O60   O     O_R   0.217380 0.904516 0.076518 -0.305935
N5    N     N_R   0.003382 0.848579 0.056048 0.266076
O61   O     O_R   0.038037 0.884000 0.076490 -0.223983
O62   O     O_R   0.970776 0.859526 0.061150 -0.279724
N6    N     N_R   0.968160 0.147868 0.985814 0.265696
O63   O     O_R   0.990083 0.111084 0.980864 -0.226188
O64   O     O_R   0.931776 0.136707 0.983382 -0.280437
N7    N     N_R   0.508176 0.347301 0.065538 0.263315
O65   O     O_R   0.544408 0.382214 0.089101 -0.234779
O66   O     O_R   0.476222 0.358100 0.071935 -0.307181
N8    N     N_R   0.531853 0.664368 0.113148 0.264583
O67   O     O_R   0.576625 0.633605 0.153880 -0.231039
O68   O     O_R   0.502609 0.654809 0.124992 -0.299528
N9    N     N_R   0.625435 0.271239 0.202774 0.271203
O69   O     O_R   0.636703 0.278645 0.274599 -0.235912
O70   O     O_R   0.671954 0.273579 0.225621 -0.260009
N10   N     N_R   0.627322 0.755339 0.206502 0.270811
O71   O     O_R   0.639315 0.757402 0.279759 -0.231603
O72   O     O_R   0.674052 0.755865 0.229765 -0.262745
N11   N     N_R   0.124110 0.775758 0.200252 0.271219
O73   O     O_R   0.134954 0.784758 0.271275 -0.243939
O74   O     O_R   0.170530 0.778678 0.222917 -0.266732
N12   N     N_R   0.109448 0.191837 0.170968 0.272049
O75   O     O_R   0.115112 0.171319 0.231644 -0.239004
O76   O     O_R   0.154154 0.185209 0.190210 -0.262050
N13   N     N_R   0.047226 0.677380 0.143816 0.263408
O77   O     O_R   0.097637 0.651190 0.195793 -0.247758
O78   O     O_R   0.019651 0.669026 0.158987 -0.289475
N14   N     N_R   0.067932 0.293939 0.185066 0.263528
O79   O     O_R   0.125749 0.309715 0.251804 -0.251957
O80   O     O_R   0.042775 0.299223 0.205057 -0.297121
N15   N     N_R   0.544051 0.174293 0.137451 0.265404
O81   O     O_R   0.593216 0.146930 0.186938 -0.251221
O82   O     O_R   0.516146 0.165657 0.151963 -0.277784
N16   N     N_R   0.522195 0.840774 0.093429 0.264950
O83   O     O_R   0.563534 0.873506 0.127148 -0.257430
O84   O     O_R   0.491778 0.851066 0.102880 -0.278543
N17   N     N_R   0.485635 0.796570 0.591928 0.224152
O85   O     O_R   0.427594 0.782808 0.527744 -0.296280
O86   O     O_R   0.524860 0.800944 0.688812 -0.359170
N18   N     N_R   0.488109 0.196789 0.592007 0.222096
O87   O     O_R   0.428961 0.206147 0.527202 -0.294695
O88   O     O_R   0.527791 0.192556 0.689158 -0.366371
N19   N     N_R   0.978032 0.249141 0.595534 0.243004
O89   O     O_R   0.953125 0.203342 0.561183 -0.313762
O90   O     O_R   0.991094 0.268663 0.665396 -0.282355
N20   N     N_R   0.978096 0.750547 0.595461 0.243365
O91   O     O_R   0.953341 0.796401 0.561512 -0.312008
O92   O     O_R   0.990971 0.730722 0.664992 -0.281106
N21   N     N_R   0.548827 0.847982 0.607275 0.219030
O93   O     O_R   0.573732 0.862454 0.589181 -0.324681
O94   O     O_R   0.551101 0.880517 0.654875 -0.277581
N22   N     N_R   0.553865 0.151331 0.607370 0.223963
O95   O     O_R   0.579110 0.140205 0.588748 -0.317855
O96   O     O_R   0.558741 0.117065 0.656441 -0.277885
N23   N     N_R   0.008890 0.331963 0.598989 0.199753
O97   O     O_R   0.066683 0.349518 0.678808 -0.409159
O98   O     O_R   0.963480 0.360399 0.561130 -0.235821
N24   N     N_R   0.008891 0.667882 0.598434 0.200327
O99   O     O_R   0.066667 0.650322 0.678410 -0.399620
O100  O     O_R   0.963382 0.639347 0.560145 -0.233434
N25   N     N_R   0.396337 0.824086 0.385728 0.265470
O101  O     O_R   0.343959 0.797585 0.320607 -0.321859
O102  O     O_R   0.396557 0.871311 0.405614 -0.178214
N26   N     N_R   0.400273 0.170632 0.385266 0.265666
O103  O     O_R   0.346346 0.194819 0.319451 -0.324609
O104  O     O_R   0.403138 0.122451 0.404995 -0.171153
N27   N     N_R   0.874095 0.271574 0.386045 0.250990
O105  O     O_R   0.852047 0.225346 0.365476 -0.271556
O106  O     O_R   0.837658 0.310471 0.351203 -0.232080
N28   N     N_R   0.874338 0.728757 0.385952 0.251198
O107  O     O_R   0.852540 0.775033 0.365836 -0.269006
O108  O     O_R   0.837685 0.689933 0.350667 -0.236583
N29   N     N_3   0.618245 0.705551 0.610410 -0.431287
H37   H     H_    0.626602 0.703877 0.574980 0.258803
H38   H     H_    0.661944 0.715672 0.687086 0.207409
N30   N     N_3   0.615517 0.300343 0.610498 -0.432594
H39   H     H_    0.623696 0.304724 0.575043 0.256948
H40   H     H_    0.659694 0.290597 0.687103 0.204081
N31   N     N_3   0.125179 0.268039 0.608446 -0.409386
H41   H     H_    0.122411 0.276277 0.558710 0.237128
H42   H     H_    0.161883 0.292083 0.671479 0.246105
N32   N     N_3   0.125573 0.732461 0.608967 -0.409331
H43   H     H_    0.122918 0.724398 0.559345 0.238187
H44   H     H_    0.162262 0.708387 0.671968 0.248024
N33   N     N_R   0.620326 0.548765 0.848825 0.257617
O109  O     O_R   0.608852 0.581278 0.790586 -0.383277
O110  O     O_R   0.572152 0.536428 0.819357 -0.219780
N34   N     N_R   0.624558 0.447368 0.844034 0.242857
O111  O     O_R   0.600309 0.465710 0.762733 -0.369234
O112  O     O_R   0.590530 0.412780 0.827079 -0.247348
N35   N     N_R   0.125916 0.050958 0.876649 0.274567
O113  O     O_R   0.105404 0.077821 0.804218 -0.296822
O114  O     O_R   0.084790 0.041013 0.864762 -0.208804
N36   N     N_R   0.126904 0.951750 0.852701 0.238083
O115  O     O_R   0.100979 0.975476 0.773129 -0.296550
O116  O     O_R   0.093064 0.915625 0.833358 -0.234615
N37   N     N_R   0.515362 0.768594 0.390937 0.228096
O117  O     O_R   0.512407 0.745062 0.335342 -0.300682
O118  O     O_R   0.525756 0.817989 0.405271 -0.284623
N38   N     N_R   0.515463 0.238708 0.390338 0.225110
O119  O     O_R   0.510374 0.264857 0.333795 -0.305864
O120  O     O_R   0.528927 0.189875 0.404979 -0.279771
N39   N     N_R   0.995014 0.324894 0.392720 0.235737
O121  O     O_R   0.003026 0.328131 0.345226 -0.276778
O122  O     O_R   0.981814 0.366657 0.405182 -0.315003
N40   N     N_R   0.995511 0.675778 0.392939 0.235420
O123  O     O_R   0.003260 0.672769 0.345056 -0.273721
O124  O     O_R   0.983032 0.633858 0.406350 -0.303077
N41   N     N_3   0.543157 0.652381 0.596944 -0.363685
H45   H     H_    0.521133 0.623222 0.592848 0.279555
H46   H     H_    0.541505 0.641183 0.549621 0.259701
N42   N     N_3   0.537155 0.346477 0.596411 -0.358992
H47   H     H_    0.512852 0.373501 0.590639 0.275164
H48   H     H_    0.535622 0.359580 0.549962 0.263984
N43   N     N_3   0.087149 0.169686 0.597161 -0.408917
H49   H     H_    0.084354 0.129720 0.598728 0.246873
H50   H     H_    0.084252 0.177423 0.547232 0.266444
N44   N     N_3   0.088054 0.830403 0.599161 -0.411125
H51   H     H_    0.086227 0.870293 0.602976 0.248951
H52   H     H_    0.085409 0.823394 0.549401 0.265166
N45   N     N_R   0.423848 0.653504 0.392212 0.225873
O125  O     O_R   0.398363 0.621394 0.396630 -0.282703
O126  O     O_R   0.429265 0.639642 0.343259 -0.350146
N46   N     N_R   0.417018 0.342993 0.392071 0.227873
O127  O     O_R   0.382862 0.368486 0.385750 -0.278981
O128  O     O_R   0.428362 0.363765 0.354781 -0.352470
N47   N     N_R   0.969736 0.156302 0.390813 0.215952
O129  O     O_R   0.973669 0.107337 0.407866 -0.257700
O130  O     O_R   0.962959 0.170567 0.325990 -0.396911
N48   N     N_R   0.971412 0.843904 0.392463 0.223854
O131  O     O_R   0.979239 0.892635 0.414231 -0.259158
O132  O     O_R   0.962429 0.829821 0.324968 -0.380264
N49   N     N_3   0.699717 0.951076 0.035565 -0.429812
H53   H     H_    0.702128 0.957450 0.085172 0.238784
H54   H     H_    0.658071 0.968176 0.965088 0.177688
N50   N     N_3   0.716941 0.054481 0.067986 -0.390825
H55   H     H_    0.724652 0.041605 0.122221 0.246625
H56   H     H_    0.669401 0.048766 0.994469 0.166156
N51   N     N_3   0.130621 0.442627 0.862900 -0.404564
H57   H     H_    0.092059 0.455320 0.837813 0.255714
H58   H     H_    0.119531 0.448028 0.803072 0.204693
N52   N     N_3   0.130097 0.546893 0.840486 -0.416344
H59   H     H_    0.086903 0.539727 0.805188 0.256604
H60   H     H_    0.127367 0.528743 0.795174 0.198814
N53   N     N_R   0.812514 0.947542 0.187280 0.268576
O133  O     O_R   0.856362 0.919341 0.220235 -0.297596
O134  O     O_R   0.817613 0.957203 0.251410 -0.274793
N54   N     N_R   0.827768 0.048188 0.193142 0.249508
O135  O     O_R   0.880231 0.028054 0.242066 -0.309815
O136  O     O_R   0.832729 0.081930 0.242891 -0.251285
N55   N     N_R   0.199502 0.451383 0.038030 0.257431
O137  O     O_R   0.242584 0.471700 0.129538 -0.306752
O138  O     O_R   0.163564 0.415604 0.013827 -0.299210
N56   N     N_R   0.174558 0.551963 0.997231 0.244447
O139  O     O_R   0.219323 0.573339 0.087973 -0.288833
O140  O     O_R   0.120440 0.543640 0.952711 -0.308684
N57   N     N_R   0.824296 0.944876 0.004913 0.254698
O141  O     O_R   0.780517 0.939001 0.906358 -0.255387
O142  O     O_R   0.879939 0.924493 0.068821 -0.270584
N58   N     N_R   0.798760 0.048710 0.959630 0.273084
O143  O     O_R   0.749810 0.036793 0.862101 -0.262268
O144  O     O_R   0.843289 0.076975 0.994527 -0.270676
N59   N     N_R   0.367641 0.451568 0.143620 0.244177
O145  O     O_R   0.381358 0.472886 0.110210 -0.296556
O146  O     O_R   0.404618 0.415272 0.212486 -0.288651
N60   N     N_R   0.370626 0.553679 0.174522 0.270842
O147  O     O_R   0.373931 0.586716 0.134855 -0.351269
O148  O     O_R   0.422364 0.542636 0.272247 -0.226015
N61   N     N_R   0.837732 0.557490 0.198147 0.295566
O149  O     O_R   0.810950 0.598044 0.186088 -0.304925
O150  O     O_R   0.896205 0.547605 0.290712 -0.219988
N62   N     N_R   0.818051 0.447760 0.189078 0.280904
O151  O     O_R   0.822106 0.475868 0.242638 -0.168227
O152  O     O_R   0.836091 0.399971 0.217683 -0.305839
N63   N     N_R   0.349926 0.057954 0.201061 0.287855
O153  O     O_R   0.324295 0.094430 0.199142 -0.274336
O154  O     O_R   0.411274 0.051815 0.285565 -0.237358
N64   N     N_R   0.328973 0.949299 0.196204 0.284306
O155  O     O_R   0.347315 0.978628 0.264500 -0.157338
O156  O     O_R   0.342548 0.900613 0.219089 -0.304136
N65   N     N_R   0.801194 0.547517 0.959320 0.247094
O157  O     O_R   0.844275 0.580091 0.033569 -0.322155
O158  O     O_R   0.801090 0.534969 0.902301 -0.262912
N66   N     N_R   0.811243 0.446320 0.986385 0.241711
O159  O     O_R   0.866994 0.466458 0.069805 -0.297597
O160  O     O_R   0.808724 0.407873 0.945407 -0.352957
N67   N     N_R   0.281318 0.050381 0.927088 0.215289
O161  O     O_R   0.325287 0.084050 0.996808 -0.332180
O162  O     O_R   0.273859 0.036940 0.861118 -0.306792
N68   N     N_R   0.302959 0.948849 0.970946 0.230350
O163  O     O_R   0.356851 0.973510 0.043302 -0.288790
O164  O     O_R   0.301173 0.906308 0.937514 -0.363457
N69   N     N_3   0.691591 0.546112 0.819335 -0.402317
H61   H     H_    0.687249 0.586212 0.813786 0.214716
H62   H     H_    0.649193 0.527843 0.772803 0.291077
N70   N     N_3   0.698012 0.444542 0.830758 -0.385660
H63   H     H_    0.702601 0.454676 0.791334 0.259826
H64   H     H_    0.697954 0.404334 0.831868 0.205077
N71   N     N_3   0.173256 0.043934 0.810207 -0.328183
H65   H     H_    0.172422 0.083979 0.803798 0.198935
H66   H     H_    0.163881 0.030644 0.754353 0.236211
N72   N     N_3   0.189820 0.943148 0.823523 -0.370298
H67   H     H_    0.192779 0.950858 0.781214 0.234013
H68   H     H_    0.190453 0.903049 0.826992 0.198355
N73   N     N_R   0.877583 0.725186 0.802915 0.239367
O165  O     O_R   0.866717 0.716170 0.731872 -0.302886
O166  O     O_R   0.831136 0.722308 0.780189 -0.330719
N74   N     N_R   0.892109 0.306893 0.831914 0.239041
O167  O     O_R   0.886433 0.327423 0.771230 -0.310773
O168  O     O_R   0.847368 0.313510 0.812594 -0.324887
N75   N     N_R   0.376728 0.229835 0.801273 0.236367
O169  O     O_R   0.365464 0.222417 0.729456 -0.316199
O170  O     O_R   0.330166 0.227541 0.778323 -0.338781
N76   N     N_R   0.374639 0.744116 0.797183 0.235905
O171  O     O_R   0.362628 0.742069 0.723905 -0.314281
O172  O     O_R   0.327895 0.743504 0.773879 -0.342224
N77   N     N_3   0.495919 0.154304 0.939991 -0.355520
H69   H     H_    0.462225 0.132471 0.918926 0.250788
H70   H     H_    0.478351 0.159570 0.873199 0.237111
N78   N     N_3   0.472165 0.834765 0.892233 -0.355180
H71   H     H_    0.433236 0.853201 0.860644 0.249042
H72   H     H_    0.457038 0.821109 0.830380 0.242490
N79   N     N_3   0.000216 0.652938 0.948500 -0.333312
H73   H     H_    0.967493 0.630640 0.929344 0.250528
H74   H     H_    0.982519 0.656690 0.881372 0.244909
N80   N     N_3   0.035084 0.350083 0.018016 -0.330990
H75   H     H_    0.010545 0.374314 0.015172 0.252468
H76   H     H_    0.018130 0.357939 0.952346 0.244121
N81   N     N_3   0.460220 0.326573 0.868402 -0.332284
H77   H     H_    0.418679 0.342420 0.831591 0.244041
H78   H     H_    0.447543 0.308526 0.811358 0.243625
N82   N     N_3   0.481790 0.659120 0.911860 -0.327416
H79   H     H_    0.444925 0.639132 0.884469 0.245402
H80   H     H_    0.465428 0.669247 0.847414 0.245231
N83   N     N_3   0.956598 0.823387 0.861147 -0.320735
H81   H     H_    0.914330 0.838361 0.822873 0.255147
H82   H     H_    0.944818 0.804062 0.805856 0.251069
N84   N     N_3   0.935750 0.204648 0.819622 -0.323676
H83   H     H_    0.889507 0.197090 0.773432 0.253263
H84   H     H_    0.932239 0.232199 0.780812 0.251095

loop_
_geom_bond_atom_site_label_1
_geom_bond_atom_site_label_2
_geom_bond_distance
_ccdc_geom_bond_type
C47   C77   1.540558 S    
N28   O108  1.301547 A    
N63   O153  1.299751 A    
C100  C116  1.566730 S    
Zn5   O21   1.956288 S    
C110  C118  1.578630 S    
C95   N27   1.478057 S    
N73   O165  1.300229 A    
C127  C128  1.536623 S    
O23   C19   1.279244 A    
C45   C61   1.549828 S    
C93   H5    1.104936 S    
N33   O109  1.297952 A    
N21   O93   1.300866 A    
C102  N30   1.471231 S    
C33   C34   1.614551 S    
N55   O138  1.303265 A    
N53   O134  1.302674 A    
N4    O60   1.299819 A    
N11   O73   1.300245 A    
N2    O55   1.304235 A    
O46   C2    1.284783 A    
N12   O75   1.300247 A    
C100  N44   1.474732 S    
C101  N29   1.471468 S    
Zn11  O31   1.957015 S    
O34   C22   1.284511 A    
C93   N25   1.475234 S    
Zn3   O3    1.951664 S    
C72   C88   1.453570 S    
C89   N21   1.490060 S    
Zn16  O28   1.956757 S    
O28   C24   1.270409 A    
N13   O78   1.300169 A    
C36   N72   1.482075 S    
C29   C37   1.609631 S    
C36   C40   1.618428 S    
C71   C79   1.545536 S    
C28   C40   1.629612 S    
C58   C68   1.540531 S    
C112  C120  1.588003 S    
Zn4   O40   1.951428 S    
C104  N32   1.478667 S    
C58   C62   1.549437 S    
C70   C86   1.453541 S    
O11   C7    1.284786 A    
C30   N62   1.485279 S    
C44   N80   1.455948 S    
C62   C74   1.549466 S    
N24   O100  1.302642 A    
C33   N65   1.492764 S    
N75   O169  1.300238 A    
C23   C39   1.501776 S    
C92   C96   1.578134 S    
C17   C133  1.502164 S    
N34   O111  1.297527 A    
C31   N63   1.479263 S    
C120  N40   1.475052 S    
C95   H7    1.106864 S    
N77   H69   1.044954 S    
Zn6   O14   1.951639 S    
C125  H33   1.106714 S    
N26   O103  1.301877 A    
C102  C106  1.578533 S    
C113  N45   1.477099 S    
C123  C124  1.614460 S    
C94   C110  1.585165 S    
O16   C12   1.275636 A    
C77   N81   1.455934 S    
C131  C132  1.565607 S    
C120  H24   1.110217 S    
N38   O119  1.301467 A    
Zn12  O4    1.952063 S    
Zn13  O5    1.914506 S    
N83   H82   1.044847 S    
N14   O79   1.300219 A    
C13   C105  1.489115 S    
C57   C61   1.549427 S    
C69   C85   1.453489 S    
C20   C136  1.504309 S    
N10   O72   1.300193 A    
C1    C54   1.421827 S    
N77   H70   1.044829 S    
C5    C49   1.421674 S    
N56   O140  1.302575 A    
C3    C56   1.421827 S    
C61   C73   1.549440 S    
N20   O91   1.300010 A    
C90   C106  1.598739 S    
C121  C133  1.614871 S    
N66   O159  1.302432 A    
H11   C99   1.109535 S    
C117  N37   1.473108 S    
H12   C100  1.109337 S    
C97   C113  1.559185 S    
O43   C15   1.283662 A    
N7    O66   1.300148 A    
C30   C38   1.585146 S    
N70   H63   1.046978 S    
O24   C20   1.274155 A    
C89   C105  1.597334 S    
O42   C14   1.275913 A    
C127  H35   1.109640 S    
N16   O84   1.300166 A    
Zn6   O46   1.914287 S    
C67   N11   1.456773 S    
Zn10  O2    1.952063 S    
C94   N26   1.474552 S    
C12   C109  1.496054 S    
N18   O88   1.302683 A    
C44   C46   1.540545 S    
N69   H61   1.045399 S    
N64   O156  1.300863 A    
C90   N22   1.489817 S    
N52   H59   1.044366 S    
Zn4   O4    1.951224 S    
C44   C58   1.540589 S    
N76   O171  1.300212 A    
C103  C119  1.549472 S    
Zn7   O23   1.956288 S    
N40   O124  1.300805 A    
C35   C39   1.629878 S    
Zn8   O24   1.956904 S    
C76   N8    1.456880 S    
N57   O141  1.300425 A    
N74   O168  1.300132 A    
C89   C93   1.585752 S    
C67   C73   1.540576 S    
N49   H54   1.040768 S    
O25   C21   1.270402 A    
N27   O106  1.301565 A    
N61   O149  1.301393 A    
C27   C28   1.618780 S    
C114  N46   1.476387 S    
O29   C17   1.285772 A    
C98   N42   1.474060 S    
H10   C98   1.113918 S    
C59   N15   1.456931 S    
C29   C30   1.567498 S    
N19   O90   1.302642 A    
Zn12  O52   1.913747 S    
O39   C11   1.284055 A    
C66   N10   1.456824 S    
O22   C18   1.272942 A    
N58   O143  1.300311 A    
C76   C78   1.540669 S    
N67   O162  1.303077 A    
N5    O61   1.300222 A    
C45   N73   1.457230 S    
N25   O102  1.301485 A    
C47   N75   1.457272 S    
O50   C6    1.285057 A    
C97   N41   1.474024 S    
N42   H47   1.046121 S    
N1    O53   1.303518 A    
Zn16  O44   1.951747 S    
N29   H38   1.045095 S    
Zn1   O37   1.951702 S    
Zn2   O34   1.956705 S    
C27   N3    1.492771 S    
C44   C72   1.545566 S    
C67   C71   1.546146 S    
C24   C40   1.491780 S    
C31   C32   1.566641 S    
C66   C76   1.540558 S    
N50   H55   1.045685 S    
N6    O64   1.300173 A    
C110  C114  1.584885 S    
N59   O146  1.300625 A    
N72   H67   1.046349 S    
C46   C62   1.549846 S    
C112  C116  1.580136 S    
N22   O96   1.302384 A    
C11   C110  1.495892 S    
C41   C47   1.540494 S    
N13   O77   1.300213 A    
C119  H23   1.109997 S    
H28   C128  1.110519 S    
C124  N52   1.484554 S    
C29   N61   1.480071 S    
C111  C119  1.588258 S    
N82   H79   1.044941 S    
N46   O128  1.300316 A    
N17   O85   1.301002 A    
N60   O148  1.301525 A    
Zn10  O50   1.913747 S    
C42   C60   1.540542 S    
C32   C40   1.591150 S    
C102  C118  1.554660 S    
C4    C55   1.421806 S    
C8    C52   1.421729 S    
N78   H71   1.044951 S    
N54   O136  1.303367 A    
N32   H43   1.046071 S    
N65   O158  1.303605 A    
C130  C134  1.580989 S    
O5    C1    1.285191 A    
O26   C22   1.266847 A    
O31   C19   1.275571 A    
C124  C136  1.615006 S    
C89   N17   1.495689 S    
C125  C126  1.541205 S    
C29   H1    1.100623 S    
C118  H22   1.106761 S    
N36   O116  1.303990 A    
C57   C67   1.540503 S    
C41   N77   1.455922 S    
C60   C64   1.549399 S    
C92   N24   1.489377 S    
C31   H3    1.101917 S    
Zn9   O49   1.914138 S    
C100  C108  1.574267 S    
N81   H77   1.044953 S    
Zn5   O45   1.913896 S    
C45   C79   1.540594 S    
N74   O167  1.300235 A    
C46   C80   1.540572 S    
N9    O70   1.300183 A    
Zn7   O47   1.913896 S    
C64   C76   1.549463 S    
Zn8   O48   1.914287 S    
C35   N67   1.493467 S    
N62   O151  1.298183 A    
N39   O122  1.301386 A    
H15   C115  1.106013 S    
C94   H6    1.104777 S    
C63   C75   1.549468 S    
N35   O114  1.302784 A    
H13   C113  1.109346 S    
O51   C7    1.284902 A    
O8    C4    1.284838 A    
N51   H58   1.039006 S    
C102  H18   1.103579 S    
N30   H39   1.046359 S    
Zn2   O10   1.914156 S    
C91   N19   1.486282 S    
C101  C105  1.579293 S    
N8    O67   1.300218 A    
O52   C8    1.285115 A    
C98   C106  1.582745 S    
Zn1   O1    1.951664 S    
C130  H30   1.107963 S    
Zn13  O1    1.950840 S    
C104  C108  1.587182 S    
Zn14  O6    1.914042 S    
Zn3   O11   1.913693 S    
Zn15  O27   1.956976 S    
C72   C80   1.545548 S    
C25   N1    1.496952 S    
N53   O133  1.300753 A    
C43   N79   1.455943 S    
N2    O56   1.300593 A    
O9    C5    1.284859 A    
C25   N33   1.500537 S    
N80   H75   1.044951 S    
C9    C112  1.494579 S    
N71   H65   1.046666 S    
O13   C9    1.283166 A    
C126  C134  1.558598 S    
C21   C37   1.503131 S    
N83   H81   1.044950 S    
C95   C111  1.573421 S    
C91   C107  1.606876 S    
O18   C14   1.278009 A    
C121  N49   1.484640 S    
N68   O163  1.302018 A    
C92   C108  1.605727 S    
O6    C2    1.284893 A    
N12   O76   1.300157 A    
C111  C115  1.578843 S    
Zn9   O29   1.957015 S    
N48   O131  1.301363 A    
C30   H2    1.103088 S    
C109  C117  1.579871 S    
C28   N4    1.493245 S    
Zn12  O32   1.956399 S    
Zn13  O25   1.956976 S    
N47   O129  1.301033 A    
C51   C83   1.197720 T    
C121  C122  1.604643 S    
Zn15  O3    1.950840 S    
N41   H46   1.043699 S    
Zn11  O3    1.950829 S    
N37   O117  1.301486 A    
C49   C81   1.197696 T    
C15   C107  1.491359 S    
C75   C77   1.540662 S    
N34   O112  1.304522 A    
C90   N18   1.495634 S    
N45   O126  1.300835 A    
C53   C85   1.197605 T    
N15   O82   1.300171 A    
N61   O150  1.302093 A    
C60   C66   1.540535 S    
O38   C10   1.273201 A    
N26   O104  1.301472 A    
O35   C23   1.288148 A    
C90   C94   1.587322 S    
C97   C105  1.582504 S    
C46   N74   1.457215 S    
N43   H49   1.045977 S    
N66   O160  1.303377 A    
C43   C45   1.540539 S    
N38   O120  1.301313 A    
N48   O132  1.301647 A    
O32   C20   1.285881 A    
C116  N48   1.476876 S    
C103  H19   1.110294 S    
N3    O58   1.297385 A    
N28   O107  1.300590 A    
H9    C97   1.113639 S    
Zn9   O17   1.951686 S    
N73   O166  1.300137 A    
C73   N5    1.456961 S    
N84   H84   1.044852 S    
N33   O110  1.303790 A    
C127  C135  1.563675 S    
N44   H51   1.045892 S    
N21   O94   1.302475 A    
Zn14  O42   1.951747 S    
N23   O97   1.300492 A    
C18   C134  1.496824 S    
O7    C3    1.285071 A    
C22   C38   1.490818 S    
H25   C125  1.110584 S    
Zn2   O38   1.951428 S    
C63   C83   1.454476 S    
C68   C74   1.540574 S    
N19   O89   1.299982 A    
Zn3   O35   1.956486 S    
N54   O135  1.301276 A    
N4    O59   1.303334 A    
C47   C63   1.549837 S    
C48   C64   1.549837 S    
N70   H64   1.044503 S    
O37   C9    1.274270 A    
N67   O161  1.298999 A    
C59   C65   1.540556 S    
C93   C109  1.585238 S    
C34   N66   1.503532 S    
H14   C114  1.109321 S    
N43   H50   1.044139 S    
C96   N28   1.477979 S    
C26   N34   1.507137 S    
C122  N50   1.485640 S    
O47   C3    1.285098 A    
N52   H60   1.040430 S    
C2    C53   1.421781 S    
C6    C50   1.421718 S    
O17   C13   1.277731 A    
C32   H4    1.106673 S    
N76   O172  1.300146 A    
C66   C70   1.546154 S    
C61   C81   1.454432 S    
O36   C24   1.281420 A    
C80   N84   1.455947 S    
C10   C111  1.492978 S    
O12   C8    1.285033 A    
C132  C136  1.584987 S    
C131  H31   1.108758 S    
N63   O154  1.302412 A    
N49   H53   1.044575 S    
C65   C69   1.546126 S    
N24   O99   1.300529 A    
C104  C120  1.549913 S    
O19   C15   1.270616 A    
C96   C112  1.573531 S    
C98   C114  1.556743 S    
Zn15  O43   1.951473 S    
C65   C75   1.540604 S    
C68   C72   1.546137 S    
N78   H72   1.044835 S    
H16   C116  1.106363 S    
O40   C12   1.281801 A    
N44   H52   1.044195 S    
C71   C87   1.453535 S    
C31   C39   1.603109 S    
C48   C78   1.540610 S    
C129  H29   1.102477 S    
C70   C78   1.545484 S    
N58   O144  1.301724 A    
C128  H36   1.108771 S    
N25   O101  1.301692 A    
C62   C82   1.454487 S    
C123  N55   1.493681 S    
N42   H48   1.043026 S    
N32   H44   1.044588 S    
C58   N14   1.456948 S    
N29   H37   1.046382 S    
C129  C133  1.579239 S    
H27   C127  1.105628 S    
N27   O105  1.300553 A    
C42   N78   1.455913 S    
C96   H8    1.107373 S    
Zn13  O41   1.951473 S    
N10   O71   1.300225 A    
N50   H56   1.038843 S    
C125  C133  1.566262 S    
C35   C36   1.616216 S    
N56   O139  1.299831 A    
N17   O86   1.302672 A    
N72   H68   1.043033 S    
C42   C48   1.540515 S    
C131  C135  1.572373 S    
N71   H66   1.043729 S    
N35   O113  1.298260 A    
C25   C26   1.625021 S    
C129  N57   1.475871 S    
Zn2   O2    1.951224 S    
Zn14  O2    1.951279 S    
N55   O137  1.300776 A    
N31   H41   1.046071 S    
N82   H80   1.044835 S    
C69   C77   1.545514 S    
N51   H57   1.045732 S    
Zn8   O4    1.950831 S    
Zn4   O36   1.956705 S    
C75   N7    1.456888 S    
C7    C51   1.421734 S    
C42   C70   1.545579 S    
O21   C17   1.273225 A    
N18   O87   1.300871 A    
N14   O80   1.300181 A    
C59   C63   1.549448 S    
C128  C136  1.570176 S    
C32   N64   1.486223 S    
N16   O83   1.300214 A    
C64   C84   1.454489 S    
C130  N58   1.477404 S    
N47   O130  1.301593 A    
N79   H74   1.044839 S    
C121  N53   1.489987 S    
C123  N51   1.483169 S    
O49   C5    1.284794 A    
C68   N12   1.456758 S    
N69   H62   1.031122 S    
C26   N2    1.494812 S    
N64   O155  1.298990 A    
C28   N36   1.502984 S    
N81   H78   1.044837 S    
C65   N9    1.456831 S    
Zn11  O19   1.951686 S    
C60   N16   1.456931 S    
N39   O121  1.301763 A    
C41   C69   1.545563 S    
Zn10  O30   1.956399 S    
C101  H17   1.103416 S    
C57   N13   1.456941 S    
N57   O142  1.301535 A    
C36   N68   1.501810 S    
N9    O69   1.300254 A    
C103  C107  1.587051 S    
Zn16  O4    1.951279 S    
Zn14  O26   1.956757 S    
C25   C37   1.654444 S    
Zn15  O7    1.914506 S    
N37   O118  1.301300 A    
C14   C106  1.489107 S    
Zn1   O9    1.913693 S    
C50   C82   1.197724 T    
Zn3   O39   1.951702 S    
C48   N76   1.457261 S    
C115  N47   1.476978 S    
C119  N39   1.476220 S    
Zn4   O12   1.914156 S    
Zn11  O51   1.914138 S    
H26   C126  1.104789 S    
Zn5   O13   1.951515 S    
C54   C86   1.197630 T    
C33   C37   1.632843 S    
Zn6   O2    1.950831 S    
C43   C71   1.545555 S    
Zn7   O15   1.951515 S    
Zn8   O16   1.951639 S    
C101  C117  1.554255 S    
N30   H40   1.045312 S    
N79   H73   1.044944 S    
N5    O62   1.300177 A    
N8    O68   1.300151 A    
C124  N56   1.490988 S    
C126  H34   1.107718 S    
O27   C23   1.269737 A    
C118  N38   1.473301 S    
N1    O54   1.296753 A    
C91   C95   1.578941 S    
C109  C113  1.583487 S    
N59   O145  1.301651 A    
C117  H21   1.107482 S    
N6    O63   1.300226 A    
C122  N54   1.496590 S    
Zn6   O22   1.956904 S    
C129  C130  1.564090 S    
Zn10  O18   1.951562 S    
Zn5   O1    1.952064 S    
N80   H76   1.044856 S    
N31   H42   1.044581 S    
C73   C79   1.540683 S    
C27   C39   1.648363 S    
C74   C80   1.540664 S    
Zn9   O1    1.950829 S    
N22   O95   1.300974 A    
C33   N69   1.472564 S    
C52   C84   1.197726 T    
O41   C13   1.275282 A    
Zn12  O20   1.951562 S    
N68   O164  1.303214 A    
N7    O65   1.300223 A    
C55   C87   1.197626 T    
N15   O81   1.300216 A    
N46   O127  1.301316 A    
C56   C88   1.197640 T    
N60   O147  1.301470 A    
C43   C57   1.540555 S    
O45   C1    1.284982 A    
N11   O74   1.300161 A    
C26   C38   1.635097 S    
C132  N60   1.476433 S    
C41   C59   1.540542 S    
C74   N6    1.456975 S    
C92   N20   1.486332 S    
C79   N83   1.455927 S    
O33   C21   1.289024 A    
C99   C107  1.576057 S    
C34   N70   1.478533 S    
N3    O57   1.303584 A    
O15   C11   1.274367 A    
C131  N59   1.478690 S    
C27   N35   1.501057 S    
N41   H45   1.045801 S    
Zn7   O3    1.952064 S    
C99   C115  1.565506 S    
N20   O92   1.302635 A    
N23   O98   1.302631 A    
N45   O125  1.301284 A    
O44   C16   1.284180 A    
N36   O115  1.299932 A    
C35   N71   1.471456 S    
O20   C16   1.270362 A    
C19   C135  1.494202 S    
N62   O152  1.302106 A    
O10   C6    1.285088 A    
C16   C108  1.490274 S    
O48   C4    1.284854 A    
C91   N23   1.489315 S    
N40   O123  1.301759 A    
C132  H32   1.102897 S    
C78   N82   1.455921 S    
O14   C10   1.282484 A    
C103  N31   1.478622 S    
C104  H20   1.110197 S    
Zn16  O8    1.914042 S    
N65   O157  1.298540 A    
N84   H83   1.044950 S    
C34   C38   1.622412 S    
N75   O170  1.300129 A    
C123  C135  1.596948 S    
C99   N43   1.474149 S    
Zn1   O33   1.956486 S    
O30   C18   1.283999 A    
C122  C134  1.611959 S    
