data_mof_unit_52298.cif
_audit_creation_date              2012-10-26T19:43:50-0400
_audit_creation_method            fapswitch 2.2
_symmetry_space_group_name_H-M    P1
_symmetry_Int_Tables_number       1
_space_group_crystal_system       triclinic
_cell_length_a                    12.341052
_cell_length_b                    13.20588
_cell_length_c                    13.8576
_cell_angle_alpha                 105.209524
_cell_angle_beta                  73.886172
_cell_angle_gamma                 116.657008
_cell_volume                      1913.9366544

loop_
_atom_site_label
_atom_site_type_symbol
_atom_type_description
_atom_site_fract_x
_atom_site_fract_y
_atom_site_fract_z
_atom_type_partial_charge
C1    C     C_R   0.144354 0.713566 0.509644 0.521236
C2    C     C_R   0.563198 0.022934 0.472454 0.034977
C3    C     C_R   0.608100 0.945455 0.400231 0.056403
C4    C     C_R   0.983604 0.503107 0.686257 0.544536
C5    C     C_R   0.525696 0.838861 0.360878 -0.134780
C6    C     C_R   0.399916 0.805723 0.395336 -0.117274
C7    C     C_R   0.649639 0.131271 0.506535 -0.131290
C8    C     C_R   0.818651 0.086605 0.397828 -0.134174
C9    C     C_R   0.225659 0.836546 0.519198 -0.007204
C10   C     C_R   0.645351 0.680951 0.656468 -0.127432
C11   C     C_R   0.250728 0.349949 0.365451 0.056744
C12   C     C_1   0.971206 0.500040 0.790867 -0.030347
C13   C     C_R   0.348164 0.315795 0.337449 -0.156720
C14   C     C_R   0.447085 0.371876 0.388906 -0.124022
C15   C     C_R   0.449839 0.463526 0.469634 -0.019353
C16   C     C_R   0.856212 0.286435 0.485760 0.547069
C17   C     C_R   0.347278 0.494737 0.496155 0.136737
C18   C     C_R   0.550246 0.525411 0.524414 -0.057341
C19   C     C_R   0.546943 0.618371 0.603283 0.050544
C20   C     C_R   0.445683 0.647921 0.629376 0.224672
C21   C     C_R   0.347670 0.585373 0.576683 -0.087588
C22   C     C_R   0.655673 0.500324 0.503625 0.044422
C23   C     C_R   0.735291 0.976930 0.365444 -0.127601
C24   C     C_R   0.745424 0.651579 0.632430 0.025662
C25   C     C_R   0.016206 0.496534 0.313665 0.545220
C26   C     C_1   0.027911 0.498194 0.208773 -0.023284
C27   C     C_2   0.048068 0.504028 0.015948 -0.126933
C28   C     C_2   0.950834 0.493124 0.983390 -0.124144
C29   C     C_1   0.960943 0.496728 0.878792 -0.065406
C30   C     C_1   0.037907 0.500632 0.120656 -0.054492
C31   C     C_3   0.347003 0.732931 0.774877 -0.004561
C32   C     C_3   0.286813 0.809849 0.768869 -0.251621
C33   C     C_3   0.190433 0.817836 0.863711 -0.483983
C34   C     C_R   0.775284 0.164952 0.466187 0.000056
C35   C     C_R   0.178528 0.914043 0.584888 -0.138515
C36   C     C_R   0.256167 0.027940 0.610042 -0.143255
C37   C     C_R   0.382460 0.065427 0.573700 -0.123501
C38   C     C_R   0.433934 0.989655 0.507429 0.036026
C39   C     C_R   0.352603 0.876165 0.473915 0.030057
Cu1   Cu    Cu3+1 0.899780 0.525060 0.522890 0.930370
Cu2   Cu    Cu3+1 0.100220 0.474940 0.477110 0.913892
H1    H     H_    0.863351 0.481465 0.035016 0.135678
H2    H     H_    0.135631 0.515931 0.964344 0.125400
H3    H     H_    0.915991 0.111756 0.365868 0.121148
H4    H     H_    0.558544 0.781050 0.302341 0.107436
H5    H     H_    0.769934 0.918025 0.310483 0.107528
H6    H     H_    0.622100 0.192922 0.563054 0.117807
H7    H     H_    0.081722 0.885811 0.619674 0.127435
H8    H     H_    0.436362 0.154744 0.597834 0.104373
H9    H     H_    0.218672 0.087018 0.660754 0.120694
H10   H     H_    0.378831 0.760620 0.848772 0.151488
H11   H     H_    0.277635 0.642294 0.774714 0.111205
H12   H     H_    0.340576 0.725065 0.357469 0.149621
H13   H     H_    0.358717 0.897690 0.760487 0.192128
H14   H     H_    0.242085 0.775219 0.701160 0.159445
H15   H     H_    0.117128 0.731470 0.874042 0.158617
H16   H     H_    0.147635 0.872571 0.855490 0.146735
H17   H     H_    0.234071 0.856698 0.932186 0.148322
H18   H     H_    0.821125 0.699683 0.673354 0.119945
H19   H     H_    0.645125 0.751952 0.717120 0.146497
H20   H     H_    0.666174 0.431773 0.444914 0.123310
H21   H     H_    0.174184 0.305754 0.325269 0.123445
H22   H     H_    0.519953 0.341830 0.363664 0.100852
H23   H     H_    0.347038 0.245598 0.275619 0.100612
H24   H     H_    0.273775 0.611751 0.600562 0.185381
N1    N     N_R   0.748810 0.563010 0.557590 -0.230917
N2    N     N_R   0.250540 0.437620 0.443020 -0.231420
O1    O     O_R   0.025040 0.682470 0.528790 -0.500458
O2    O     O_R   0.194310 0.640150 0.490130 -0.529827
O3    O     O_R   0.903380 0.524130 0.659910 -0.491892
O4    O     O_R   0.072660 0.481800 0.621240 -0.515703
O5    O     O_R   0.805690 0.359850 0.509870 -0.508847
O6    O     O_R   0.974960 0.317530 0.471210 -0.502066
O7    O     O_R   0.927340 0.518200 0.378760 -0.492610
O8    O     O_R   0.096620 0.475870 0.340090 -0.505421
O9    O     O_3   0.452710 0.748523 0.696862 -0.579742

loop_
_geom_bond_atom_site_label_1
_geom_bond_atom_site_label_2
_ccdc_geom_bond_type
C15   C18   A    
C33   H17   S    
C12   C29   T    
C3    C23   A    
C2    C7    A    
C16   O5    A    
C31   H11   S    
C11   H21   S    
C8    C23   A    
C4    O3    A    
Cu2   N2    S    
Cu1   O3    S    
C36   C37   A    
C18   C19   A    
C38   C39   A    
C9    C39   A    
C1    O1    A    
C20   O9    S    
C25   O7    A    
C22   N1    A    
C16   C34   S    
C19   C20   A    
C4    C12   S    
C32   H14   S    
C24   N1    A    
Cu2   O4    S    
C33   H15   S    
C23   H5    S    
Cu1   N1    S    
C13   C14   A    
C27   C30   S    
C35   H7    S    
C32   H13   S    
C11   N2    A    
C17   N2    A    
C16   O6    A    
C1    C9    S    
C10   C24   A    
C25   C26   S    
C5    H4    S    
C17   C21   A    
C25   O8    A    
C35   C36   A    
C7    H6    S    
C10   H19   S    
C37   C38   A    
Cu2   O8    S    
C37   H8    S    
C2    C38   A    
C31   C32   S    
C10   C19   A    
C6    C39   A    
C8    C34   A    
Cu1   Cu2   S    
C26   C30   T    
C7    C34   A    
C6    H12   S    
C36   H9    S    
Cu2   O2    S    
C15   C17   A    
C28   C29   S    
C33   H16   S    
Cu1   O5    S    
C21   H24   S    
C18   C22   A    
C8    H3    S    
C31   H10   S    
C3    C5    A    
C32   C33   S    
C2    C3    A    
C22   H20   S    
C11   C13   A    
C31   O9    S    
C5    C6    A    
C13   H23   S    
C24   H18   S    
C14   H22   S    
C28   H1    S    
Cu1   O7    S    
C1    O2    A    
Cu2   O6    S    
C27   H2    S    
C20   C21   A    
Cu1   O1    S    
C27   C28   D    
C9    C35   A    
C14   C15   A    
C4    O4    A    
