data_mof_unit_53242.cif
_audit_creation_date              2013-03-05T16:03:02-0500
_audit_creation_method            fapswitch 2.2
_symmetry_space_group_name_H-M    P1
_symmetry_Int_Tables_number       1
_space_group_crystal_system       triclinic
_cell_length_a                    6.950539
_cell_length_b                    18.354797
_cell_length_c                    20.114764
_cell_angle_alpha                 68.404741
_cell_angle_beta                  91.157734
_cell_angle_gamma                 90.516727
_cell_volume                      2385.53889557

loop_
_atom_site_label
_atom_site_type_symbol
_atom_site_description
_atom_site_fract_x
_atom_site_fract_y
_atom_site_fract_z
_atom_type_partial_charge
O1    O     O_R   0.488990 0.443920 0.942160 -0.568064
O2    O     O_R   0.823840 0.406530 0.087600 -0.533864
O3    O     O_R   0.999650 0.556080 0.057840 -0.554459
C1    C     C_R   0.657794 0.381433 0.114138 0.977015
O4    O     O_R   0.818390 0.434590 0.944530 -0.533169
O5    O     O_R   0.994160 0.584350 0.913750 -0.592343
C2    C     C_R   0.648562 0.420641 0.923963 0.982439
O6    O     O_R   0.494480 0.415650 0.086250 -0.581395
O7    O     O_3   0.662600 0.549100 0.990070 -0.277316
V1    V     V_3+5 0.935320 0.490890 0.001840 1.351234
O8    O     O_R   0.324240 0.593470 0.912400 -0.601608
C3    C     C_R   0.155088 0.615556 0.884363 1.013388
O9    O     O_R   0.329690 0.565410 0.055470 -0.575020
C4    C     C_R   0.162412 0.579757 0.075607 0.985650
V2    V     V_3+5 0.435990 0.509110 0.998160 1.296980
O10   O     O_3   0.158840 0.450900 0.009930 -0.206087
C5    C     C_3   0.991686 0.673061 0.266149 -0.339766
C6    C     C_3   0.339681 0.707010 0.244965 -0.556016
C7    C     C_3   0.331402 0.756678 0.293633 0.232268
H1    H     H_    0.032144 0.677782 0.373114 0.183839
H2    H     H_    0.027452 0.610509 0.296926 0.178806
H3    H     H_    0.455102 0.727946 0.204959 0.254421
H4    H     H_    0.376951 0.645298 0.278432 0.173411
H5    H     H_    0.362855 0.715777 0.349440 0.068963
C8    C     C_1   0.108833 0.872966 0.379864 -0.133236
C9    C     C_3   0.142547 0.709220 0.206581 0.099279
C10   C     C_3   0.988124 0.717947 0.318476 -0.571747
C11   C     C_3   0.124330 0.790328 0.292745 0.038845
C12   C     C_3   0.054748 0.841055 0.214949 0.245814
C13   C     C_3   0.096018 0.797600 0.162997 0.088277
C14   C     C_1   0.114134 0.835041 0.341469 0.144640
C15   C     C_1   0.151577 0.663268 0.159202 0.112829
C16   C     C_1   0.157063 0.625527 0.120803 -0.112070
H6    H     H_    0.227020 0.824224 0.132261 0.197668
H7    H     H_    0.897060 0.849460 0.216418 0.182063
H8    H     H_    0.845942 0.673334 0.242481 0.221818
H9    H     H_    0.838484 0.736092 0.322328 0.241226
H10   H     H_    0.996906 0.533360 0.676258 0.151693
C17   C     C_R   0.259082 0.768979 0.877430 -0.298645
C18   C     C_R   0.302989 0.842644 0.878092 0.541952
C19   C     C_R   0.266868 0.908730 0.817757 -0.273786
C20   C     C_R   0.190400 0.902090 0.755352 0.267160
C21   C     C_R   0.166185 0.826519 0.750606 -0.027794
C22   C     C_R   0.191469 0.758951 0.814319 0.037945
C23   C     C_R   0.117403 0.816464 0.685248 -0.243957
C24   C     C_R   0.081228 0.740015 0.685233 0.088577
C25   C     C_R   0.099073 0.672220 0.749675 -0.014644
C26   C     C_R   0.147752 0.682822 0.814912 -0.224178
C27   C     C_R   0.029376 0.730102 0.620584 -0.158722
C28   C     C_R   0.995296 0.656498 0.618469 -0.184344
C29   C     C_R   0.017995 0.590424 0.679749 -0.165383
C30   C     C_R   0.072957 0.596532 0.744642 0.381730
H11   H     H_    0.280895 0.720007 0.927181 0.147234
H12   H     H_    0.287708 0.966054 0.820696 0.201412
H13   H     H_    0.014571 0.779063 0.570363 0.097570
H14   H     H_    0.955056 0.650572 0.568410 0.135635
H15   H     H_    0.504034 0.470857 0.313285 0.145097
C31   C     C_R   0.791554 0.219179 0.132704 0.254404
C32   C     C_R   0.782568 0.143362 0.131912 -0.171835
C33   C     C_R   0.698757 0.083147 0.187154 -0.127883
C34   C     C_R   0.633692 0.095918 0.246877 0.295562
C35   C     C_R   0.648584 0.171585 0.251087 -0.042839
C36   C     C_R   0.702623 0.236342 0.188907 -0.037320
C37   C     C_R   0.609024 0.183914 0.315059 -0.227616
C38   C     C_R   0.577806 0.260963 0.312639 0.112584
C39   C     C_R   0.609345 0.326904 0.248340 -0.015616
C40   C     C_R   0.661641 0.314411 0.184878 -0.207708
C41   C     C_R   0.512734 0.273395 0.373822 -0.177082
C42   C     C_R   0.477128 0.348319 0.372131 -0.162772
C43   C     C_R   0.518358 0.412868 0.311526 -0.180399
C44   C     C_R   0.593076 0.403508 0.251068 0.314027
H16   H     H_    0.847658 0.130200 0.089152 0.213548
H17   H     H_    0.687197 0.025504 0.184185 0.224302
H18   H     H_    0.485137 0.225402 0.423516 0.105276
H19   H     H_    0.424824 0.356467 0.419259 0.131594
O11   O     O_R   0.770890 0.084490 0.414040 -0.590348
O12   O     O_R   0.445980 0.065450 0.555510 -0.580908
O13   O     O_R   0.270670 0.915620 0.586180 -0.602469
C45   C     C_R   0.615596 0.079890 0.575844 0.994485
O14   O     O_R   0.441480 0.093500 0.412450 -0.575951
O15   O     O_R   0.266140 0.943870 0.442100 -0.543886
C46   C     C_R   0.608096 0.116654 0.385029 0.957519
O16   O     O_R   0.775410 0.056240 0.558120 -0.557379
O17   O     O_3   0.602660 0.950990 0.510100 -0.263160
V3    V     V_3+5 0.329740 0.009100 0.498130 1.268292
O18   O     O_R   0.936120 0.934420 0.444240 -0.576844
C47   C     C_R   0.103567 0.919544 0.424602 0.987984
O19   O     O_R   0.940610 0.906370 0.587310 -0.577197
C48   C     C_R   0.109743 0.884798 0.615953 0.984762
V4    V     V_3+5 0.829110 0.990690 0.501470 1.268388
O20   O     O_3   0.106080 0.049010 0.489880 -0.271502
C49   C     C_3   0.754011 0.283674 0.676412 -0.417532
C50   C     C_3   0.420364 0.234545 0.716388 -0.503931
C51   C     C_3   0.421141 0.283603 0.765686 0.228771
H20   H     H_    0.697794 0.391705 0.695580 0.160234
H21   H     H_    0.698782 0.320785 0.622291 0.160548
H22   H     H_    0.326593 0.181929 0.737934 0.221073
H23   H     H_    0.358578 0.270619 0.663003 0.141049
H24   H     H_    0.371008 0.343821 0.732459 0.071711
C52   C     C_1   0.638267 0.374920 0.878625 -0.085628
C53   C     C_3   0.627885 0.208977 0.707572 0.321388
C54   C     C_3   0.754235 0.331824 0.725949 -0.435316
C55   C     C_3   0.629983 0.290795 0.792886 0.171413
C56   C     C_3   0.715419 0.207668 0.832182 -0.302752
C57   C     C_3   0.709254 0.159228 0.782929 -0.333103
C58   C     C_1   0.633830 0.336989 0.840265 0.054778
C59   C     C_1   0.627787 0.163185 0.659925 -0.017051
C60   C     C_1   0.625076 0.125530 0.621303 -0.154779
H25   H     H_    0.856950 0.138716 0.778444 0.193027
H26   H     H_    0.618309 0.106202 0.807546 0.202604
H27   H     H_    0.867022 0.212678 0.848599 0.232373
H28   H     H_    0.904283 0.266945 0.670264 0.177164
H29   H     H_    0.904700 0.338932 0.742450 0.226206
H30   H     H_    0.637119 0.176108 0.882247 0.217332
Cl1   Cl    Cl    0.148990 0.939047 0.181613 -0.502364
Cl2   Cl    Cl    0.392233 0.852316 0.956751 -0.513015
N1    N     N_R   0.110851 0.971583 0.702836 0.226180
O21   O     O_R   0.925098 0.975784 0.693510 -0.413693
O22   O     O_R   0.210434 0.036184 0.682114 -0.424827
Cl3   Cl    Cl    0.121633 0.505087 0.813206 -0.654398
N2    N     N_R   0.926442 0.271358 0.085643 0.234978
O23   O     O_R   0.077738 0.292212 0.113555 -0.355170
O24   O     O_R   0.932091 0.276770 0.019364 -0.381510
N3    N     N_R   0.527788 0.034204 0.297693 0.232757
O25   O     O_R   0.340835 0.037218 0.295901 -0.367977
O26   O     O_R   0.614708 0.970015 0.337101 -0.339200
N4    N     N_R   0.682709 0.470581 0.199720 0.211598
O27   O     O_R   0.868970 0.470492 0.194590 -0.428039
O28   O     O_R   0.592305 0.537293 0.175805 -0.417042
N5    N     N_R   0.287505 0.251308 0.825147 0.228852
O29   O     O_R   0.281018 0.176493 0.862632 -0.387206
O30   O     O_R   0.181350 0.298572 0.843538 -0.375117
N6    N     N_R   0.479393 0.817981 0.275472 0.252645
O31   O     O_R   0.520199 0.859180 0.209344 -0.325544
O32   O     O_R   0.581191 0.827790 0.326464 -0.399752
N7    N     N_R   0.937350 0.807982 0.110989 0.257911
O33   O     O_R   0.764288 0.783839 0.131573 -0.365788
O34   O     O_R   0.968767 0.843004 0.043023 -0.285133

loop_
_geom_bond_atom_site_label_1
_geom_bond_atom_site_label_2
_geom_bond_distance
_ccdc_geom_bond_type
C53   C59   1.489263 S    
C57   H26   1.113026 S    
C9    C15   1.489514 S    
C50   C51   1.565599 S    
C19   C20   1.399110 A    
O2    C1    1.289733 A    
C6    C9    1.552534 S    
C49   H21   1.112841 S    
C3    C26   1.485660 S    
C4    C16   1.448353 S    
V3    O20   1.703361 S    
C18   Cl2   1.756356 S    
C23   C24   1.423415 A    
C24   C27   1.417066 A    
O14   V3    2.010072 S    
C34   N3    1.425769 S    
C5    C9    1.558362 S    
C11   C12   1.566727 S    
C42   C43   1.384477 A    
N1    O22   1.300711 A    
O5    C3    1.301754 A    
C41   H18   1.080974 S    
V2    O10   2.168756 S    
C33   H17   1.083628 S    
C8    C47   1.452670 S    
C6    C7    1.566164 S    
C1    O6    1.313555 A    
C35   C37   1.418600 A    
O8    V2    1.994500 S    
C25   C26   1.429375 A    
C41   C42   1.387442 A    
C59   C60   1.214892 T    
C42   H19   1.082799 S    
C43   C44   1.399677 A    
O1    V2    1.962937 S    
C5    H8    1.109807 S    
H15   C43   1.083424 S    
C23   C48   1.493359 S    
O7    V1    2.150096 S    
H20   C54   1.113072 S    
C49   C54   1.556319 S    
C32   H16   1.083275 S    
C39   C40   1.431752 A    
C12   Cl1   1.795132 S    
O12   V3    1.969930 S    
C32   C33   1.380622 A    
C6    H3    1.109826 S    
O9    C4    1.299340 A    
N6    O32   1.299758 A    
C44   N4    1.430629 S    
C54   C55   1.553932 S    
O17   V4    1.713383 S    
C56   C57   1.555596 S    
O12   C45   1.296950 A    
O13   C48   1.302339 A    
C53   C57   1.551485 S    
C36   C40   1.435967 A    
C2    C52   1.449359 S    
C13   H6    1.114651 S    
C6    H4    1.113668 S    
C5    C10   1.557877 S    
O17   V3    2.150113 S    
N7    O34   1.300986 A    
O18   V4    1.966917 S    
O11   C46   1.304279 A    
C17   C18   1.388219 A    
O4    C2    1.297236 A    
O18   C47   1.299556 A    
C49   H28   1.113303 S    
H10   C29   1.083692 S    
C31   C32   1.398360 A    
C27   H13   1.080687 S    
C5    H2    1.113099 S    
C29   C30   1.396123 A    
C33   C34   1.390602 A    
N5    O30   1.301007 A    
C21   C22   1.426983 A    
N4    O28   1.301421 A    
C12   C13   1.562135 S    
C1    C40   1.499766 S    
C39   C44   1.432710 A    
C38   C41   1.415010 A    
C35   C36   1.426467 A    
C28   C29   1.382134 A    
C51   N5    1.468915 S    
C7    C11   1.568479 S    
C21   C23   1.427174 A    
C37   C46   1.492057 S    
N2    O23   1.301799 A    
O15   C47   1.300225 A    
O3    C4    1.298271 A    
C49   C53   1.552132 S    
C56   H30   1.110370 S    
C30   Cl3   1.766694 S    
O13   V3    2.007273 S    
O14   C46   1.292419 A    
C18   C19   1.384495 A    
O19   V4    1.994424 S    
C51   C55   1.562504 S    
C9    C13   1.567119 S    
O6    V2    1.998424 S    
C13   N7    1.468789 S    
O9    V2    1.966649 S    
N6    O31   1.300989 A    
C20   C21   1.433203 A    
C17   C22   1.418655 A    
C50   C53   1.554337 S    
N4    O27   1.300861 A    
O2    V1    2.009962 S    
C50   H22   1.112329 S    
C55   C56   1.554027 S    
N3    O26   1.299029 A    
C31   C36   1.432931 A    
O16   V4    1.979854 S    
C57   H25   1.113303 S    
C24   C25   1.432851 A    
C31   N2    1.429915 S    
O1    C2    1.298758 A    
C8    C14   1.216436 T    
C11   C14   1.495004 S    
N7    O33   1.300064 A    
O5    V1    2.007198 S    
C56   H27   1.111020 S    
O8    C3    1.295440 A    
C20   N1    1.430332 S    
C25   C30   1.439229 A    
H1    C10   1.113120 S    
C7    N6    1.466060 S    
C12   H7    1.110691 S    
C52   C58   1.214549 T    
C37   C38   1.415588 A    
C7    H5    1.115440 S    
O7    V2    1.716873 S    
O4    V1    1.970064 S    
C54   H29   1.111888 S    
V1    O10   1.703321 S    
N1    O21   1.299762 A    
C15   C16   1.213855 T    
C45   O16   1.299244 A    
V4    O20   2.168745 S    
C17   H11   1.080098 S    
C51   H24   1.115151 S    
C10   H9    1.107780 S    
C45   C60   1.450047 S    
N5    O29   1.301682 A    
C55   C58   1.490376 S    
C38   C39   1.428336 A    
C34   C35   1.424912 A    
C28   H14   1.082878 S    
C19   H12   1.083608 S    
N2    O24   1.301277 A    
O19   C48   1.297609 A    
C27   C28   1.385367 A    
C10   C11   1.555670 S    
O3    V1    1.965355 S    
C50   H23   1.113134 S    
O15   V3    1.965372 S    
C22   C26   1.423110 A    
O11   V4    1.993936 S    
N3    O25   1.300307 A    
