data_mof_unit_28682.cif
_audit_creation_date              2012-12-10T17:35:03-0500
_audit_creation_method            fapswitch 2.2
_symmetry_space_group_name_H-M    P1
_symmetry_Int_Tables_number       1
_space_group_crystal_system       triclinic
_cell_length_a                    12.098766
_cell_length_b                    12.89884
_cell_length_c                    15.777356
_cell_angle_alpha                 92.755564
_cell_angle_beta                  85.867218
_cell_angle_gamma                 92.878193
_cell_volume                      2450.27077552

loop_
_atom_site_label
_atom_site_type_symbol
_atom_type_description
_atom_site_fract_x
_atom_site_fract_y
_atom_site_fract_z
_atom_type_partial_charge
C1    C     C_R   0.521715 0.700022 0.496116 0.892838
C2    C     C_R   0.535303 0.810604 0.487299 -0.069856
C3    C     C_R   0.649267 0.965183 0.455468 -0.009852
C4    C     C_R   0.499792 0.501272 0.661555 0.913365
C5    C     C_R   0.639035 0.858056 0.464459 -0.253150
C6    C     C_R   0.441603 0.868581 0.499146 -0.280257
C7    C     C_R   0.451079 0.974768 0.499433 0.179081
C8    C     C_R   0.555106 0.024544 0.477086 0.123340
C9    C     C_R   0.562020 0.132074 0.479017 -0.282137
C10   C     C_R   0.367898 0.138456 0.529555 -0.202718
C11   C     C_R   0.357980 0.031456 0.524605 -0.241535
C12   C     C_3   0.379942 0.490531 0.056348 -0.400658
C13   C     C_R   0.953301 0.400502 0.417904 -0.310637
C14   C     C_R   0.838048 0.410341 0.426993 0.031052
C15   C     C_R   0.857654 0.542816 0.534417 -0.028776
C16   C     C_R   0.478926 0.299876 0.502334 0.884448
C17   C     C_R   0.974090 0.535142 0.527661 0.070682
C18   C     C_R   0.023817 0.463504 0.468891 0.053409
C19   C     C_R   0.141975 0.456553 0.463560 0.038245
C20   C     C_R   0.156437 0.588192 0.573817 0.118694
C21   C     C_R   0.040821 0.596874 0.579491 -0.351119
C22   C     C_R   0.500283 0.498865 0.338361 0.912936
C23   C     C_3   0.501193 0.496580 0.082490 0.231655
C24   C     C_3   0.377619 0.497806 0.958764 -0.154832
C25   C     C_3   0.558764 0.604009 0.953838 -0.130119
C26   C     C_3   0.556243 0.601230 0.052462 -0.426295
C27   C     C_1   0.501096 0.496762 0.249340 -0.176896
C28   C     C_3   0.499190 0.502783 0.917229 0.178778
C29   C     C_2   0.303334 0.412205 0.921242 0.369565
C30   C     C_R   0.756069 0.010982 0.418806 0.118623
C31   C     C_R   0.856517 0.993980 0.454280 -0.148653
C32   C     C_R   0.956808 0.034426 0.416700 -0.133189
C33   C     C_R   0.957332 0.091281 0.343384 -0.108708
C34   C     C_3   0.569393 0.406633 0.038075 -0.125381
C35   C     C_R   0.857926 0.108478 0.307856 -0.150300
C36   C     C_R   0.757832 0.067873 0.345016 -0.174153
C37   C     C_R   0.191530 0.376268 0.405021 0.173626
C38   C     C_R   0.188621 0.273233 0.429925 -0.139179
C39   C     C_R   0.227647 0.194498 0.373251 -0.174180
C40   C     C_R   0.265929 0.217491 0.290479 -0.123167
C41   C     C_R   0.262713 0.318783 0.263693 -0.138735
C42   C     C_R   0.223579 0.397767 0.320172 -0.127842
C43   C     C_R   0.216621 0.655959 0.634533 0.175977
C44   C     C_R   0.221240 0.763850 0.625464 -0.197495
C45   C     C_3   0.559953 0.405914 0.940631 -0.392866
C46   C     C_R   0.265554 0.831248 0.687746 -0.137284
C47   C     C_R   0.301078 0.791687 0.761345 -0.116413
C48   C     C_R   0.288657 0.685285 0.773843 -0.146396
C49   C     C_R   0.243639 0.617920 0.711889 -0.085398
C50   C     C_2   0.675068 0.623887 0.913722 0.409058
C51   C     C_R   0.545068 0.299059 0.073705 0.134007
C52   C     C_R   0.626229 0.254605 0.118316 -0.150187
C53   C     C_R   0.609730 0.153800 0.146798 -0.126005
C54   C     C_R   0.511237 0.096573 0.133101 -0.115428
C55   C     C_R   0.429848 0.139407 0.089162 -0.161984
C56   C     C_1   0.501611 0.495632 0.174010 -0.095501
C57   C     C_R   0.446725 0.239499 0.059039 -0.154175
C58   C     C_1   0.498821 0.504848 0.825667 -0.149555
C59   C     C_1   0.499248 0.503730 0.750423 -0.178439
C60   C     C_R   0.468492 0.188544 0.503524 -0.033234
H1    H     H_    0.334295 0.556080 0.088423 0.168655
H2    H     H_    0.985798 0.343742 0.371123 0.159579
H3    H     H_    0.002767 0.651633 0.625768 0.157492
H4    H     H_    0.784917 0.361611 0.387749 0.131243
H5    H     H_    0.818967 0.598090 0.579639 0.123800
H6    H     H_    0.510891 0.671448 0.938476 0.080964
H7    H     H_    0.508351 0.667127 0.081426 0.153999
H8    H     H_    0.640974 0.612471 0.075668 0.205900
H9    H     H_    0.516077 0.333975 0.916624 0.148895
H10   H     H_    0.644349 0.404993 0.907660 0.213825
H11   H     H_    0.336981 0.352718 0.877220 0.070683
H12   H     H_    0.335138 0.419383 0.079181 0.176467
H13   H     H_    0.857096 0.949631 0.510805 0.124695
H14   H     H_    0.034078 0.021193 0.444114 0.117863
H15   H     H_    0.034504 0.121497 0.313427 0.139575
H16   H     H_    0.858574 0.152613 0.251174 0.127765
H17   H     H_    0.681160 0.080484 0.316699 0.126568
H18   H     H_    0.154620 0.254102 0.492888 0.118601
H19   H     H_    0.225807 0.115154 0.392779 0.140836
H20   H     H_    0.295317 0.156275 0.246619 0.141222
H21   H     H_    0.289488 0.335587 0.198999 0.139239
H22   H     H_    0.219109 0.475583 0.298104 0.133528
H23   H     H_    0.658010 0.428228 0.048246 0.171062
H24   H     H_    0.188513 0.795736 0.570660 0.114295
H25   H     H_    0.270603 0.914183 0.679779 0.136167
H26   H     H_    0.335222 0.843688 0.809720 0.126516
H27   H     H_    0.312299 0.655456 0.832093 0.127520
H28   H     H_    0.229657 0.536253 0.724313 0.144743
H29   H     H_    0.688465 0.677579 0.862688 0.058126
H30   H     H_    0.703562 0.297122 0.129858 0.121076
H31   H     H_    0.674358 0.119504 0.178157 0.121083
H32   H     H_    0.498641 0.018566 0.155500 0.123394
H33   H     H_    0.354112 0.094443 0.077353 0.131097
H34   H     H_    0.640712 0.172490 0.463205 0.175474
H35   H     H_    0.384156 0.268055 0.022088 0.128689
H36   H     H_    0.297355 0.181747 0.553698 0.154009
H37   H     H_    0.278514 0.993181 0.542458 0.126521
H38   H     H_    0.710704 0.811444 0.450168 0.168771
H39   H     H_    0.360849 0.831303 0.510071 0.169615
H40   H     H_    0.339215 0.571892 0.947650 0.140844
N1    N     N_R   0.207800 0.519340 0.515510 -0.134795
N2    N     N_R   0.792190 0.480660 0.484490 -0.105111
O1    O     O_R   0.421690 0.658830 0.504140 -0.621173
O2    O     O_2   0.753648 0.578444 0.935760 -0.573616
O3    O     O_R   0.609320 0.646410 0.494190 -0.630985
O4    O     O_R   0.406150 0.506210 0.627840 -0.627490
O5    O     O_R   0.593770 0.493790 0.617880 -0.610392
O6    O     O_R   0.390680 0.353590 0.505810 -0.616832
O7    O     O_R   0.578310 0.341170 0.495860 -0.631302
O8    O     O_R   0.406230 0.506210 0.382120 -0.616739
O9    O     O_R   0.593850 0.493790 0.372160 -0.619808
O10   O     O_2   0.203740 0.409044 0.940631 -0.560257
Zn1   Zn    Zn3+2 0.374720 0.508290 0.506640 0.952316
Zn2   Zn    Zn3+2 0.625280 0.491710 0.493360 0.949093

loop_
_geom_bond_atom_site_label_1
_geom_bond_atom_site_label_2
_ccdc_geom_bond_type
C50   O2    D    
N1    Zn1   S    
C41   C42   A    
C29   O10   D    
C52   H30   S    
C35   C36   A    
C42   H22   S    
C55   H33   S    
C7    C8    A    
C53   C54   A    
C25   C28   S    
C7    C11   A    
C12   C23   S    
C34   C51   S    
C13   C18   A    
C26   H7    S    
O1    Zn1   S    
C18   C19   A    
C36   H17   S    
C32   H14   S    
C30   C31   A    
C14   N2    A    
C15   H5    S    
C1    C2    S    
C16   C60   S    
C23   C26   S    
C37   C42   A    
C25   C50   S    
C19   C37   S    
C54   C55   A    
C33   H15   S    
C13   H2    S    
C31   C32   A    
C8    C9    A    
C22   O8    A    
C53   H31   S    
C40   H20   S    
C51   C57   A    
C1    O1    A    
C46   H25   S    
C12   H12   S    
C14   H4    S    
C13   C14   A    
C49   H28   S    
C2    C6    A    
C44   C46   A    
C16   O7    A    
C28   C45   S    
C4    O5    A    
C35   H16   S    
O4    Zn1   S    
C45   H9    S    
C51   C52   A    
C47   H26   S    
O3    Zn2   S    
C23   C56   S    
C3    C8    A    
C39   C40   A    
C27   C56   T    
C43   C49   A    
C20   N1    A    
C38   H18   S    
C3    C5    A    
C58   C59   T    
C4    O4    A    
C17   C21   A    
C39   H19   S    
O6    Zn1   S    
C3    C30   S    
C10   C60   A    
C43   C44   A    
O5    Zn2   S    
C54   H32   S    
C37   C38   A    
N2    Zn2   S    
C50   H29   S    
C47   C48   A    
C10   H36   S    
C23   C34   S    
C41   H21   S    
C17   C18   A    
C48   H27   S    
C34   C45   S    
C5    H38   S    
O8    Zn1   S    
O7    Zn2   S    
C40   C41   A    
C22   C27   S    
C55   C57   A    
C2    C5    A    
C34   H23   S    
C20   C43   S    
C52   C53   A    
C15   C17   A    
C46   C47   A    
C48   C49   A    
C45   H10   S    
C24   H40   S    
C25   H6    S    
C24   C28   S    
C44   H24   S    
C6    C7    A    
C28   C58   S    
C12   C24   S    
C30   C36   A    
C11   H37   S    
C9    C60   A    
C26   H8    S    
C6    H39   S    
C25   C26   S    
C32   C33   A    
C12   H1    S    
C19   N1    A    
C38   C39   A    
C4    C59   S    
C33   C35   A    
O9    Zn2   S    
C15   N2    A    
C21   H3    S    
C31   H13   S    
C10   C11   A    
C16   O6    A    
C24   C29   S    
C20   C21   A    
C22   O9    A    
C57   H35   S    
C9    H34   S    
C1    O3    A    
C29   H11   S    
