data_mof_unit_45705.cif
_audit_creation_date              2012-12-11T14:17:46-0500
_audit_creation_method            fapswitch 2.2
_symmetry_space_group_name_H-M    P1
_symmetry_Int_Tables_number       1
_space_group_crystal_system       triclinic
_cell_length_a                    11.049818
_cell_length_b                    11.175186
_cell_length_c                    18.796739
_cell_angle_alpha                 89.44674
_cell_angle_beta                  90.104866
_cell_angle_gamma                 120.66545
_cell_volume                      1996.40463529

loop_
_atom_site_label
_atom_site_type_symbol
_atom_type_description
_atom_site_fract_x
_atom_site_fract_y
_atom_site_fract_z
_atom_type_partial_charge
C1    C     C_R   0.519763 0.460682 0.147789 0.569528
C2    C     C_R   0.539134 0.060015 0.147678 0.552094
C3    C     C_R   0.940544 0.480535 0.147967 0.551840
C4    C     C_R   0.453878 0.521486 0.854727 0.589229
C5    C     C_R   0.069032 0.546767 0.854876 0.580115
C6    C     C_R   0.478529 0.931526 0.854763 0.587883
C7    C     C_R   0.448008 0.044329 0.469739 0.387266
C8    C     C_R   0.913857 0.373746 0.473340 0.387831
C9    C     C_R   0.623208 0.513084 0.481220 0.366744
C10   C     C_R   0.924441 0.389488 0.546985 0.378458
C11   C     C_R   0.428290 0.002968 0.539554 0.430371
C12   C     C_R   0.596372 0.542021 0.548899 0.407310
C13   C     C_R   0.659642 0.850959 0.539243 -0.068569
C14   C     C_R   0.050867 0.765524 0.551033 0.007522
C15   C     C_R   0.203148 0.361803 0.543311 -0.099940
C16   C     C_R   0.126299 0.744870 0.413072 -0.090209
C17   C     C_R   0.606941 0.848685 0.394779 -0.072692
C18   C     C_R   0.251658 0.240466 0.431520 0.016471
C19   C     C_R   0.742288 0.832125 0.489723 -0.101344
C20   C     C_R   0.100773 0.878569 0.504679 -0.098663
C21   C     C_R   0.092869 0.241264 0.514893 -0.087613
C22   C     C_R   0.140788 0.868812 0.435978 -0.102466
C23   C     C_R   0.709774 0.821477 0.417967 -0.088798
C24   C     C_R   0.116540 0.182591 0.457423 -0.134312
C25   C     C_R   0.543204 0.418843 0.361673 0.635026
C26   C     C_R   0.540365 0.057284 0.351764 0.588583
C27   C     C_R   0.935101 0.478714 0.354478 0.585082
C28   C     C_R   0.429500 0.538867 0.637728 0.535792
C29   C     C_R   0.058886 0.544933 0.647011 0.576351
C30   C     C_R   0.455263 0.875758 0.638667 0.542887
C31   C     C_R   0.493245 0.974100 0.929325 0.016275
C32   C     C_R   0.027241 0.519320 0.929828 0.017907
C33   C     C_R   0.481239 0.506888 0.929508 0.015849
C34   C     C_R   0.010635 0.498243 0.078708 0.013958
C35   C     C_R   0.486812 0.991757 0.078218 0.015136
C36   C     C_R   0.502782 0.512769 0.078290 0.012495
C37   C     C_R   0.414649 0.028426 0.960347 -0.003999
C38   C     C_R   0.973788 0.387182 0.962450 -0.004586
C39   C     C_R   0.615142 0.587921 0.961168 -0.002882
C40   C     C_R   0.988082 0.380912 0.037805 0.008267
C41   C     C_R   0.393159 0.015276 0.035776 0.008465
C42   C     C_R   0.621592 0.608622 0.036347 0.007739
C43   C     C_R   0.562335 0.938824 0.046000 -0.145727
C44   C     C_R   0.062792 0.626165 0.044972 -0.147557
C45   C     C_R   0.373290 0.435137 0.045453 -0.147506
C46   C     C_R   0.077773 0.637770 0.972356 -0.152513
C47   C     C_R   0.559631 0.923268 0.973481 -0.155354
C48   C     C_R   0.361423 0.437996 0.972882 -0.156661
C49   C     C_R   0.354059 0.092335 0.919548 0.093204
C50   C     C_R   0.909765 0.261753 0.923097 0.093391
C51   C     C_R   0.742150 0.651762 0.921066 0.094129
C52   C     C_R   0.973963 0.256280 0.067765 0.104120
C53   C     C_R   0.282503 0.030706 0.064475 0.104050
C54   C     C_R   0.747465 0.720879 0.065292 0.103344
C55   C     C_R   0.254730 0.116617 0.950590 -0.141441
C56   C     C_R   0.888016 0.139869 0.955105 -0.141688
C57   C     C_R   0.865805 0.753536 0.952236 -0.139907
C58   C     C_R   0.921482 0.138054 0.025957 -0.146020
C59   C     C_R   0.218716 0.084819 0.021650 -0.145409
C60   C     C_R   0.867330 0.788912 0.022791 -0.144752
C61   C     C_R   0.477480 0.917660 0.564045 -0.039679
C62   C     C_R   0.998413 0.521828 0.575161 -0.008812
C63   C     C_R   0.459354 0.506700 0.567384 -0.041309
C64   C     C_R   0.984772 0.491369 0.427545 -0.016540
C65   C     C_R   0.495868 0.986234 0.419913 -0.029788
C66   C     C_R   0.511904 0.433124 0.435377 0.022694
C67   C     C_R   0.557055 0.883575 0.516845 -0.050965
C68   C     C_R   0.038639 0.638705 0.529063 -0.001820
C69   C     C_R   0.344337 0.413872 0.523750 -0.060887
C70   C     C_R   0.057402 0.624894 0.456646 -0.038157
C71   C     C_R   0.546134 0.899572 0.443016 -0.033374
C72   C     C_R   0.369706 0.362133 0.462225 0.051823
Cr1   Cr    Cr6+3 0.768550 0.541320 0.250660 1.094663
Cr2   Cr    Cr6+3 0.458680 0.227230 0.250660 1.077350
Cr3   Cr    Cr6+3 0.772770 0.231450 0.250660 1.114063
Cr4   Cr    Cr6+3 0.541320 0.768550 0.749340 1.079202
Cr5   Cr    Cr6+3 0.227230 0.458680 0.749340 1.077056
Cr6   Cr    Cr6+3 0.231450 0.772770 0.749340 1.082611
H1    H     H_    0.628724 0.914404 0.076675 0.169761
H2    H     H_    0.086753 0.717190 0.074471 0.169902
H3    H     H_    0.281234 0.366487 0.075596 0.168494
H4    H     H_    0.128379 0.741592 0.949495 0.143853
H5    H     H_    0.612298 0.872147 0.951927 0.141647
H6    H     H_    0.256394 0.383440 0.950736 0.141731
H7    H     H_    0.204316 0.160402 0.919185 0.142610
H8    H     H_    0.844655 0.045143 0.924720 0.141651
H9    H     H_    0.961991 0.806409 0.921390 0.141174
H10   H     H_    0.905999 0.042869 0.048889 0.149047
H11   H     H_    0.139697 0.102349 0.043891 0.144957
H12   H     H_    0.963444 0.870185 0.044980 0.148933
H13   H     H_    0.686214 0.847256 0.593766 0.199473
H14   H     H_    0.012623 0.776955 0.601849 0.196990
H15   H     H_    0.178178 0.411577 0.582048 0.149000
H16   H     H_    0.156486 0.739792 0.358868 0.127023
H17   H     H_    0.586099 0.843717 0.338231 0.136384
H18   H     H_    0.257881 0.177020 0.391032 0.191982
H19   H     H_    0.826146 0.816644 0.507687 0.186003
H20   H     H_    0.109857 0.973785 0.523130 0.160919
H21   H     H_    0.988788 0.191393 0.537434 0.221162
H22   H     H_    0.181146 0.955609 0.399548 0.138747
H23   H     H_    0.767042 0.796228 0.380205 0.174895
H24   H     H_    0.030982 0.089161 0.434233 0.129302
O1    O     O_R   0.910960 0.572410 0.171010 -0.491183
O2    O     O_R   0.427590 0.338550 0.171010 -0.484646
O3    O     O_R   0.661450 0.089040 0.171010 -0.494508
O4    O     O_R   0.572410 0.910960 0.828990 -0.502571
O5    O     O_R   0.338550 0.427590 0.828990 -0.502128
O6    O     O_R   0.089040 0.661450 0.828990 -0.504898
O7    O     O_R   0.639750 0.528530 0.175600 -0.476034
O8    O     O_R   0.471470 0.111220 0.175600 -0.484444
O9    O     O_R   0.888780 0.360250 0.175600 -0.482813
O10   O     O_R   0.528530 0.639750 0.824400 -0.488582
O11   O     O_R   0.111220 0.471470 0.824400 -0.488603
O12   O     O_R   0.360250 0.888780 0.824400 -0.488437
O13   O     O_R   0.909330 0.572400 0.331540 -0.478329
O14   O     O_R   0.427600 0.336930 0.331540 -0.538687
O15   O     O_R   0.663070 0.090670 0.331540 -0.452883
O16   O     O_R   0.572400 0.909330 0.668460 -0.482933
O17   O     O_R   0.336930 0.427600 0.668460 -0.464817
O18   O     O_R   0.090670 0.663070 0.668460 -0.530720
O19   O     O_R   0.638240 0.528520 0.324410 -0.477212
O20   O     O_R   0.471480 0.109720 0.324410 -0.482933
O21   O     O_R   0.890280 0.361760 0.324410 -0.441800
O22   O     O_R   0.528520 0.638240 0.675590 -0.455628
O23   O     O_R   0.109720 0.471480 0.675590 -0.500046
O24   O     O_R   0.361760 0.890280 0.675590 -0.406629
O25   O     O_3   0.666667 0.333333 0.250630 -0.297934
O26   O     O_3   0.333333 0.666667 0.749370 -0.343140
I1    I     I_    0.423203 0.184798 0.816478 -0.145897
I2    I     I_    0.814184 0.234828 0.820973 -0.165196
I3    I     I_    0.768294 0.585434 0.818885 -0.174542
I4    I     I_    0.056698 0.235019 0.168148 -0.318350
I5    I     I_    0.173863 0.944697 0.163820 -0.351023
I6    I     I_    0.766495 0.822866 0.165007 -0.348168
F1    F     F_    0.434200 0.153038 0.452491 -0.645288
F2    F     F_    0.830852 0.243918 0.447279 -0.590271
F3    F     F_    0.757898 0.562803 0.460349 -0.632737
F4    F     F_    0.857822 0.277015 0.591010 -0.580682
F5    F     F_    0.377534 0.061751 0.584532 -0.559577
F6    F     F_    0.704742 0.608233 0.595263 -0.603603

loop_
_geom_bond_atom_site_label_1
_geom_bond_atom_site_label_2
_ccdc_geom_bond_type
C2    C35   S    
C39   C51   A    
C30   O24   A    
C48   H6    S    
C29   O23   A    
C8    F2    S    
C18   H18   S    
C36   C42   A    
Cr3   O15   S    
C26   O15   A    
Cr6   O26   S    
C53   C59   A    
C54   C60   A    
C7    C11   A    
C17   C23   A    
C34   C40   A    
C55   C59   A    
C21   H21   S    
C4    C33   S    
C43   H1    S    
C54   I6    S    
Cr6   O6    S    
C59   H11   S    
C11   F5    S    
C9    C66   A    
C6    O12   A    
C50   I2    S    
C1    O7    A    
C46   H4    S    
C9    F3    S    
C66   C72   A    
C63   C69   A    
C3    O9    A    
Cr1   O1    S    
C16   C22   A    
C12   F6    S    
C51   C57   A    
C64   C70   A    
C35   C43   A    
C24   H24   S    
C5    C32   S    
C6    C31   S    
C4    O10   A    
C31   C47   A    
C13   H13   S    
C18   C72   A    
Cr3   O9    S    
C10   C62   A    
C32   C46   A    
Cr5   O11   S    
C29   O18   A    
C44   C46   A    
C39   C42   A    
C19   H19   S    
C15   C69   A    
C4    O5    A    
C22   H22   S    
C13   C19   A    
Cr4   O22   S    
C14   C20   A    
Cr5   O5    S    
C16   C70   A    
C18   C24   A    
C25   O14   A    
C12   C63   A    
C27   O21   A    
C19   C23   A    
C57   C60   A    
C30   O16   A    
C3    C34   S    
Cr5   O17   S    
Cr1   O25   S    
C49   I1    S    
Cr4   O16   S    
C57   H9    S    
C52   I4    S    
C55   H7    S    
C69   C72   A    
Cr6   O18   S    
C7    F1    S    
C7    C65   A    
C37   C49   A    
C61   C67   A    
C56   H8    S    
Cr2   O25   S    
C44   H2    S    
Cr4   O10   S    
Cr2   O14   S    
C6    O4    A    
C53   I5    S    
C36   C45   A    
C33   C39   A    
C1    O2    A    
C14   H14   S    
Cr5   O26   S    
C52   C58   A    
C8    C64   A    
C17   H17   S    
C8    C10   A    
Cr2   O20   S    
C20   C22   A    
C17   C71   A    
C32   C38   A    
Cr4   O26   S    
Cr3   O21   S    
C21   C24   A    
Cr6   O24   S    
Cr5   O23   S    
Cr2   O2    S    
C13   C67   A    
C45   C48   A    
C3    O1    A    
C33   C48   A    
C34   C44   A    
C29   C62   S    
Cr6   O12   S    
Cr4   O4    S    
C5    O11   A    
C26   C65   S    
C16   H16   S    
C45   H3    S    
C25   C66   S    
C11   C61   A    
C28   O17   A    
C58   H10   S    
C15   H15   S    
C28   O22   A    
Cr1   O7    S    
C38   C50   A    
C60   H12   S    
C26   O20   A    
C2    O3    A    
Cr1   O19   S    
Cr1   O13   S    
C62   C68   A    
C40   C52   A    
C42   C54   A    
C38   C40   A    
Cr3   O25   S    
C23   H23   S    
C15   C21   A    
C43   C47   A    
C56   C58   A    
C67   C71   A    
C49   C55   A    
C37   C41   A    
C35   C41   A    
C9    C12   A    
C50   C56   A    
C27   C64   S    
C47   H5    S    
C41   C53   A    
C28   C63   S    
C31   C37   A    
C65   C71   A    
C20   H20   S    
C51   I3    S    
C30   C61   S    
C68   C70   A    
C14   C68   A    
C10   F4    S    
Cr3   O3    S    
Cr2   O8    S    
C25   O19   A    
C1    C36   S    
C27   O13   A    
C5    O6    A    
C2    O8    A    
