data_mof_unit_19700.cif
_audit_creation_date              2012-12-10T19:09:32-0500
_audit_creation_method            fapswitch 2.2
_symmetry_space_group_name_H-M    P1
_symmetry_Int_Tables_number       1
_space_group_crystal_system       triclinic
_cell_length_a                    16.250586
_cell_length_b                    14.062926
_cell_length_c                    9.671152
_cell_angle_alpha                 89.999936
_cell_angle_beta                  90.003324
_cell_angle_gamma                 89.996242
_cell_volume                      2210.15598258

loop_
_atom_site_label
_atom_site_type_symbol
_atom_type_description
_atom_site_fract_x
_atom_site_fract_y
_atom_site_fract_z
_atom_type_partial_charge
C1    C     C_R   0.119851 0.376577 0.500023 0.949940
C2    C     C_R   0.119823 0.623463 0.499987 0.949982
C3    C     C_R   0.619860 0.876590 0.499983 0.949941
C4    C     C_R   0.619817 0.123474 0.500018 0.949974
C5    C     C_3   0.913795 0.500777 0.081385 -0.230957
C6    C     C_3   0.913800 0.498791 0.918600 -0.231012
C7    C     C_3   0.413793 0.998911 0.081384 -0.230982
C8    C     C_3   0.413793 0.000901 0.918598 -0.230960
C9    C     C_R   0.884898 0.371347 0.500379 0.957664
C10   C     C_R   0.884865 0.628621 0.499623 0.957713
C11   C     C_R   0.384893 0.871349 0.499616 0.957565
C12   C     C_R   0.384869 0.128622 0.500372 0.957808
C13   C     C_3   0.801361 0.260933 0.650200 0.157607
C14   C     C_3   0.828886 0.221041 0.392149 0.173864
C15   C     C_3   0.801567 0.739392 0.349951 0.157612
C16   C     C_3   0.828741 0.778678 0.608302 0.173598
C17   C     C_3   0.328981 0.720923 0.607660 0.173817
C18   C     C_3   0.301279 0.761011 0.349757 0.157570
C19   C     C_3   0.328654 0.278576 0.391540 0.173658
C20   C     C_3   0.301633 0.239445 0.650016 0.157655
C21   C     C_3   0.252137 0.657396 0.612197 -0.458782
C22   C     C_3   0.234772 0.684674 0.357761 -0.433647
C23   C     C_3   0.252006 0.342420 0.387506 -0.458259
C24   C     C_3   0.235019 0.315678 0.642047 -0.434115
C25   C     C_3   0.734750 0.184708 0.642274 -0.433893
C26   C     C_3   0.752148 0.157342 0.387913 -0.458407
C27   C     C_3   0.735058 0.815737 0.358007 -0.433885
C28   C     C_3   0.751984 0.842347 0.612638 -0.458635
C29   C     C_3   0.739397 0.358467 0.460587 -0.562535
C30   C     C_3   0.739274 0.641476 0.538812 -0.562674
C31   C     C_3   0.239406 0.858404 0.539631 -0.562482
C32   C     C_3   0.239270 0.141420 0.461366 -0.562725
C33   C     C_3   0.817297 0.302147 0.501916 -0.092222
C34   C     C_3   0.817271 0.697830 0.498100 -0.092126
C35   C     C_3   0.317300 0.802134 0.498070 -0.092256
C36   C     C_3   0.317267 0.197816 0.501888 -0.092104
C37   C     C_3   0.189949 0.689527 0.500289 -0.092887
C38   C     C_3   0.189976 0.310515 0.499753 -0.093036
C39   C     C_3   0.689949 0.189536 0.499730 -0.093041
C40   C     C_3   0.689978 0.810526 0.500269 -0.092872
C41   C     C_3   0.162614 0.794166 0.532011 0.510647
C42   C     C_3   0.162554 0.205822 0.468649 0.510909
C43   C     C_3   0.662630 0.294173 0.467933 0.510896
C44   C     C_3   0.662536 0.705829 0.531257 0.510664
C45   C     C_3   0.040476 0.414582 0.081319 -0.216937
C46   C     C_3   0.042270 0.415808 0.918714 -0.224619
C47   C     C_3   0.040130 0.585629 0.918686 -0.216748
C48   C     C_3   0.041937 0.584411 0.081289 -0.224556
C49   C     C_3   0.542186 0.915748 0.081289 -0.224479
C50   C     C_3   0.540377 0.914520 0.918687 -0.216950
C51   C     C_3   0.542029 0.084356 0.918713 -0.224669
C52   C     C_3   0.540229 0.085577 0.081319 -0.216729
H1    H     H_    0.777985 0.319536 0.717089 0.148644
H2    H     H_    0.837664 0.253284 0.288031 0.138769
H3    H     H_    0.778191 0.680982 0.282718 0.148728
H4    H     H_    0.837428 0.746209 0.712283 0.138652
H5    H     H_    0.338038 0.753045 0.711773 0.138800
H6    H     H_    0.277772 0.819628 0.283029 0.148853
H7    H     H_    0.337071 0.246004 0.287547 0.138629
H8    H     H_    0.278383 0.181038 0.717385 0.148522
H9    H     H_    0.267655 0.581068 0.595747 0.209298
H10   H     H_    0.262144 0.612657 0.344436 0.228874
H11   H     H_    0.267798 0.418677 0.403998 0.209668
H12   H     H_    0.262318 0.387761 0.655019 0.228527
H13   H     H_    0.762023 0.112651 0.655736 0.228694
H14   H     H_    0.767793 0.081076 0.404699 0.209404
H15   H     H_    0.762460 0.887779 0.345207 0.228709
H16   H     H_    0.767650 0.918670 0.596525 0.209566
H17   H     H_    0.224814 0.661147 0.717425 0.198551
H18   H     H_    0.191724 0.695388 0.269717 0.199952
H19   H     H_    0.224462 0.338849 0.282411 0.198461
H20   H     H_    0.192117 0.305055 0.730312 0.199854
H21   H     H_    0.691692 0.195554 0.730266 0.199962
H22   H     H_    0.724800 0.160817 0.282672 0.198528
H23   H     H_    0.692178 0.805261 0.269675 0.199835
H24   H     H_    0.724455 0.838476 0.717709 0.198481
H25   H     H_    0.008700 0.349260 0.118139 0.199765
H26   H     H_    0.014120 0.349611 0.877797 0.212912
H27   H     H_    0.008085 0.650782 0.881867 0.199710
H28   H     H_    0.013530 0.650464 0.122201 0.212796
H29   H     H_    0.513977 0.849583 0.122211 0.213042
H30   H     H_    0.508519 0.849245 0.881872 0.199642
H31   H     H_    0.513684 0.150449 0.877796 0.212683
H32   H     H_    0.508259 0.150781 0.118135 0.199821
H33   H     H_    0.104655 0.410756 0.120720 0.172130
H34   H     H_    0.107348 0.415839 0.883212 0.157840
H35   H     H_    0.104288 0.589792 0.879291 0.172548
H36   H     H_    0.107019 0.584712 0.116790 0.157977
H37   H     H_    0.607272 0.915698 0.116786 0.157805
H38   H     H_    0.604548 0.910593 0.879286 0.172171
H39   H     H_    0.607109 0.084568 0.883216 0.157989
H40   H     H_    0.604400 0.089645 0.120718 0.172490
N1    N     N_3   0.998760 0.500000 0.138610 -0.064601
N2    N     N_3   0.998760 0.500000 0.861390 -0.064634
N3    N     N_3   0.498760 0.000000 0.138610 -0.064626
N4    N     N_3   0.498760 0.000000 0.861390 -0.064579
O1    O     O_R   0.092530 0.407440 0.616040 -0.627524
O2    O     O_R   0.092530 0.407440 0.383960 -0.619280
O3    O     O_R   0.092530 0.592560 0.383960 -0.627665
O4    O     O_R   0.092530 0.592560 0.616040 -0.619151
O5    O     O_R   0.592530 0.907440 0.616040 -0.619291
O6    O     O_R   0.592530 0.907440 0.383960 -0.627504
O7    O     O_R   0.592530 0.092560 0.383960 -0.619149
O8    O     O_R   0.592530 0.092560 0.616040 -0.627674
O9    O     O_R   0.907330 0.407420 0.616040 -0.609430
O10   O     O_R   0.907330 0.407420 0.383960 -0.639379
O11   O     O_R   0.907330 0.592580 0.383960 -0.609529
O12   O     O_R   0.907330 0.592580 0.616040 -0.639325
O13   O     O_R   0.407330 0.907420 0.616040 -0.639448
O14   O     O_R   0.407330 0.907420 0.383960 -0.609263
O15   O     O_R   0.407330 0.092580 0.383960 -0.639258
O16   O     O_R   0.407330 0.092580 0.616040 -0.609679
Zn1   Zn    Zn3+2 0.999890 0.500000 0.654960 0.958800
Zn2   Zn    Zn3+2 0.999890 0.500000 0.345040 0.958657
Zn3   Zn    Zn3+2 0.499890 1.000000 0.654960 0.958562
Zn4   Zn    Zn3+2 0.499890 0.000000 0.345040 0.958908
Br1   Br    Br    0.896124 0.211958 0.751651 -0.411694
Br2   Br    Br    0.922416 0.138906 0.420950 -0.278704
Br3   Br    Br    0.896481 0.788392 0.249019 -0.411412
Br4   Br    Br    0.922306 0.860843 0.580145 -0.279116
Br5   Br    Br    0.422292 0.638576 0.578127 -0.278565
Br6   Br    Br    0.395983 0.712233 0.247953 -0.412155
Br7   Br    Br    0.422433 0.360523 0.419019 -0.279245
Br8   Br    Br    0.396599 0.288629 0.750636 -0.411009
H41   H     H_    0.732164 0.420942 0.529936 0.202834
H42   H     H_    0.747407 0.388308 0.354789 0.215856
H43   H     H_    0.732128 0.579118 0.469236 0.203004
H44   H     H_    0.747086 0.611495 0.644557 0.215764
H45   H     H_    0.247438 0.887980 0.645569 0.215835
H46   H     H_    0.232167 0.921029 0.470593 0.202873
H47   H     H_    0.247070 0.111196 0.355754 0.215786
H48   H     H_    0.232126 0.079201 0.531223 0.202957
Br9   Br    Br    0.105101 0.804520 0.709572 -0.438374
Br10  Br    Br    0.091766 0.842969 0.384976 -0.337942
Br11  Br    Br    0.105023 0.195150 0.291119 -0.438171
Br12  Br    Br    0.091698 0.157560 0.616061 -0.338351
Br13  Br    Br    0.591631 0.342945 0.614767 -0.337744
Br14  Br    Br    0.605342 0.304493 0.290138 -0.438483
Br15  Br    Br    0.591840 0.657563 0.383611 -0.338598
Br16  Br    Br    0.604768 0.695103 0.708540 -0.438052
H49   H     H_    0.878824 0.438570 0.121149 0.166517
H50   H     H_    0.880782 0.434254 0.882118 0.179437
H51   H     H_    0.878579 0.560809 0.878813 0.166310
H52   H     H_    0.880514 0.565143 0.117879 0.179028
H53   H     H_    0.380697 0.934418 0.117863 0.179504
H54   H     H_    0.378747 0.938751 0.878819 0.166505
H55   H     H_    0.380593 0.065322 0.882109 0.178967
H56   H     H_    0.378641 0.060986 0.121161 0.166315

loop_
_geom_bond_atom_site_label_1
_geom_bond_atom_site_label_2
_ccdc_geom_bond_type
C16   C28   S    
C29   H41   S    
C11   O13   A    
C10   O12   A    
C8    N4    S    
C47   H27   S    
C13   C25   S    
C14   C33   S    
C41   Br9   S    
C20   H8    S    
C7    C8    S    
C45   C46   S    
C19   Br7   S    
O10   Zn2   S    
C32   C36   S    
O9    Zn1   S    
C28   H16   S    
C38   C42   S    
C31   H46   S    
C19   C36   S    
C16   Br4   S    
C5    C6    S    
C26   C39   S    
O2    Zn2   S    
C28   C40   S    
C9    O9    A    
C4    O7    A    
C29   C33   S    
C52   N3    S    
C42   Br12  S    
C49   H29   S    
C52   H32   S    
C16   C34   S    
C5    H49   S    
C50   H38   S    
C20   C24   S    
C6    N2    S    
C24   C38   S    
C48   H36   S    
N4    Zn3   S    
C43   Br13  S    
O15   Zn4   S    
C12   C36   S    
C18   C35   S    
C27   C40   S    
C15   C34   S    
C21   H9    S    
C51   N4    S    
C51   H39   S    
C3    O5    A    
C23   H11   S    
C2    O4    A    
C24   H12   S    
C29   H42   S    
C29   C43   S    
C11   O14   A    
C9    C33   S    
C30   C44   S    
C10   O11   A    
O3    Zn2   S    
C27   H23   S    
C41   Br10  S    
N2    Zn1   S    
C18   H6    S    
C13   H1    S    
C30   H44   S    
C12   O16   A    
C48   N1    S    
C30   C34   S    
C51   C52   S    
C26   H14   S    
C50   H30   S    
C23   H19   S    
C25   H13   S    
C1    O1    A    
C46   H26   S    
C5    H52   S    
C39   C43   S    
C19   H7    S    
C9    O10   A    
C22   C37   S    
C14   C26   S    
C21   H17   S    
C42   Br11  S    
C47   H35   S    
O12   Zn1   S    
C19   C23   S    
C16   H4    S    
O11   Zn2   S    
C13   C33   S    
C22   H10   S    
O8    Zn3   S    
C15   C27   S    
C47   C48   S    
C46   N2    S    
C4    C39   S    
N3    Zn4   S    
C10   C34   S    
C49   N3    S    
C43   Br14  S    
C1    C38   S    
C18   Br6   S    
C3    O6    A    
C17   Br5   S    
C14   H2    S    
C45   N1    S    
C44   Br15  S    
O5    Zn3   S    
C31   C35   S    
C52   H40   S    
C8    H55   S    
C6    H50   S    
O1    Zn1   S    
C28   H24   S    
C51   H31   S    
C32   H48   S    
C24   H20   S    
C14   Br2   S    
C7    H56   S    
O14   Zn4   S    
C30   H43   S    
C31   C41   S    
C18   C22   S    
C8    H54   S    
O4    Zn1   S    
C49   H37   S    
C1    O2    A    
C3    C40   S    
C5    N1    S    
C23   C38   S    
C7    N3    S    
C45   H33   S    
C48   H28   S    
C11   C35   S    
C2    O3    A    
C31   H45   S    
C25   C39   S    
C2    C37   S    
C50   N4    S    
C4    O8    A    
C26   H22   S    
C47   N2    S    
C15   Br3   S    
O7    Zn4   S    
C25   H21   S    
N1    Zn2   S    
O16   Zn3   S    
O6    Zn4   S    
C37   C41   S    
C17   C21   S    
C20   Br8   S    
C27   H15   S    
O13   Zn3   S    
C20   C36   S    
C40   C44   S    
C21   C37   S    
C44   Br16  S    
C49   C50   S    
C17   H5    S    
C13   Br1   S    
C32   C42   S    
C45   H25   S    
C17   C35   S    
C46   H34   S    
C6    H51   S    
C22   H18   S    
C12   O15   A    
C32   H47   S    
C15   H3    S    
C7    H53   S    
