data_mof_unit_14893.cif
_audit_creation_date              2012-12-10T18:43:07-0500
_audit_creation_method            fapswitch 2.2
_symmetry_space_group_name_H-M    P1
_symmetry_Int_Tables_number       1
_space_group_crystal_system       triclinic
_cell_length_a                    8.687085
_cell_length_b                    19.337606
_cell_length_c                    18.21747
_cell_angle_alpha                 88.905616
_cell_angle_beta                  96.726191
_cell_angle_gamma                 91.730974
_cell_volume                      3037.48229802

loop_
_atom_site_label
_atom_site_type_symbol
_atom_type_description
_atom_site_fract_x
_atom_site_fract_y
_atom_site_fract_z
_atom_type_partial_charge
C1    C     C_R   0.499489 0.367808 0.500579 0.794722
C2    C     C_R   0.499529 0.632156 0.499431 0.792200
C3    C     C_R   0.625793 0.967262 0.481324 -0.150963
C4    C     C_R   0.363541 0.032678 0.518996 -0.149881
C5    C     C_R   0.623640 0.039170 0.482550 -0.196221
C6    C     C_R   0.365789 0.960756 0.517884 -0.196378
C7    C     C_R   0.492235 0.072145 0.500990 0.089905
C8    C     C_R   0.497424 0.927737 0.499704 0.089029
C9    C     C_R   0.405433 0.455048 0.719423 0.065474
C10   C     C_R   0.579080 0.550294 0.279073 0.049806
C11   C     C_R   0.408378 0.455213 0.797341 0.319381
C12   C     C_R   0.584957 0.546619 0.201501 0.331374
C13   C     C_R   0.506985 0.501939 0.839768 -0.011348
C14   C     C_R   0.502574 0.493536 0.161020 0.002822
C15   C     C_R   0.605290 0.545777 0.802598 -0.350007
C16   C     C_R   0.419131 0.444410 0.199501 -0.378895
C17   C     C_R   0.599410 0.544283 0.724815 0.053694
C18   C     C_R   0.420644 0.448101 0.276862 0.056181
C19   C     C_R   0.641405 0.486195 0.969585 -0.240852
C20   C     C_R   0.366790 0.508185 0.031236 -0.190391
C21   C     C_R   0.637532 0.479899 0.046469 -0.149428
C22   C     C_R   0.369881 0.513311 0.954170 -0.110999
C23   C     C_R   0.204013 0.498497 0.481585 0.887871
C24   C     C_R   0.795950 0.502217 0.518304 0.882655
C25   C     C_R   0.500955 0.491847 0.078483 0.180434
C26   C     C_R   0.507631 0.502969 0.922317 0.138614
C27   C     C_2   0.038992 0.492915 0.472023 -0.375703
C28   C     C_2   0.960860 0.509017 0.527308 -0.372125
C29   C     C_R   0.386222 0.742994 0.454674 -0.206836
C30   C     C_R   0.603583 0.256202 0.548627 -0.219555
C31   C     C_R   0.385596 0.814877 0.456298 -0.201590
C32   C     C_R   0.602100 0.184297 0.547248 -0.195290
C33   C     C_R   0.501057 0.851799 0.501175 0.046400
C34   C     C_R   0.489461 0.148033 0.500175 0.045942
C35   C     C_R   0.618283 0.815674 0.545662 0.023078
C36   C     C_R   0.376423 0.184746 0.453797 0.022529
C37   C     C_R   0.615636 0.743334 0.544335 -0.221979
C38   C     C_R   0.382018 0.257120 0.454409 -0.229123
C39   C     C_R   0.500815 0.707279 0.498910 -0.004195
C40   C     C_R   0.495112 0.292612 0.501420 -0.018234
Cu1   Cu    Cu3+1 0.499960 0.500000 0.573360 0.930189
Cu2   Cu    Cu3+1 0.500040 0.500000 0.426640 0.932559
H1    H     H_    0.981807 0.473771 0.419801 0.158006
H2    H     H_    0.018231 0.528683 0.579126 0.160173
H3    H     H_    0.684763 0.581770 0.833475 0.162192
H4    H     H_    0.353572 0.403055 0.169855 0.160126
H5    H     H_    0.675229 0.578939 0.697398 0.137654
H6    H     H_    0.356366 0.409256 0.305166 0.139083
H7    H     H_    0.748051 0.476142 0.946782 0.140738
H8    H     H_    0.260107 0.518049 0.054110 0.129136
H9    H     H_    0.742002 0.465841 0.081068 0.121913
H10   H     H_    0.264280 0.525389 0.919174 0.147090
H11   H     H_    0.296729 0.715197 0.419555 0.127430
H12   H     H_    0.690924 0.283484 0.585411 0.127070
H13   H     H_    0.295954 0.841946 0.421734 0.139328
H14   H     H_    0.688185 0.156700 0.583455 0.138948
H15   H     H_    0.703505 0.714902 0.578676 0.130150
H16   H     H_    0.297569 0.285959 0.418444 0.132065
H17   H     H_    0.727481 0.942382 0.466336 0.133261
H18   H     H_    0.261772 0.057610 0.533817 0.133710
H19   H     H_    0.723483 0.069175 0.468315 0.132045
H20   H     H_    0.265921 0.930795 0.532103 0.131674
N1    N     N_R   0.499980 0.500020 0.683620 -0.207783
N2    N     N_R   0.500020 0.499980 0.316380 -0.201602
O1    O     O_R   0.499930 0.400180 0.561970 -0.585968
O2    O     O_R   0.500070 0.599820 0.438030 -0.573516
O3    O     O_R   0.500010 0.400190 0.438070 -0.590293
O4    O     O_R   0.499990 0.599810 0.561930 -0.588745
O5    O     O_R   0.274810 0.500000 0.547650 -0.572336
O6    O     O_R   0.725190 0.500000 0.452350 -0.575414
O7    O     O_R   0.274880 0.500000 0.423750 -0.596860
O8    O     O_R   0.725120 0.500000 0.576250 -0.601010
C41   C     C_R   0.743202 0.851541 0.594453 0.095966
C42   C     C_R   0.707472 0.898177 0.647837 -0.120603
C43   C     C_R   0.826224 0.932288 0.692921 -0.137261
C44   C     C_R   0.981213 0.919599 0.685667 -0.113560
C45   C     C_R   0.017762 0.872609 0.633458 -0.136707
C46   C     C_R   0.899447 0.838648 0.587992 -0.171955
H21   H     H_    0.587925 0.908056 0.654574 0.124514
H22   H     H_    0.798061 0.968434 0.733642 0.122405
H23   H     H_    0.072978 0.945979 0.720684 0.119409
H24   H     H_    0.137805 0.862480 0.628221 0.125222
H25   H     H_    0.929578 0.802792 0.547346 0.120908
C47   C     C_R   0.252118 0.149330 0.404349 0.096987
C48   C     C_R   0.095793 0.162119 0.410651 -0.170684
C49   C     C_R   0.977794 0.128111 0.365033 -0.138584
C50   C     C_R   0.014843 0.081300 0.312745 -0.114689
C51   C     C_R   0.169992 0.068746 0.305662 -0.137753
C52   C     C_R   0.288413 0.102794 0.351015 -0.122872
H26   H     H_    0.065413 0.197793 0.451431 0.124499
H27   H     H_    0.857624 0.137986 0.370287 0.124960
H28   H     H_    0.923343 0.054893 0.277593 0.119349
H29   H     H_    0.198525 0.032677 0.264946 0.122880
H30   H     H_    0.408110 0.092884 0.344612 0.123907
C53   C     C_R   0.297982 0.404053 0.679427 0.205467
C54   C     C_R   0.347045 0.336919 0.667832 -0.116417
C55   C     C_R   0.241539 0.286435 0.636907 -0.154389
C56   C     C_R   0.084952 0.301591 0.620524 -0.151741
C57   C     C_R   0.033353 0.366687 0.636712 -0.146522
C58   C     C_R   0.139076 0.417289 0.667269 -0.075238
H31   H     H_    0.467365 0.323921 0.682175 0.113998
H32   H     H_    0.280994 0.235409 0.626279 0.143631
H33   H     H_    0.003196 0.262450 0.596837 0.124175
H34   H     H_    0.911214 0.377654 0.626525 0.137123
H35   H     H_    0.097166 0.466329 0.683062 0.110468
C59   C     C_R   0.649976 0.612610 0.316465 0.184956
C60   C     C_R   0.799947 0.611452 0.354411 -0.144826
C61   C     C_R   0.870007 0.671680 0.385814 -0.175425
C62   C     C_R   0.792723 0.734152 0.377249 -0.121213
C63   C     C_R   0.645966 0.736475 0.336781 -0.127622
C64   C     C_R   0.574573 0.676002 0.306471 -0.087714
H36   H     H_    0.864692 0.564640 0.356751 0.125939
H37   H     H_    0.985395 0.670162 0.415469 0.129347
H38   H     H_    0.847219 0.780890 0.401156 0.121903
H39   H     H_    0.587090 0.785076 0.329283 0.134581
H40   H     H_    0.460857 0.678478 0.275172 0.115362
O9    O     O_3   0.308417 0.410983 0.831002 -0.591466
C65   C     C_3   0.388643 0.351611 0.858466 0.077432
H41   H     H_    0.457596 0.362819 0.912416 0.160476
H42   H     H_    0.467866 0.332645 0.819779 0.117261
C66   C     C_3   0.271265 0.293778 0.870362 -0.789423
H43   H     H_    0.201380 0.281056 0.817050 0.254392
H44   H     H_    0.332448 0.246885 0.892557 0.192395
H45   H     H_    0.192738 0.310090 0.910349 0.247694
O10   O     O_3   0.653409 0.599840 0.163309 -0.576496
C67   C     C_3   0.816227 0.592750 0.170262 0.062714
H46   H     H_    0.852476 0.537856 0.174939 0.110587
H47   H     H_    0.871056 0.620705 0.219448 0.159545
C68   C     C_3   0.879697 0.626091 0.103246 -0.776877
H48   H     H_    0.852502 0.681894 0.099641 0.250927
H49   H     H_    0.007518 0.620955 0.108321 0.192880
H50   H     H_    0.827623 0.600642 0.051803 0.252645

loop_
_geom_bond_atom_site_label_1
_geom_bond_atom_site_label_2
_ccdc_geom_bond_type
C38   C40   A    
C50   C51   A    
C67   H46   S    
Cu1   Cu2   S    
C23   O5    A    
C53   C54   A    
C55   C56   A    
C24   O6    A    
C45   C46   A    
C30   H12   S    
C58   H35   S    
Cu1   O5    S    
C35   C37   A    
C2    O4    A    
C49   H27   S    
C59   C60   A    
C56   H33   S    
Cu2   O6    S    
C61   C62   A    
C60   H36   S    
C52   H30   S    
C19   C26   A    
C65   H41   S    
C66   H45   S    
C20   H8    S    
C1    C40   S    
C1    O3    A    
C38   H16   S    
C46   H25   S    
C20   C25   A    
C1    O1    A    
C41   C46   A    
C31   C33   A    
C64   H40   S    
C23   C27   S    
C24   C28   S    
C43   H22   S    
C9    C53   S    
C55   H32   S    
C68   H50   S    
C57   H34   S    
C9    N1    A    
C50   H28   S    
C4    H18   S    
C4    C7    A    
C2    C39   S    
Cu1   O4    S    
C59   C64   A    
C41   C42   A    
C42   C43   A    
C30   C40   A    
C23   O7    A    
C54   H31   S    
C47   C48   A    
C4    C6    A    
C3    C8    A    
C16   H4    S    
C5    C7    A    
C49   C50   A    
Cu1   O1    S    
C12   O10   S    
C67   C68   S    
C3    C5    A    
C48   C49   A    
C28   H2    S    
C63   C64   A    
C65   C66   S    
C32   C34   A    
C61   H37   S    
C43   C44   A    
C19   H7    S    
C57   C58   A    
C60   C61   A    
C54   C55   A    
C29   C39   A    
C5    H19   S    
C44   C45   A    
C9    C11   A    
C66   H43   S    
C10   C12   A    
C62   H38   S    
Cu1   O8    S    
C16   C18   A    
C12   C14   A    
C42   H21   S    
C13   C15   A    
Cu2   O3    S    
C7    C34   S    
C14   C16   A    
C13   C26   S    
C10   C59   S    
C47   C52   A    
C15   H3    S    
C11   O9    S    
Cu2   N2    S    
C21   H9    S    
C24   O8    A    
C22   H10   S    
C68   H48   S    
C15   C17   A    
C21   C25   A    
C51   H29   S    
C35   C41   S    
C67   H47   S    
C19   C21   A    
C53   C58   A    
C10   N2    A    
C17   H5    S    
C20   C22   A    
C2    O2    A    
C18   H6    S    
C44   H23   S    
C6    C8    A    
C48   H26   S    
C6    H20   S    
C36   C38   A    
C37   C39   A    
O9    C65   S    
C17   N1    A    
C30   C32   A    
C11   C13   A    
C18   N2    A    
O10   C67   S    
C29   H11   S    
C45   H24   S    
C36   C47   S    
Cu2   O7    S    
C33   C35   A    
C34   C36   A    
C8    C33   S    
C14   C25   S    
C65   H42   S    
C66   H44   S    
C27   H1    S    
C51   C52   A    
C29   C31   A    
C56   C57   A    
C22   C26   A    
C27   C28   D    
Cu2   O2    S    
Cu1   N1    S    
C31   H13   S    
C62   C63   A    
C63   H39   S    
C32   H14   S    
C37   H15   S    
C68   H49   S    
C3    H17   S    
