data_mof_unit_39854.cif
_audit_creation_date              2012-12-10T19:12:17-0500
_audit_creation_method            fapswitch 2.2
_symmetry_space_group_name_H-M    P1
_symmetry_Int_Tables_number       1
_space_group_crystal_system       triclinic
_cell_length_a                    7.810724
_cell_length_b                    9.058571
_cell_length_c                    17.136457
_cell_angle_alpha                 90.608354
_cell_angle_beta                  94.516076
_cell_angle_gamma                 90.10169
_cell_volume                      1208.63617667

loop_
_atom_site_label
_atom_site_type_symbol
_atom_type_description
_atom_site_fract_x
_atom_site_fract_y
_atom_site_fract_z
_atom_type_partial_charge
C1    C     C_R   0.499858 0.220162 0.499787 0.842563
C2    C     C_R   0.500112 0.779824 0.499962 0.790963
C3    C     C_R   0.522361 0.502820 0.651236 0.867289
C4    C     C_R   0.477987 0.506673 0.348728 0.859620
C5    C     C_R   0.538583 0.522294 0.736970 -0.239403
C6    C     C_R   0.465941 0.529957 0.263296 -0.239442
C7    C     C_R   0.410651 0.600329 0.774567 0.324747
C8    C     C_R   0.611378 0.581619 0.227402 0.331213
C9    C     C_R   0.415519 0.602809 0.856584 0.014004
C10   C     C_R   0.614233 0.570173 0.145888 -0.016627
C11   C     C_R   0.559819 0.545221 0.901213 0.180611
C12   C     C_R   0.458645 0.547699 0.099265 0.167209
C13   C     C_R   0.695346 0.482131 0.863492 0.325325
C14   C     C_R   0.305485 0.541828 0.136426 0.354004
C15   C     C_R   0.684613 0.468904 0.781612 -0.018089
C16   C     C_R   0.309975 0.512136 0.216829 -0.026281
C17   C     C_1   0.499850 0.065437 0.499710 -0.186566
C18   C     C_1   0.500125 0.934516 0.499783 -0.192623
Cu1   Cu    Cu3+1 0.669080 0.500010 0.500000 1.013003
Cu2   Cu    Cu3+1 0.330920 0.499990 0.500000 1.010487
N1    N     N_1   0.076820 0.499970 0.500010 -0.037368
N2    N     N_1   0.923180 0.500030 0.499990 -0.036608
N3    N     N_2   0.579458 0.557595 0.983897 -0.150029
N4    N     N_2   0.444428 0.536121 0.016037 -0.170324
O1    O     O_R   0.642760 0.288400 0.500000 -0.578424
O2    O     O_R   0.357240 0.711600 0.500000 -0.593009
O3    O     O_R   0.357190 0.288380 0.500000 -0.580249
O4    O     O_R   0.642810 0.711620 0.500000 -0.590835
O5    O     O_R   0.658410 0.498660 0.613920 -0.553125
O6    O     O_R   0.341590 0.501340 0.386080 -0.552688
O7    O     O_R   0.372840 0.498650 0.613930 -0.560779
O8    O     O_R   0.627160 0.501350 0.386070 -0.556452
O9    O     O_3   0.753070 0.642331 0.270328 -0.607393
C19   C     C_3   0.709381 0.781160 0.302895 0.117321
H1    H     H_    0.810144 0.809335 0.350121 0.176812
H2    H     H_    0.586114 0.778167 0.331204 0.118810
C20   C     C_3   0.702699 0.905127 0.242267 -0.438572
H3    H     H_    0.830905 0.919145 0.220134 0.231730
H4    H     H_    0.609406 0.877045 0.192047 0.215476
C21   C     C_3   0.649279 0.051463 0.278065 -0.876397
H5    H     H_    0.518395 0.042052 0.298700 0.251625
H6    H     H_    0.648016 0.139306 0.233294 0.256290
H7    H     H_    0.741273 0.083710 0.328120 0.263514
O10   O     O_3   0.275180 0.669789 0.732375 -0.597061
C22   C     C_3   0.333356 0.798554 0.695668 0.131154
H8    H     H_    0.248229 0.814886 0.641436 0.183449
H9    H     H_    0.466590 0.789552 0.677153 0.099042
C23   C     C_3   0.320808 0.935403 0.748248 -0.417967
H10   H     H_    0.189258 0.942862 0.768372 0.227199
H11   H     H_    0.414857 0.926194 0.800049 0.208751
C24   C     C_3   0.359938 0.076647 0.705021 -0.890303
H12   H     H_    0.492021 0.072726 0.685322 0.250597
H13   H     H_    0.350606 0.173362 0.744846 0.255131
H14   H     H_    0.266420 0.091058 0.653405 0.267050
N5    N     N_3   0.773173 0.588751 0.111451 -0.504663
H15   H     H_    0.857183 0.507800 0.134383 0.263791
H16   H     H_    0.821502 0.692714 0.128036 0.241680
N6    N     N_3   0.275716 0.666597 0.894646 -0.547630
H17   H     H_    0.161766 0.614266 0.873431 0.268933
H18   H     H_    0.266068 0.778375 0.881219 0.213878
O11   O     O_3   0.844218 0.439891 0.906524 -0.563011
C25   C     C_3   0.824351 0.294092 0.932985 0.106941
H19   H     H_    0.765244 0.218980 0.886315 0.100784
H20   H     H_    0.741405 0.293966 0.982871 0.130718
C26   C     C_3   0.999710 0.231842 0.961648 -0.329554
H21   H     H_    0.057122 0.300455 0.011193 0.254348
H22   H     H_    0.981023 0.118153 0.982873 0.158659
C27   C     C_3   0.123183 0.225292 0.896837 -0.776864
H23   H     H_    0.149830 0.337741 0.875683 0.279337
H24   H     H_    0.068034 0.156345 0.847079 0.226577
H25   H     H_    0.246536 0.175484 0.919886 0.221198
O12   O     O_3   0.150932 0.577040 0.096007 -0.604772
C28   C     C_3   0.149763 0.730216 0.077469 0.090776
H26   H     H_    0.027773 0.753630 0.042126 0.186491
H27   H     H_    0.253426 0.759379 0.039596 0.171764
C29   C     C_3   0.163676 0.831409 0.150807 -0.427850
H28   H     H_    0.074180 0.793431 0.193390 0.231271
H29   H     H_    0.295873 0.826564 0.179696 0.212487
C30   C     C_3   0.124377 0.991699 0.130246 -0.941891
H30   H     H_    0.212182 0.031636 0.087044 0.262348
H31   H     H_    0.142528 0.061693 0.183873 0.267326
H32   H     H_    0.989077 0.002049 0.105856 0.246620
N7    N     N_3   0.822605 0.401387 0.743743 -0.525788
H33   H     H_    0.936530 0.457734 0.761011 0.266758
H34   H     H_    0.835082 0.291997 0.761879 0.218449
N8    N     N_3   0.155791 0.470640 0.251225 -0.521181
H35   H     H_    0.104118 0.377749 0.221150 0.224393
H36   H     H_    0.067643 0.556649 0.243894 0.269304

loop_
_geom_bond_atom_site_label_1
_geom_bond_atom_site_label_2
_ccdc_geom_bond_type
C16   N8    S    
N5    H15   S    
C2    C18   S    
C19   C20   S    
C28   H26   S    
Cu1   Cu2   S    
C29   C30   S    
Cu2   O6    S    
C22   H8    S    
C20   H3    S    
C29   H29   S    
C9    N6    S    
C20   C21   S    
N8    H36   S    
N6    H18   S    
C19   H1    S    
C11   N3    S    
C3    O5    A    
C25   H20   S    
C23   C24   S    
C27   H23   S    
C26   H22   S    
N3    N4    D    
C23   H11   S    
N1    N2    T    
C1    O1    A    
C28   H27   S    
Cu1   O8    S    
C17   C18   T    
C22   H9    S    
C24   H12   S    
Cu1   N2    S    
C29   H28   S    
C4    C6    S    
C5    C7    A    
N8    H35   S    
C6    C8    A    
N6    H17   S    
C24   H13   S    
C25   H19   S    
C10   N5    S    
N7    H33   S    
C26   C27   S    
C21   H7    S    
O9    C19   S    
C2    O2    A    
C7    O10   S    
C3    O7    A    
Cu1   O4    S    
C9    C11   A    
C4    O8    A    
C10   C12   A    
C8    C10   A    
C23   H10   S    
N7    H34   S    
C12   C14   A    
N5    H16   S    
C28   C29   S    
C14   C16   A    
Cu1   O5    S    
O10   C22   S    
C30   H31   S    
C22   C23   S    
C7    C9    A    
C21   H5    S    
C25   C26   S    
C14   O12   S    
O12   C28   S    
C3    C5    S    
C30   H32   S    
C15   N7    S    
Cu2   O3    S    
C12   N4    S    
C1    C17   S    
C24   H14   S    
C13   C15   A    
C20   H4    S    
C11   C13   A    
Cu2   O2    S    
C27   H25   S    
C21   H6    S    
C19   H2    S    
C8    O9    S    
O11   C25   S    
Cu1   O1    S    
C5    C15   A    
C6    C16   A    
C30   H30   S    
C13   O11   S    
Cu2   N1    S    
C27   H24   S    
C26   H21   S    
C1    O3    A    
C2    O4    A    
C4    O6    A    
Cu2   O7    S    
