data_mof_unit_26304.cif
_audit_creation_date              2012-12-10T17:11:58-0500
_audit_creation_method            fapswitch 2.2
_symmetry_space_group_name_H-M    P1
_symmetry_Int_Tables_number       1
_space_group_crystal_system       triclinic
_cell_length_a                    11.6616
_cell_length_b                    13.020412
_cell_length_c                    15.803124
_cell_angle_alpha                 92.545376
_cell_angle_beta                  73.748249
_cell_angle_gamma                 100.548252
_cell_volume                      2264.65769118

loop_
_atom_site_label
_atom_site_type_symbol
_atom_type_description
_atom_site_fract_x
_atom_site_fract_y
_atom_site_fract_z
_atom_type_partial_charge
C1    C     C_R   0.522067 0.701198 0.500561 0.844142
C2    C     C_R   0.341131 0.011149 0.507545 -0.253072
C3    C     C_R   0.650361 0.880111 0.493937 0.423802
C4    C     C_R   0.349537 0.119896 0.506343 0.425201
C5    C     C_R   0.434556 0.859891 0.504450 -0.287449
C6    C     C_R   0.565328 0.140110 0.495869 -0.300613
C7    C     C_R   0.443586 0.967600 0.503102 0.122547
C8    C     C_R   0.556282 0.032404 0.497263 0.122136
C9    C     C_R   0.941879 0.602063 0.579297 0.349548
C10   C     C_R   0.057929 0.397546 0.421039 0.340224
C11   C     C_R   0.824606 0.592629 0.569445 0.190174
C12   C     C_R   0.477904 0.298803 0.499506 0.837448
C13   C     C_R   0.175177 0.406960 0.430945 0.172795
C14   C     C_R   0.856407 0.453928 0.468577 0.041130
C15   C     C_R   0.143601 0.546095 0.531387 0.012662
C16   C     C_R   0.426098 0.495926 0.668758 0.838235
C17   C     C_R   0.573993 0.504515 0.331217 0.847650
C18   C     C_R   0.978296 0.462438 0.471605 -0.095046
C19   C     C_R   0.021631 0.537407 0.528511 -0.091165
C20   C     C_R   0.380108 0.491753 0.766165 -0.209600
C21   C     C_R   0.620519 0.510338 0.233812 -0.209752
C22   C     C_R   0.218526 0.465272 0.904826 0.426594
C23   C     C_R   0.364227 0.533857 0.085128 0.376703
C24   C     C_R   0.783312 0.537004 0.095730 0.427325
C25   C     C_R   0.254869 0.470875 0.811735 0.303493
C26   C     C_R   0.746011 0.529285 0.188709 0.304887
C27   C     C_R   0.465570 0.504670 0.814394 -0.181651
C28   C     C_R   0.535756 0.501253 0.185190 -0.180580
C29   C     C_R   0.431588 0.489608 0.905670 0.054481
C30   C     C_R   0.571007 0.516531 0.093818 0.042117
C31   C     C_R   0.307470 0.481701 0.951211 -0.033980
C32   C     C_R   0.695100 0.523272 0.048776 -0.030613
C33   C     C_R   0.519024 0.492443 0.953496 -0.056592
C34   C     C_R   0.639680 0.474405 0.913714 0.377036
C35   C     C_R   0.484433 0.514986 0.045487 -0.065759
C36   C     C_R   0.275223 0.502756 0.041371 -0.163160
C37   C     C_R   0.728027 0.504056 0.958318 -0.169233
C38   C     C_R   0.463175 0.184662 0.500381 -0.095686
C39   C     C_R   0.536740 0.815340 0.499840 -0.092389
C40   C     C_R   0.658739 0.988857 0.492816 -0.254930
Cu1   Cu    Cu3+1 0.386820 0.492450 0.493500 0.999874
Cu2   Cu    Cu3+1 0.613180 0.507550 0.506500 1.001471
H1    H     H_    0.182297 0.509655 0.075142 0.228831
H2    H     H_    0.254626 0.960595 0.512179 0.149603
H3    H     H_    0.182156 0.604528 0.571053 0.130431
H4    H     H_    0.817886 0.395614 0.428807 0.125236
H5    H     H_    0.030121 0.648977 0.665331 0.327741
H6    H     H_    0.969790 0.350441 0.334981 0.326983
H7    H     H_    0.817336 0.470073 0.265660 0.326129
H8    H     H_    0.180115 0.525167 0.734494 0.327770
H9    H     H_    0.045106 0.434880 0.911953 0.393463
H10   H     H_    0.956458 0.565373 0.089569 0.393128
H11   H     H_    0.231054 0.602953 0.313786 0.376695
H12   H     H_    0.821096 0.497486 0.924673 0.228822
H13   H     H_    0.585655 0.288099 0.742174 0.377981
H14   H     H_    0.177194 0.107219 0.515425 0.333391
H15   H     H_    0.822703 0.892796 0.484866 0.332932
H16   H     H_    0.235274 0.356648 0.393581 0.163689
H17   H     H_    0.764424 0.642787 0.606968 0.154963
H18   H     H_    0.440897 0.478185 0.218916 0.225107
H19   H     H_    0.559830 0.530202 0.780352 0.216761
H20   H     H_    0.652741 0.189293 0.491048 0.181553
H21   H     H_    0.347148 0.810704 0.509262 0.179143
H22   H     H_    0.745238 0.039414 0.488201 0.150911
N1    N     N_R   0.216750 0.481110 0.483710 -0.224308
N2    N     N_R   0.783250 0.518890 0.516290 -0.220157
O1    O     O_R   0.419950 0.645670 0.495380 -0.606808
O2    O     O_3   0.026510 0.324678 0.361612 -0.713750
O3    O     O_3   0.833147 0.536944 0.233223 -0.697334
O4    O     O_3   0.167073 0.459108 0.767511 -0.691913
O5    O     O_3   0.097397 0.447291 0.952389 -0.694536
O6    O     O_3   0.904693 0.553999 0.048750 -0.695366
O7    O     O_2   0.437606 0.688294 0.189627 -0.266758
O8    O     O_2   0.245480 0.688454 0.155999 -0.248389
O9    O     O_3   0.249166 0.550246 0.267068 -0.563014
O10   O     O_2   0.748640 0.457924 0.741106 -0.330897
O11   O     O_2   0.762039 0.323333 0.838593 -0.237826
O12   O     O_R   0.580050 0.354330 0.504620 -0.608952
O13   O     O_3   0.557326 0.314855 0.802744 -0.512431
O14   O     O_3   0.248279 0.163613 0.511748 -0.698884
O15   O     O_3   0.751635 0.836400 0.488493 -0.701291
O16   O     O_R   0.611110 0.658410 0.506370 -0.531082
O17   O     O_R   0.388890 0.341590 0.493630 -0.527402
O18   O     O_R   0.350820 0.490050 0.621260 -0.562947
O19   O     O_R   0.649180 0.509950 0.378740 -0.565206
O20   O     O_R   0.541970 0.502800 0.632250 -0.578219
O21   O     O_R   0.458030 0.497200 0.367750 -0.576500
O22   O     O_3   0.973228 0.674744 0.638875 -0.720301
S1    S     S_3+6 0.325985 0.619943 0.175297 0.006682
S2    S     S_3+6 0.680352 0.391935 0.821216 0.005920

loop_
_geom_bond_atom_site_label_1
_geom_bond_atom_site_label_2
_ccdc_geom_bond_type
C21   C26   A    
C27   C29   A    
C34   C37   A    
Cu1   Cu2   S    
C14   C18   A    
C2    C7    A    
Cu2   O16   S    
C34   S2    S    
C7    C8    A    
Cu1   O1    S    
C13   N1    A    
C15   C19   A    
C30   C35   A    
C17   O19   A    
O8    S1    D    
C24   C26   A    
C4    O14   S    
C9    O22   S    
C20   C25   A    
Cu1   O17   S    
C29   C33   A    
C16   O18   A    
C5    H21   S    
C18   C19   A    
O13   S2    S    
C27   H19   S    
C1    O1    A    
C9    C19   A    
C2    H2    S    
C22   C25   A    
C12   O12   A    
C3    O15   S    
C23   S1    S    
Cu2   O20   S    
C11   N2    A    
C3    C39   A    
H7    O3    S    
C16   O20   A    
H11   O9    S    
H9    O5    S    
C11   H17   S    
C28   H18   S    
Cu1   O21   S    
O11   S2    D    
C22   C31   A    
C14   H4    S    
C5    C7    A    
O9    S1    S    
C6    C8    A    
C13   H16   S    
C1    O16   A    
Cu1   O18   S    
C17   C21   S    
C12   O17   A    
C2    C4    A    
C24   C32   A    
H10   O6    S    
H13   O13   S    
C16   C20   S    
C6    C38   A    
C33   C34   A    
C14   N2    A    
Cu2   O19   S    
C32   C37   A    
H6    O2    S    
C9    C11   A    
C37   H12   S    
C21   C28   A    
C4    C38   A    
C3    C40   A    
Cu2   O12   S    
C23   C35   A    
C5    C39   A    
H15   O15   S    
C15   H3    S    
C22   O5    S    
C24   O6    S    
C17   O21   A    
C10   C13   A    
C40   H22   S    
Cu1   N1    S    
C20   C27   A    
C10   O2    S    
H14   O14   S    
H5    O22   S    
C6    H20   S    
C28   C30   A    
H8    O4    S    
O7    S1    D    
C29   C31   A    
C30   C32   A    
C10   C18   A    
C33   C35   A    
C12   C38   S    
C1    C39   S    
C23   C36   A    
Cu2   N2    S    
C26   O3    S    
C31   C36   A    
C36   H1    S    
C25   O4    S    
C8    C40   A    
O10   S2    D    
C15   N1    A    
