data_mof_unit_37607.cif
_audit_creation_date              2012-12-10T17:36:46-0500
_audit_creation_method            fapswitch 2.2
_symmetry_space_group_name_H-M    P1
_symmetry_Int_Tables_number       1
_space_group_crystal_system       triclinic
_cell_length_a                    10.611863
_cell_length_b                    12.3109
_cell_length_c                    13.034118
_cell_angle_alpha                 116.531681
_cell_angle_beta                  77.609619
_cell_angle_gamma                 101.264011
_cell_volume                      1478.31370614

loop_
_atom_site_label
_atom_site_type_symbol
_atom_type_description
_atom_site_fract_x
_atom_site_fract_y
_atom_site_fract_z
_atom_type_partial_charge
C1    C     C_R   0.503564 0.855671 0.286280 0.817854
C2    C     C_3   0.016638 0.018451 0.604289 0.063697
C3    C     C_3   0.931318 0.908524 0.526315 -0.231011
C4    C     C_3   0.876873 0.997294 0.497886 0.007039
C5    C     C_R   0.338691 0.270942 0.028501 -0.163236
C6    C     C_R   0.460529 0.227723 0.837688 -0.164153
C7    C     C_R   0.531029 0.820514 0.075184 0.031862
C8    C     C_R   0.542180 0.738330 0.958709 -0.256050
C9    C     C_R   0.516691 0.613640 0.926460 -0.127100
C10   C     C_R   0.474293 0.566443 0.010280 0.091466
C11   C     C_R   0.443619 0.649457 0.127301 0.046208
C12   C     C_R   0.740351 0.998845 0.498970 0.832545
C13   C     C_R   0.452097 0.438896 0.980186 -0.018764
C14   C     C_R   0.372816 0.396472 0.060396 0.088569
C15   C     C_R   0.325985 0.479950 0.170588 -0.193585
C16   C     C_R   0.361537 0.604391 0.204014 -0.188069
C17   C     C_R   0.508849 0.352037 0.874102 0.378572
C18   C     C_R   0.378719 0.187230 0.916434 -0.194540
C19   C     C_R   0.489932 0.775698 0.162320 -0.138125
C20   C     C_R   0.702483 0.339504 0.317649 -0.102660
C21   C     C_R   0.324879 0.759345 0.646606 -0.046492
C22   C     C_R   0.285330 0.661278 0.677594 0.397818
C23   C     C_R   0.483226 0.145142 0.714280 0.845692
C24   C     C_R   0.353940 0.559255 0.623055 -0.278530
C25   C     C_R   0.458975 0.551106 0.533625 -0.063519
C26   C     C_R   0.493597 0.652836 0.504201 0.260965
C27   C     C_R   0.530599 0.446201 0.472466 -0.006156
C28   C     C_R   0.633444 0.443707 0.381098 0.078061
C29   C     C_R   0.666831 0.546468 0.357125 -0.291703
C30   C     C_R   0.599192 0.647498 0.416947 -0.142519
C31   C     C_R   0.504381 0.342979 0.498202 0.031845
C32   C     C_R   0.671306 0.242735 0.350464 0.123489
C33   C     C_R   0.259707 0.000624 0.500382 0.840225
C34   C     C_3   0.983371 0.979406 0.393813 0.059127
C35   C     C_3   0.039947 0.890601 0.420957 -0.256717
C36   C     C_3   0.123225 0.000855 0.500362 0.007448
C37   C     C_3   0.068740 0.089386 0.471756 -0.204059
C38   C     C_3   0.960338 0.107275 0.577150 -0.257469
Cu1   Cu    Cu3+1 0.529830 0.098270 0.475420 1.000782
Cu2   Cu    Cu3+1 0.470170 0.901730 0.524580 0.933328
H1    H     H_    0.075280 0.802374 0.356696 0.136347
H2    H     H_    0.520961 0.556378 0.834746 0.196891
H3    H     H_    0.569077 0.771118 0.891488 0.146615
H4    H     H_    0.316748 0.664462 0.288252 0.169681
H5    H     H_    0.721535 0.161888 0.304102 0.190824
H6    H     H_    0.747983 0.552375 0.293076 0.137965
H7    H     H_    0.428378 0.337004 0.565586 0.131750
H8    H     H_    0.274684 0.840217 0.691206 0.176474
H9    H     H_    0.321562 0.487583 0.651941 0.156942
H10   H     H_    0.634537 0.719990 0.391357 0.211033
H11   H     H_    0.126653 0.163117 0.449055 0.155367
H12   H     H_    0.926551 0.195679 0.641804 0.124503
H13   H     H_    0.873200 0.834737 0.548816 0.147410
H14   H     H_    0.342934 0.091435 0.890540 0.195748
H15   H     H_    0.262090 0.448981 0.231572 0.152054
H16   H     H_    0.276261 0.237930 0.088631 0.169989
N1    N     N_R   0.575030 0.246270 0.438190 -0.204214
N2    N     N_R   0.425760 0.754330 0.561190 -0.236232
O1    O     O_R   0.537510 0.972500 0.318130 -0.525114
O2    O     O_R   0.487140 0.806530 0.359650 -0.618308
O3    O     O_R   0.708330 0.082950 0.479220 -0.564493
O4    O     O_R   0.657960 0.916980 0.520740 -0.618028
O5    O     O_R   0.512860 0.193470 0.640350 -0.550567
O6    O     O_R   0.462490 0.027500 0.681870 -0.581837
O7    O     O_R   0.342040 0.083020 0.479260 -0.590406
O8    O     O_R   0.291670 0.917050 0.520780 -0.576618
O9    O     O_3   0.609822 0.388394 0.804788 -0.624597
C39   C     C_3   0.729563 0.363291 0.815786 0.059009
H17   H     H_    0.797903 0.357956 0.736626 0.165681
H18   H     H_    0.722999 0.273394 0.819259 0.108880
C40   C     C_3   0.785810 0.466695 0.921056 -0.378207
H19   H     H_    0.790500 0.555431 0.916440 0.238803
H20   H     H_    0.722123 0.470834 0.002107 0.214385
C41   C     C_3   0.921852 0.446986 0.925307 -0.886338
H21   H     H_    0.919244 0.359338 0.931348 0.258986
H22   H     H_    0.959619 0.522754 0.002589 0.262865
H23   H     H_    0.988736 0.445483 0.846507 0.262076
C42   C     C_2   0.555052 0.951479 0.098677 0.396776
H24   H     H_    0.639844 0.984278 0.052464 0.064510
O10   O     O_2   0.475407 0.021518 0.162370 -0.542561
C43   C     C_2   0.803428 0.326270 0.215024 0.316641
H25   H     H_    0.809272 0.380516 0.167449 0.081363
O11   O     O_2   0.880807 0.251381 0.180248 -0.550616
C44   C     C_2   0.968347 0.955948 0.273688 0.330402
H26   H     H_    0.053756 0.948042 0.208926 0.089356
O12   O     O_2   0.861263 0.945119 0.247781 -0.561079
O13   O     O_3   0.185743 0.667596 0.767442 -0.607342
C45   C     C_3   0.065270 0.668389 0.737507 0.029940
H27   H     H_    0.005697 0.579831 0.725971 0.162372
H28   H     H_    0.072671 0.678535 0.655272 0.126789
C46   C     C_3   0.994921 0.771951 0.836448 -0.291607
H29   H     H_    0.979972 0.758677 0.917375 0.234346
H30   H     H_    0.055624 0.860592 0.850721 0.237615
C47   C     C_3   0.863509 0.776196 0.809431 -0.931315
H31   H     H_    0.876290 0.792086 0.730179 0.248717
H32   H     H_    0.815190 0.852188 0.882972 0.255591
H33   H     H_    0.800521 0.688941 0.796267 0.261994
C48   C     C_2   0.030693 0.041564 0.724514 0.306660
H34   H     H_    0.944945 0.049695 0.788975 0.080364
O14   O     O_2   0.137346 0.051627 0.750786 -0.566366

loop_
_geom_bond_atom_site_label_1
_geom_bond_atom_site_label_2
_ccdc_geom_bond_type
O13   C45   S    
Cu2   O2    S    
C34   C37   S    
C32   H5    S    
C5    H16   S    
C35   C36   S    
C8    H3    S    
C43   H25   S    
C33   O7    A    
C7    C8    A    
C11   C19   A    
C9    H2    S    
C29   C30   A    
C41   H22   S    
C28   C29   A    
C44   O12   D    
C1    O1    A    
C37   H11   S    
C42   O10   D    
C38   H12   S    
C15   C16   A    
Cu1   N1    S    
C33   C36   S    
Cu2   O4    S    
C34   C35   S    
C20   C43   S    
C39   H17   S    
C41   H23   S    
C4    C12   S    
C9    C10   A    
C16   H4    S    
C21   H8    S    
C23   O5    A    
C30   H10   S    
Cu2   O8    S    
C13   C14   A    
Cu1   O7    S    
C34   C44   S    
C32   N1    A    
C6    C18   A    
C43   O11   D    
C33   O8    A    
Cu1   O3    S    
C4    C34   S    
C17   O9    S    
Cu2   N2    S    
C41   H21   S    
C27   C31   A    
O9    C39   S    
C24   C25   A    
C1    O2    A    
C46   H29   S    
C40   H20   S    
C42   H24   S    
C8    C9    A    
C5    C18   A    
C20   C28   A    
C47   H33   S    
C25   C26   A    
C1    C19   S    
C15   H15   S    
C37   C38   S    
C46   H30   S    
C12   O4    A    
C11   C16   A    
C2    C38   S    
C45   C46   S    
C3    C35   S    
Cu1   O1    S    
C22   O13   S    
C44   H26   S    
C47   H32   S    
C26   N2    A    
C5    C14   A    
C7    C42   S    
C23   O6    A    
C4    C38   S    
C26   C30   A    
C7    C19   A    
C22   C24   A    
C3    C4    S    
Cu1   Cu2   S    
C20   C32   A    
C2    C36   S    
C24   H9    S    
C6    C17   A    
C36   C37   S    
C45   H28   S    
C10   C13   A    
C40   C41   S    
C25   C27   A    
Cu1   O5    S    
C48   O14   D    
Cu2   O6    S    
C13   C17   A    
C29   H6    S    
C31   N1    A    
C2    C3    S    
C40   H19   S    
C46   C47   S    
C12   O3    A    
C3    H13   S    
C39   C40   S    
C6    C23   S    
C47   H31   S    
C35   H1    S    
C10   C11   A    
C18   H14   S    
C21   N2    A    
C45   H27   S    
C2    C48   S    
C39   H18   S    
C48   H34   S    
C27   C28   A    
C14   C15   A    
C31   H7    S    
C21   C22   A    
