data_mof_unit_26097.cif
_audit_creation_date              2012-10-26T17:12:47-0400
_audit_creation_method            fapswitch 2.2
_symmetry_space_group_name_H-M    P1
_symmetry_Int_Tables_number       1
_space_group_crystal_system       triclinic
_cell_length_a                    27.956501
_cell_length_b                    18.709055
_cell_length_c                    16.672336
_cell_angle_alpha                 89.999022
_cell_angle_beta                  63.176972
_cell_angle_gamma                 89.999283
_cell_volume                      7782.02976739

loop_
_atom_site_label
_atom_site_type_symbol
_atom_type_description
_atom_site_fract_x
_atom_site_fract_y
_atom_site_fract_z
_atom_type_partial_charge
C1    C     C_R   0.295758 0.730913 0.327973 0.798698
C2    C     C_R   0.595792 0.002878 0.516964 -0.066751
C3    C     C_R   0.695754 0.705888 0.906048 -0.012504
C4    C     C_R   0.104258 0.804031 0.055037 0.407779
C5    C     C_R   0.873270 0.156677 0.957134 0.442437
C6    C     C_R   0.895744 0.804026 0.944962 0.407765
C7    C     C_R   0.126716 0.156698 0.042874 0.442430
C8    C     C_R   0.604248 0.304014 0.055041 0.407778
C9    C     C_R   0.373278 0.656687 0.957133 0.442462
C10   C     C_R   0.395740 0.304033 0.944963 0.407771
C11   C     C_R   0.626718 0.656695 0.042874 0.442421
C12   C     C_R   0.133145 0.779600 0.101895 0.330352
C13   C     C_R   0.904311 0.502866 0.482735 -0.066666
C14   C     C_R   0.835280 0.145494 0.923798 0.372084
C15   C     C_R   0.866858 0.779591 0.898105 0.330350
C16   C     C_R   0.164705 0.145521 0.076215 0.372110
C17   C     C_R   0.633130 0.279571 0.101901 0.330356
C18   C     C_R   0.335287 0.645507 0.923798 0.372057
C19   C     C_R   0.366853 0.279603 0.898107 0.330344
C20   C     C_R   0.664707 0.645516 0.076215 0.372153
C21   C     C_R   0.230199 0.680839 0.795929 -0.197411
C22   C     C_R   0.746615 0.286157 0.210579 -0.165678
C23   C     C_R   0.769805 0.680830 0.204074 -0.197208
C24   C     C_R   0.095722 0.502872 0.517169 -0.066683
C25   C     C_R   0.253367 0.286184 0.789431 -0.165667
C26   C     C_R   0.730188 0.180821 0.795931 -0.197333
C27   C     C_R   0.246631 0.786183 0.210570 -0.165684
C28   C     C_R   0.269805 0.180833 0.204071 -0.197296
C29   C     C_R   0.753373 0.786175 0.789427 -0.165667
C30   C     C_R   0.257905 0.657738 0.842307 -0.161916
C31   C     C_R   0.713290 0.292729 0.169837 -0.147468
C32   C     C_R   0.742093 0.657737 0.157703 -0.161765
C33   C     C_R   0.286689 0.292764 0.830178 -0.147452
C34   C     C_R   0.757894 0.157716 0.842311 -0.161848
C35   C     C_R   0.608017 0.879412 0.467780 0.510805
C36   C     C_R   0.213308 0.792762 0.169825 -0.147448
C37   C     C_R   0.242095 0.157737 0.157696 -0.161814
C38   C     C_R   0.786696 0.792751 0.830173 -0.147459
C39   C     C_R   0.928279 0.899930 0.064241 0.897747
C40   C     C_R   0.072269 0.099779 0.935317 0.859328
C41   C     C_R   0.071716 0.899925 0.935763 0.897716
C42   C     C_R   0.927729 0.099778 0.064683 0.859351
C43   C     C_R   0.428279 0.399929 0.064241 0.897738
C44   C     C_R   0.572270 0.599779 0.935317 0.859342
C45   C     C_R   0.571720 0.399928 0.935760 0.897740
C46   C     C_R   0.419526 0.128373 0.441003 0.520768
C47   C     C_R   0.427731 0.599780 0.064683 0.859330
C48   C     C_R   0.041975 0.632864 0.525803 -0.086935
C49   C     C_R   0.946743 0.374413 0.511730 -0.084282
C50   C     C_R   0.958037 0.632866 0.474147 -0.086933
C51   C     C_R   0.053346 0.374425 0.488020 -0.084375
C52   C     C_R   0.542009 0.132857 0.525674 -0.086922
C53   C     C_R   0.446914 0.874391 0.511242 -0.084003
C54   C     C_R   0.458071 0.132870 0.474019 -0.086950
C55   C     C_R   0.553513 0.874441 0.487552 -0.084502
C56   C     C_R   0.020408 0.698782 0.514399 -0.122085
C57   C     C_R   0.392357 0.879299 0.531362 0.510987
C58   C     C_R   0.972755 0.308385 0.508314 -0.107450
C59   C     C_R   0.979592 0.698784 0.485578 -0.122079
C60   C     C_R   0.027364 0.308393 0.491330 -0.107464
C61   C     C_R   0.520420 0.198776 0.514328 -0.122068
C62   C     C_R   0.472965 0.808369 0.507687 -0.107311
C63   C     C_R   0.479605 0.198785 0.485509 -0.122091
C64   C     C_R   0.527570 0.808401 0.490721 -0.107614
C65   C     C_R   0.977471 0.568540 0.491633 -0.016011
C66   C     C_R   0.025175 0.438651 0.499565 -0.008335
C67   C     C_R   0.022558 0.568540 0.508277 -0.016019
C68   C     C_R   0.580519 0.128334 0.558765 0.520905
C69   C     C_R   0.974893 0.438647 0.500242 -0.008376
C70   C     C_R   0.477540 0.068538 0.491415 -0.015997
C71   C     C_R   0.525313 0.938655 0.499164 -0.008274
C72   C     C_R   0.522627 0.068539 0.508059 -0.016024
C73   C     C_R   0.475032 0.938639 0.499835 -0.008447
C74   C     C_R   0.452304 0.003451 0.491296 -0.015709
C75   C     C_R   0.547930 0.003464 0.508008 -0.015548
C76   C     C_R   0.952208 0.503458 0.491583 -0.015627
C77   C     C_R   0.047835 0.503461 0.508291 -0.015601
C78   C     C_R   0.374436 0.938930 0.498727 -0.116402
C79   C     C_R   0.107871 0.379372 0.468115 0.510829
C80   C     C_R   0.613810 0.066426 0.539827 -0.104684
C81   C     C_R   0.625771 0.938982 0.500748 -0.116084
C82   C     C_R   0.386266 0.066433 0.459897 -0.104645
C83   C     C_R   0.874352 0.438950 0.498942 -0.116245
C84   C     C_R   0.113779 0.566430 0.539940 -0.104670
C85   C     C_R   0.125689 0.438963 0.500955 -0.116176
C86   C     C_R   0.886234 0.566431 0.460012 -0.104666
C87   C     C_R   0.329206 0.936808 0.480011 -0.218492
C88   C     C_R   0.664214 0.065919 0.542250 -0.212198
C89   C     C_R   0.670884 0.936829 0.519761 -0.218153
C90   C     C_R   0.919507 0.628358 0.441099 0.520834
C91   C     C_R   0.335812 0.065922 0.457651 -0.212281
C92   C     C_R   0.829168 0.436816 0.480112 -0.218297
C93   C     C_R   0.164204 0.565921 0.542291 -0.212258
C94   C     C_R   0.170849 0.436822 0.519848 -0.218248
C95   C     C_R   0.835800 0.565922 0.457694 -0.212241
C96   C     C_R   0.312210 0.000284 0.455173 0.400450
C97   C     C_R   0.687806 0.000284 0.544764 0.400338
C98   C     C_R   0.812201 0.500285 0.455205 0.400372
C99   C     C_R   0.187801 0.500285 0.544789 0.400354
C100  C     C_2   0.555949 0.739409 0.481805 0.948392
C101  C     C_R   0.892208 0.379344 0.531706 0.510956
C102  C     C_2   0.457065 0.267784 0.473991 0.960966
C103  C     C_2   0.444682 0.739346 0.516220 0.947647
C104  C     C_2   0.542902 0.267771 0.526005 0.960919
C105  C     C_2   0.055712 0.239391 0.482521 0.948170
C106  C     C_2   0.957077 0.767780 0.473993 0.960941
C107  C     C_2   0.944439 0.239372 0.516995 0.947805
C108  C     C_2   0.042912 0.767778 0.526012 0.960948
C109  C     C_3   0.291354 0.999337 0.338571 -0.276592
C110  C     C_3   0.708477 0.999339 0.661573 -0.276925
C111  C     C_3   0.791416 0.499347 0.338525 -0.276704
C112  C     C_R   0.703943 0.268942 0.671515 0.804682
C113  C     C_R   0.080499 0.628351 0.558863 0.520838
C114  C     C_3   0.208547 0.499364 0.661514 -0.276761
C115  C     C_3   0.670356 0.867669 0.321681 -0.317539
C116  C     C_3   0.439393 0.153332 0.295170 -0.337633
C117  C     C_3   0.329807 0.867618 0.677395 -0.315702
C118  C     C_3   0.560486 0.153150 0.704695 -0.337941
C119  C     C_3   0.170234 0.367629 0.322013 -0.316977
C120  C     C_3   0.939444 0.653260 0.295225 -0.337781
C121  C     C_3   0.829851 0.367585 0.677819 -0.316783
C122  C     C_3   0.060538 0.653225 0.704752 -0.337759
C123  C     C_3   0.169018 0.939196 0.731656 -0.214840
C124  C     C_R   0.204721 0.735770 0.964876 -0.033674
C125  C     C_3   0.930296 0.242498 0.211815 -0.233415
C126  C     C_3   0.830821 0.939215 0.268294 -0.215369
C127  C     C_3   0.069697 0.242475 0.788164 -0.233482
C128  C     C_3   0.669158 0.439216 0.731707 -0.215245
C129  C     C_3   0.430298 0.742493 0.211834 -0.233229
C130  C     C_3   0.330848 0.439213 0.268302 -0.215227
C131  C     C_3   0.569695 0.742476 0.788178 -0.233629
C132  C     C_3   0.031598 0.852012 0.181423 -0.082507
C133  C     C_3   0.948865 0.139506 0.815882 -0.122875
C134  C     C_3   0.968397 0.852020 0.818579 -0.082433
C135  C     C_R   0.770468 0.213176 0.050604 -0.046172
C136  C     C_3   0.051122 0.139538 0.184133 -0.122884
C137  C     C_3   0.531594 0.352007 0.181425 -0.082504
C138  C     C_3   0.448872 0.639494 0.815886 -0.122881
C139  C     C_3   0.468396 0.352024 0.818580 -0.082477
C140  C     C_3   0.551125 0.639532 0.184131 -0.122875
C141  C     C_3   0.093007 0.698283 0.214025 -0.264375
C142  C     C_3   0.835950 0.029819 0.884372 -0.430984
C143  C     C_3   0.906999 0.698274 0.785979 -0.264364
C144  C     C_3   0.164037 0.029845 0.115642 -0.431018
C145  C     C_3   0.592988 0.198247 0.214021 -0.264385
C146  C     C_R   0.795281 0.735761 0.035126 -0.033729
C147  C     C_3   0.335940 0.529826 0.884402 -0.430934
C148  C     C_3   0.406992 0.198291 0.785973 -0.264350
C149  C     C_3   0.664046 0.529839 0.115631 -0.431056
C150  C     C_R   0.229515 0.213206 0.949409 -0.046179
C151  C     C_R   0.704708 0.235744 0.964883 -0.033696
C152  C     C_R   0.270481 0.713201 0.050597 -0.046165
C153  C     C_R   0.295278 0.235769 0.035127 -0.033714
C154  C     C_R   0.729519 0.713198 0.949407 -0.046184
C155  C     C_R   0.250050 0.690261 0.923794 0.116813
C156  C     C_R   0.704243 0.730911 0.672026 0.798671
C157  C     C_R   0.722246 0.252608 0.093391 0.113933
C158  C     C_R   0.749949 0.690258 0.076214 0.116826
C159  C     C_R   0.277735 0.252642 0.906623 0.113930
C160  C     C_R   0.750038 0.190237 0.923799 0.116810
C161  C     C_R   0.222262 0.752639 0.093381 0.113936
C162  C     C_R   0.249948 0.190263 0.076212 0.116832
C163  C     C_R   0.777740 0.752631 0.906620 0.113930
C164  C     C_R   0.284446 0.679929 0.966142 -0.114814
C165  C     C_R   0.687230 0.258138 0.053556 -0.130842
C166  C     C_R   0.715552 0.679931 0.033867 -0.114803
C167  C     C_R   0.296057 0.268942 0.328485 0.804718
C168  C     C_R   0.312753 0.258170 0.946456 -0.130843
C169  C     C_R   0.784435 0.179908 0.966147 -0.114814
C170  C     C_R   0.187245 0.758169 0.053547 -0.130850
C171  C     C_R   0.215550 0.179936 0.033867 -0.114808
C172  C     C_R   0.812758 0.758159 0.946453 -0.130834
C173  C     C_R   0.130724 0.803710 0.958823 -0.146997
C174  C     C_R   0.854132 0.171220 0.049705 -0.153309
C175  C     C_R   0.869278 0.803704 0.041176 -0.146954
C176  C     C_R   0.145857 0.171237 0.950302 -0.153294
C177  C     C_R   0.630716 0.303696 0.958826 -0.146983
C178  C     C_R   0.795756 0.230910 0.327973 0.798674
C179  C     C_R   0.354140 0.671233 0.049702 -0.153312
C180  C     C_R   0.369276 0.303709 0.041177 -0.146966
C181  C     C_R   0.645859 0.671234 0.950301 -0.153303
C182  C     C_R   0.113302 0.842927 0.902159 -0.178718
C183  C     C_R   0.884395 0.155125 0.097912 -0.178599
C184  C     C_R   0.886690 0.842934 0.097843 -0.178770
C185  C     C_R   0.115599 0.155131 0.902090 -0.178578
C186  C     C_R   0.613308 0.342930 0.902158 -0.178758
C187  C     C_R   0.384400 0.655131 0.097911 -0.178605
C188  C     C_R   0.386690 0.342934 0.097844 -0.178765
C189  C     C_R   0.203942 0.768941 0.671515 0.804451
C190  C     C_R   0.615601 0.655130 0.902090 -0.178591
C191  C     C_R   0.141449 0.834443 0.808100 0.388236
C192  C     C_R   0.868273 0.184460 0.183925 0.393365
C193  C     C_R   0.858525 0.834468 0.191902 0.388329
C194  C     C_R   0.131724 0.184462 0.816073 0.393335
C195  C     C_R   0.641471 0.334465 0.808099 0.388359
C196  C     C_R   0.368278 0.684465 0.183926 0.393347
C197  C     C_R   0.358529 0.334465 0.191902 0.388289
C198  C     C_R   0.631725 0.684460 0.816073 0.393382
C199  C     C_R   0.178618 0.778670 0.770453 -0.221063
C200  C     C_R   0.204242 0.230912 0.672026 0.798700
C201  C     C_R   0.818634 0.219691 0.228559 -0.235336
C202  C     C_R   0.821379 0.778670 0.229546 -0.221119
C203  C     C_R   0.181359 0.219700 0.771442 -0.235321
C204  C     C_R   0.678620 0.278669 0.770455 -0.221064
C205  C     C_R   0.318641 0.719700 0.228558 -0.235361
C206  C     C_R   0.321378 0.278671 0.229546 -0.221125
C207  C     C_R   0.681361 0.719697 0.771442 -0.235319
C208  C     C_R   0.195318 0.739618 0.826393 0.025472
C209  C     C_R   0.789081 0.236425 0.179693 0.039199
C210  C     C_R   0.804688 0.739606 0.173605 0.025327
C211  C     C_R   0.796057 0.768942 0.328485 0.804833
C212  C     C_R   0.210906 0.236445 0.820315 0.039207
C213  C     C_R   0.695309 0.239601 0.826397 0.025397
C214  C     C_R   0.289092 0.736444 0.179688 0.039207
C215  C     C_R   0.304686 0.239611 0.173606 0.025392
C216  C     C_R   0.710909 0.736439 0.820312 0.039198
C217  C     C_R   0.196336 0.632074 0.528891 0.826735
C218  C     C_R   0.800718 0.369211 0.482096 0.827393
C219  C     C_R   0.803665 0.632074 0.471107 0.826635
C220  C     C_R   0.199287 0.369212 0.517890 0.827493
C221  C     C_R   0.696337 0.132073 0.528886 0.826720
C222  C     C_R   0.404383 0.002857 0.482523 -0.066550
C223  C     C_R   0.300730 0.869208 0.482060 0.827029
C224  C     C_R   0.303667 0.132074 0.471101 0.826650
C225  C     C_R   0.699298 0.869213 0.517860 0.827675
C226  C     C_R   0.176833 0.759842 0.916748 -0.009929
C227  C     C_R   0.804235 0.205871 0.093961 -0.012498
C228  C     C_R   0.823171 0.759831 0.083251 -0.010003
C229  C     C_R   0.195751 0.205894 0.906050 -0.012501
C230  C     C_R   0.676823 0.259821 0.916754 -0.009952
C231  C     C_R   0.304246 0.705891 0.093955 -0.012488
C232  C     C_R   0.323168 0.259838 0.083252 -0.009972
Cu1   Cu    Cu3+1 0.209920 0.785290 0.495070 1.044087
Cu2   Cu    Cu3+1 0.504760 0.500000 0.075850 0.956680
Cu3   Cu    Cu3+1 0.995240 0.000000 0.924150 0.956584
Cu4   Cu    Cu3+1 0.004760 0.000000 0.075850 0.956687
Cu5   Cu    Cu3+1 0.790080 0.214710 0.504930 1.078430
Cu6   Cu    Cu3+1 0.790080 0.785290 0.504930 1.044187
Cu7   Cu    Cu3+1 0.209920 0.214710 0.495070 1.078415
Cu8   Cu    Cu3+1 0.709920 0.285290 0.495070 1.044160
Cu9   Cu    Cu3+1 0.290080 0.714710 0.504930 1.078292
Cu10  Cu    Cu3+1 0.290080 0.285290 0.504930 1.044152
Cu11  Cu    Cu3+1 0.709920 0.714710 0.495070 1.078553
Cu12  Cu    Cu3+1 0.495240 0.500000 0.924150 0.956649
H1    H     H_    0.236633 0.651273 0.736346 0.165575
H2    H     H_    0.681981 0.332692 0.196305 0.178409
H3    H     H_    0.433893 0.666328 0.772145 0.200528
H4    H     H_    0.441936 0.580858 0.820632 0.174916
H5    H     H_    0.492887 0.646042 0.783361 0.179052
H6    H     H_    0.437779 0.390050 0.818242 0.124438
H7    H     H_    0.481971 0.314071 0.761432 0.216683
H8    H     H_    0.504049 0.384125 0.806563 0.193967
H9    H     H_    0.566114 0.666386 0.227845 0.201180
H10   H     H_    0.558053 0.580894 0.179421 0.174885
H11   H     H_    0.507111 0.646090 0.216663 0.179129
H12   H     H_    0.129081 0.664042 0.194411 0.162860
H13   H     H_    0.716041 0.613363 0.188045 0.211888
H14   H     H_    0.068584 0.679115 0.180907 0.151301
H15   H     H_    0.068208 0.692689 0.287668 0.200364
H16   H     H_    0.792263 0.023633 0.929230 0.171694
H17   H     H_    0.859457 0.013008 0.920154 0.173293
H18   H     H_    0.846576 0.993169 0.826502 0.201213
H19   H     H_    0.870927 0.664031 0.805593 0.162854
H20   H     H_    0.931422 0.679109 0.819098 0.151293
H21   H     H_    0.931800 0.692680 0.712336 0.200368
H22   H     H_    0.207721 0.023663 0.070757 0.171692
H23   H     H_    0.140514 0.013028 0.079890 0.173333
H24   H     H_    0.317995 0.332731 0.803712 0.178406
H25   H     H_    0.153430 0.993197 0.173510 0.201194
H26   H     H_    0.629061 0.164006 0.194409 0.162865
H27   H     H_    0.568568 0.179084 0.180896 0.151306
H28   H     H_    0.568185 0.192649 0.287663 0.200350
H29   H     H_    0.292252 0.523654 0.929266 0.171690
H30   H     H_    0.359446 0.513013 0.920184 0.173286
H31   H     H_    0.346556 0.493167 0.826542 0.201210
H32   H     H_    0.370920 0.164049 0.805584 0.162854
H33   H     H_    0.431415 0.179121 0.819092 0.151282
H34   H     H_    0.431793 0.192701 0.712330 0.200380
H35   H     H_    0.783939 0.113334 0.811980 0.211935
H36   H     H_    0.707734 0.523660 0.070776 0.171710
H37   H     H_    0.640543 0.513027 0.079843 0.173324
H38   H     H_    0.653422 0.493185 0.173498 0.201193
H39   H     H_    0.182001 0.832728 0.196290 0.178399
H40   H     H_    0.216050 0.113355 0.188029 0.211895
H41   H     H_    0.818003 0.832716 0.803705 0.178411
H42   H     H_    0.576894 0.643441 0.420576 0.336106
H43   H     H_    0.391295 0.328865 0.507767 0.326473
H44   H     H_    0.423996 0.643080 0.576727 0.336011
H45   H     H_    0.740057 0.324567 0.262632 0.171239
H46   H     H_    0.608625 0.328909 0.492413 0.326489
H47   H     H_    0.076617 0.143366 0.421445 0.336063
H48   H     H_    0.891327 0.828885 0.507690 0.326483
H49   H     H_    0.923661 0.143218 0.577773 0.336053
H50   H     H_    0.108653 0.828894 0.492348 0.326483
H51   H     H_    0.314149 0.049344 0.309252 0.126254
H52   H     H_    0.257692 0.997078 0.320643 0.178862
H53   H     H_    0.317195 0.951766 0.308190 0.131872
H54   H     H_    0.685730 0.049394 0.690804 0.126395
H55   H     H_    0.742076 0.996982 0.679652 0.178906
H56   H     H_    0.763369 0.651267 0.263661 0.165492
H57   H     H_    0.682560 0.951821 0.691913 0.131817
H58   H     H_    0.757778 0.497022 0.320540 0.178882
H59   H     H_    0.817306 0.451815 0.308147 0.131818
H60   H     H_    0.814171 0.549389 0.309252 0.126318
H61   H     H_    0.242168 0.496979 0.679537 0.178887
H62   H     H_    0.182607 0.451875 0.691909 0.131768
H63   H     H_    0.185831 0.549441 0.690743 0.126386
H64   H     H_    0.695678 0.912287 0.324982 0.134479
H65   H     H_    0.641319 0.887608 0.298129 0.156758
H66   H     H_    0.697238 0.828865 0.271109 0.203416
H67   H     H_    0.259924 0.324590 0.737374 0.171223
H68   H     H_    0.409891 0.117031 0.288624 0.146376
H69   H     H_    0.478268 0.125196 0.274840 0.140186
H70   H     H_    0.446714 0.198378 0.247751 0.210823
H71   H     H_    0.304007 0.911485 0.673837 0.134164
H72   H     H_    0.358606 0.888629 0.700857 0.155937
H73   H     H_    0.303346 0.828624 0.728168 0.203275
H74   H     H_    0.589941 0.116794 0.711302 0.146492
H75   H     H_    0.521614 0.125047 0.724872 0.140201
H76   H     H_    0.553127 0.198148 0.752192 0.210812
H77   H     H_    0.195677 0.412069 0.325360 0.134388
H78   H     H_    0.736625 0.151260 0.736343 0.165573
H79   H     H_    0.141248 0.387821 0.298490 0.156563
H80   H     H_    0.197012 0.328775 0.271393 0.203369
H81   H     H_    0.909966 0.616927 0.288655 0.146420
H82   H     H_    0.978322 0.625147 0.274957 0.140205
H83   H     H_    0.946774 0.698284 0.247775 0.210813
H84   H     H_    0.804360 0.411959 0.674467 0.134361
H85   H     H_    0.858821 0.387868 0.701325 0.156483
H86   H     H_    0.803116 0.328709 0.728455 0.203347
H87   H     H_    0.090013 0.616892 0.711331 0.146436
H88   H     H_    0.021664 0.625109 0.724994 0.140174
H89   H     H_    0.240074 0.824589 0.262625 0.171210
H90   H     H_    0.053195 0.698242 0.752216 0.210842
H91   H     H_    0.211157 0.920833 0.692915 0.123086
H92   H     H_    0.164018 0.967950 0.793427 0.111427
H93   H     H_    0.160854 0.977988 0.689020 0.207882
H94   H     H_    0.904089 0.290709 0.229594 0.115824
H95   H     H_    0.961973 0.246287 0.141088 0.166524
H96   H     H_    0.949907 0.242979 0.256624 0.197574
H97   H     H_    0.788687 0.920761 0.306837 0.123301
H98   H     H_    0.835898 0.968007 0.206503 0.111602
H99   H     H_    0.838845 0.977997 0.311094 0.207894
H100  H     H_    0.263371 0.151267 0.263656 0.165497
H101  H     H_    0.095898 0.290692 0.770379 0.115845
H102  H     H_    0.038019 0.246265 0.858889 0.166550
H103  H     H_    0.050087 0.242942 0.743353 0.197486
H104  H     H_    0.711294 0.420775 0.693159 0.123147
H105  H     H_    0.664078 0.468009 0.793498 0.111597
H106  H     H_    0.661124 0.477994 0.688911 0.207915
H107  H     H_    0.404090 0.790704 0.229623 0.115810
H108  H     H_    0.461975 0.746291 0.141109 0.166459
H109  H     H_    0.449908 0.742966 0.256644 0.197749
H110  H     H_    0.288712 0.420774 0.306859 0.123201
H111  H     H_    0.759931 0.824581 0.737371 0.171246
H112  H     H_    0.335922 0.468008 0.206514 0.111588
H113  H     H_    0.338888 0.477988 0.311092 0.207892
H114  H     H_    0.595895 0.790694 0.770391 0.115863
H115  H     H_    0.538021 0.746262 0.858907 0.166605
H116  H     H_    0.550080 0.742944 0.743376 0.197325
H117  H     H_    0.062212 0.890040 0.181764 0.124450
H118  H     H_    0.018025 0.814055 0.238567 0.216670
H119  H     H_    0.995943 0.884110 0.193442 0.193972
H120  H     H_    0.933881 0.166347 0.772151 0.200786
H121  H     H_    0.941936 0.080868 0.820611 0.174896
H122  H     H_    0.283950 0.613356 0.811976 0.211971
H123  H     H_    0.992880 0.146062 0.783355 0.179070
H124  H     H_    0.937778 0.890042 0.818241 0.124410
H125  H     H_    0.981975 0.814067 0.761432 0.216683
H126  H     H_    0.004048 0.884127 0.806563 0.194005
H127  H     H_    0.066112 0.166393 0.227846 0.200957
H128  H     H_    0.058049 0.080899 0.179427 0.174897
H129  H     H_    0.007109 0.146098 0.216665 0.179106
H130  H     H_    0.562213 0.390024 0.181770 0.124441
H131  H     H_    0.518014 0.314048 0.238569 0.216669
H132  H     H_    0.495944 0.384117 0.193443 0.193978
O1    O     O_R   0.255040 0.869590 0.478480 -0.546622
O2    O     O_R   0.817950 0.203450 0.375560 -0.513359
O3    O     O_3   0.651520 0.600486 0.148486 -0.608467
O4    O     O_R   0.817950 0.796550 0.375560 -0.513465
O5    O     O_R   0.182050 0.203450 0.624440 -0.513399
O6    O     O_R   0.682050 0.296550 0.624440 -0.513422
O7    O     O_R   0.317950 0.703450 0.375560 -0.513282
O8    O     O_R   0.317950 0.296550 0.375560 -0.513405
O9    O     O_R   0.682050 0.703450 0.624440 -0.513448
O10   O     O_R   0.250530 0.763330 0.367210 -0.604847
O11   O     O_R   0.749470 0.236670 0.632790 -0.585867
O12   O     O_R   0.749470 0.763330 0.632790 -0.604829
O13   O     O_R   0.744960 0.130410 0.521520 -0.547476
O14   O     O_R   0.250530 0.236670 0.367210 -0.585793
O15   O     O_R   0.750530 0.263330 0.367210 -0.604853
O16   O     O_R   0.249470 0.736670 0.632790 -0.586033
O17   O     O_R   0.249470 0.263330 0.632790 -0.604832
O18   O     O_R   0.750530 0.736670 0.367210 -0.585630
O19   O     O_R   0.177260 0.690030 0.513710 -0.519250
O20   O     O_R   0.822740 0.309970 0.486290 -0.517235
O21   O     O_R   0.822740 0.690030 0.486290 -0.519279
O22   O     O_R   0.177260 0.309970 0.513710 -0.517310
O23   O     O_R   0.677260 0.190030 0.513710 -0.519296
O24   O     O_R   0.744960 0.869590 0.521520 -0.546666
O25   O     O_R   0.322740 0.809970 0.486290 -0.517159
O26   O     O_R   0.322740 0.190030 0.486290 -0.519250
O27   O     O_R   0.677260 0.809970 0.513710 -0.517351
O28   O     O_R   0.051640 0.926880 0.885090 -0.553056
O29   O     O_R   0.948360 0.073120 0.114910 -0.541820
O30   O     O_R   0.948360 0.926880 0.114910 -0.553030
O31   O     O_R   0.051640 0.073120 0.885090 -0.541904
O32   O     O_R   0.551640 0.426880 0.885090 -0.553034
O33   O     O_R   0.448360 0.573120 0.114910 -0.541835
O34   O     O_R   0.448360 0.426880 0.114910 -0.553034
O35   O     O_R   0.255040 0.130410 0.478480 -0.547436
O36   O     O_R   0.551640 0.573120 0.885090 -0.541849
O37   O     O_R   0.940620 0.926560 0.986760 -0.597052
O38   O     O_R   0.059380 0.073440 0.013240 -0.580808
O39   O     O_R   0.059380 0.926560 0.013240 -0.597050
O40   O     O_R   0.940620 0.073440 0.986760 -0.580833
O41   O     O_R   0.440620 0.426560 0.986760 -0.597054
O42   O     O_R   0.559380 0.573440 0.013240 -0.580816
O43   O     O_R   0.559380 0.426560 0.013240 -0.597047
O44   O     O_R   0.440620 0.573440 0.986760 -0.580849
O45   O     O_2   0.578691 0.727517 0.528198 -0.569351
O46   O     O_R   0.755040 0.369590 0.478480 -0.546620
O47   O     O_R   0.556272 0.688036 0.420656 -0.767338
O48   O     O_2   0.486650 0.313509 0.423547 -0.605152
O49   O     O_R   0.401940 0.280252 0.521347 -0.713767
O50   O     O_2   0.421821 0.727713 0.469952 -0.570093
O51   O     O_R   0.444567 0.687661 0.576884 -0.766617
O52   O     O_2   0.513276 0.313430 0.576513 -0.605163
O53   O     O_R   0.598022 0.280309 0.478725 -0.713784
O54   O     O_2   0.078474 0.227559 0.528899 -0.569659
O55   O     O_R   0.055996 0.187949 0.421476 -0.767085
O56   O     O_2   0.986679 0.813478 0.423523 -0.605163
O57   O     O_R   0.244960 0.630410 0.521520 -0.547471
O58   O     O_R   0.901954 0.780277 0.521315 -0.713772
O59   O     O_2   0.921619 0.227638 0.470686 -0.569773
O60   O     O_R   0.944254 0.187803 0.577834 -0.766933
O61   O     O_2   0.013302 0.813464 0.576494 -0.605158
O62   O     O_R   0.098034 0.780289 0.478703 -0.713772
O63   O     O_3   0.270031 0.998789 0.433104 -0.534578
O64   O     O_3   0.729908 0.998774 0.567025 -0.534559
O65   O     O_3   0.770052 0.498783 0.433064 -0.534556
O66   O     O_3   0.229935 0.498777 0.566971 -0.534566
O67   O     O_3   0.643860 0.832451 0.405128 -0.541116
O68   O     O_R   0.244960 0.369590 0.521520 -0.546638
O69   O     O_3   0.419008 0.181253 0.383023 -0.551991
O70   O     O_3   0.356686 0.832239 0.594131 -0.541113
O71   O     O_3   0.580969 0.181149 0.616867 -0.551981
O72   O     O_3   0.143650 0.332376 0.405421 -0.541126
O73   O     O_3   0.919017 0.681212 0.383068 -0.551990
O74   O     O_3   0.856464 0.332326 0.594421 -0.541096
O75   O     O_3   0.080978 0.681193 0.616914 -0.551970
O76   O     O_3   0.132648 0.881667 0.751993 -0.543660
O77   O     O_3   0.901279 0.178068 0.225277 -0.545559
O78   O     O_3   0.867255 0.881765 0.248014 -0.543617
O79   O     O_R   0.755040 0.630410 0.478480 -0.547441
O80   O     O_3   0.098723 0.178054 0.774712 -0.545596
O81   O     O_3   0.632735 0.381755 0.751987 -0.543626
O82   O     O_3   0.401282 0.678064 0.225282 -0.545545
O83   O     O_3   0.367270 0.381749 0.248013 -0.543625
O84   O     O_3   0.598723 0.678056 0.774714 -0.545593
O85   O     O_3   0.048792 0.814217 0.099337 -0.592745
O86   O     O_3   0.927487 0.171748 0.901506 -0.598229
O87   O     O_3   0.951208 0.814220 0.900661 -0.592728
O88   O     O_3   0.072496 0.171757 0.098495 -0.598236
O89   O     O_3   0.548783 0.314215 0.099338 -0.592744
O90   O     O_R   0.182050 0.796550 0.624440 -0.513356
O91   O     O_3   0.427496 0.671752 0.901502 -0.598213
O92   O     O_3   0.451206 0.314222 0.900661 -0.592732
O93   O     O_3   0.572498 0.671754 0.098495 -0.598247
O94   O     O_3   0.107325 0.770827 0.194322 -0.589352
O95   O     O_3   0.848469 0.100469 0.851522 -0.608453
O96   O     O_3   0.892679 0.770818 0.805678 -0.589344
O97   O     O_3   0.151517 0.100494 0.148491 -0.608462
O98   O     O_3   0.607307 0.270793 0.194327 -0.589365
O99   O     O_3   0.348471 0.600470 0.851534 -0.608459
O100  O     O_3   0.392672 0.270835 0.805679 -0.589329

loop_
_geom_bond_atom_site_label_1
_geom_bond_atom_site_label_2
_ccdc_geom_bond_type
Cu5   O11   S    
Cu6   O12   S    
C217  O57   A    
C115  O67   S    
C5    C174  A    
C115  H64   S    
C11   C181  A    
C200  O5    A    
C34   H35   S    
C138  H5    S    
Cu3   O31   S    
C121  H85   S    
C148  O100  S    
C190  C198  A    
C11   O93   S    
C129  H108  S    
C50   C59   A    
C52   C61   A    
C63   C102  S    
C151  C230  A    
C54   C63   A    
C96   O63   S    
C58   C60   A    
C184  C193  A    
Cu12  O41   S    
C148  H33   S    
Cu10  O26   S    
C73   C74   A    
C149  H36   S    
C128  H106  S    
C61   C63   A    
C62   C64   A    
C44   C190  S    
C91   C96   A    
Cu11  O79   S    
C50   C90   A    
C162  C171  A    
C70   C74   A    
C95   C219  S    
C141  H14   S    
C153  C232  A    
C4    C12   A    
C24   C85   A    
C88   C97   A    
C152  C231  A    
C125  H95   S    
C49   C69   A    
Cu6   O24   S    
C197  C206  A    
C41   O28   A    
C132  H118  S    
Cu4   O30   S    
C214  C231  A    
C200  O17   A    
C138  H4    S    
C11   C20   A    
C59   C106  S    
C150  C159  A    
Cu8   O15   S    
C61   C104  S    
C35   O67   S    
C105  O55   S    
C71   C73   A    
C106  O56   D    
C126  H98   S    
C118  H76   S    
C106  O58   S    
C82   C91   A    
C114  H62   S    
C51   C66   A    
C87   C223  S    
C116  O69   S    
C52   C72   A    
C181  C190  A    
C154  C163  A    
C54   C70   A    
C122  O75   S    
C22   C31   A    
C4    O85   S    
C163  C172  A    
C37   H40   S    
C31   C157  A    
C108  O61   D    
C30   H122  S    
C40   O38   A    
C173  C182  A    
C4    C173  A    
C153  C168  A    
C36   C161  A    
C41   C182  S    
C144  H23   S    
C112  C204  S    
C157  C165  A    
C193  O78   S    
C111  H58   S    
C138  O91   S    
C79   C85   A    
C21   C30   A    
C66   C77   A    
C13   C83   A    
C5    O86   S    
C210  C228  A    
C57   C78   A    
C189  O16   A    
C219  O21   A    
C28   H100  S    
Cu9   O57   S    
C87   C96   A    
C82   C222  A    
C112  O6    A    
C8    C17   A    
C56   C59   A    
C104  O52   D    
C102  O49   S    
Cu3   O40   S    
C124  C155  A    
C125  O77   S    
C80   C88   A    
Cu4   O39   S    
C49   C101  A    
C18   O99   S    
C110  H54   S    
C207  C216  A    
C15   C172  A    
C84   C93   A    
C99   O66   S    
C48   C67   A    
C111  O65   S    
C86   C95   A    
C17   O98   S    
Cu1   O1    S    
Cu11  O27   S    
C24   C77   A    
C156  O9    A    
C6    C175  A    
Cu10  O17   S    
C136  O88   S    
C149  H37   S    
C143  O96   S    
C2    C81   A    
C140  H9    S    
C46   O69   S    
C91   C224  S    
Cu5   O13   S    
C147  H31   S    
C2    C75   A    
C137  O89   S    
C37   C162  A    
C78   C87   A    
C135  C157  A    
C220  O22   A    
C67   C77   A    
C202  C211  S    
C16   O97   S    
C192  O77   S    
C218  O46   A    
C118  H74   S    
C135  C227  A    
C26   C213  A    
C43   O41   A    
C115  H65   S    
C79   O72   S    
H46   O53   S    
C211  O4    A    
C136  H128  S    
C8    O89   S    
Cu8   O23   S    
C69   C76   A    
C93   C217  S    
C58   C107  S    
C85   C94   A    
C137  H132  S    
C56   C108  S    
C208  C226  A    
C46   C82   A    
Cu1   O90   S    
C1    O7    A    
C15   O96   S    
C27   H89   S    
C29   C38   A    
C27   C214  A    
C148  H32   S    
C104  O53   S    
C12   C170  A    
C142  H17   S    
C152  C161  A    
C9    C179  A    
Cu2   O33   S    
C189  C199  S    
C120  H81   S    
C123  H91   S    
C144  O97   S    
Cu2   O43   S    
C7    C176  A    
C116  H70   S    
C9    O91   S    
C72   C75   A    
C201  C209  A    
C197  O83   S    
C128  O81   S    
C147  O99   S    
C117  O70   S    
C33   H24   S    
C215  C232  A    
C122  H88   S    
C177  C230  A    
C29   H111  S    
C134  H126  S    
C109  H51   S    
C65   C67   A    
C151  C165  A    
C140  H10   S    
Cu6   Cu11  S    
C3    C154  A    
C145  H26   S    
C26   H78   S    
C107  O60   S    
Cu8   O6    S    
C192  C201  A    
C127  O80   S    
C223  O1    A    
C225  O24   A    
C140  H11   S    
C137  H130  S    
C147  H29   S    
C78   C222  A    
C123  H93   S    
C38   C163  A    
C136  H129  S    
C119  H79   S    
C47   C187  S    
C117  H71   S    
H49   O60   S    
C191  O76   S    
C83   C101  A    
C198  C207  A    
C41   O39   A    
C141  H12   S    
C144  H22   S    
C127  H102  S    
C103  O50   D    
C121  H84   S    
C146  C158  A    
C23   C210  A    
C142  H18   S    
C129  H107  S    
C10   C180  A    
C45   O32   A    
C178  C201  S    
C39   O37   A    
C212  C229  A    
C113  O75   S    
C16   C171  A    
C146  C228  A    
C28   C37   A    
C176  C229  A    
C199  C208  A    
C148  H34   S    
C175  C184  A    
C50   C65   A    
C51   C79   A    
Cu4   O38   S    
C23   H56   S    
C9    C18   A    
C120  H83   S    
Cu5   Cu8   S    
Cu2   Cu12  S    
C40   C185  S    
C48   C113  A    
C51   C60   A    
C130  O83   S    
Cu7   O22   S    
C40   O31   A    
C25   C33   A    
C206  C215  A    
C125  H94   S    
C187  C196  A    
C118  O71   S    
C128  H104  S    
C139  H8    S    
C185  C194  A    
C219  O79   A    
C183  C192  A    
C160  C169  A    
C176  C185  A    
C131  O84   S    
C225  O27   A    
C6    O87   S    
C65   C76   A    
C133  H121  S    
C145  H28   S    
C129  O82   S    
C21   C208  A    
C10   O92   S    
H42   O47   S    
C146  C172  A    
C105  O54   D    
C198  O84   S    
C179  C187  A    
C126  H99   S    
C196  O82   S    
C111  H60   S    
C101  O74   S    
C114  H63   S    
C194  O80   S    
C22   H45   S    
C102  O48   D    
C138  H3    S    
C180  C188  A    
C209  C227  A    
C18   C164  A    
C8    C177  A    
C180  C232  A    
C25   H67   S    
C7    O88   S    
C119  H77   S    
C133  H120  S    
C221  O23   A    
C131  H116  S    
C121  H86   S    
Cu3   Cu4   S    
C31   H2    S    
C93   C99   A    
C178  O2    A    
Cu11  O18   S    
C108  O62   S    
C81   C89   A    
C28   C215  A    
C45   O43   A    
C57   O70   S    
C134  O87   S    
C14   C169  A    
C14   O95   S    
C53   C73   A    
C167  C206  S    
Cu12  O32   S    
C36   H39   S    
Cu11  O9    S    
C53   C57   A    
C195  C204  A    
Cu6   O4    S    
C3    C216  A    
Cu12  O44   S    
C193  C202  A    
C128  H105  S    
C25   C212  A    
C149  O3    S    
Cu1   O10   S    
C224  O26   A    
C116  H69   S    
C150  C171  A    
C12   O94   S    
C10   C19   A    
C110  H55   S    
C46   C54   A    
C94   C220  S    
C141  H15   S    
C130  H112  S    
C92   C218  S    
C3    C181  A    
C39   O30   A    
C5    C14   A    
C7    C16   A    
C125  H96   S    
C142  O95   S    
C189  O90   A    
C86   C90   A    
C42   C183  S    
C139  H6    S    
C143  H19   S    
C19   C168  A    
Cu4   O29   S    
C158  C166  A    
C20   O3    S    
C133  H123  S    
C130  H113  S    
Cu7   O35   S    
C89   C225  S    
C174  C183  A    
C124  C226  A    
C126  H97   S    
C27   C36   A    
C43   O34   A    
C20   C166  A    
C118  H75   S    
C74   C222  A    
H50   O62   S    
C153  C162  A    
C114  H61   S    
H47   O55   S    
C23   C32   A    
C126  O78   S    
C144  H25   S    
C127  H103  S    
C132  O85   S    
C17   C165  A    
C103  O51   S    
C188  C197  A    
C131  H114  S    
C221  O13   A    
C135  C169  A    
C123  O76   S    
C177  C186  A    
C44   O36   A    
C64   C100  S    
Cu10  O68   S    
C119  O72   S    
C175  C228  A    
Cu9   O25   S    
C88   C221  S    
C154  C166  A    
C47   O33   A    
C68   O71   S    
C143  H21   S    
C133  O86   S    
C134  H124  S    
C213  C230  A    
C33   C159  A    
C100  O45   D    
Cu2   O34   S    
C34   C160  A    
C68   C80   A    
C120  H82   S    
C84   C113  A    
Cu9   O7    S    
C43   C188  S    
C132  H117  S    
C174  C227  A    
C35   C81   A    
C95   C98   A    
C92   C98   A    
C83   C92   A    
C150  C229  A    
C44   O42   A    
C140  O93   S    
C97   O64   S    
C47   O44   A    
C32   H13   S    
Cu3   O37   S    
C191  C199  A    
C173  C226  A    
C200  C203  S    
C45   C186  S    
C66   C69   A    
C22   C209  A    
C121  O74   S    
C159  C168  A    
C130  H110  S    
C196  C205  A    
C156  C207  S    
C107  O59   D    
C6    C15   A    
C26   C34   A    
C42   O40   A    
C156  O12   A    
C141  O94   S    
Cu6   O21   S    
C149  H38   S    
C55   C71   A    
C195  O81   S    
C139  O92   S    
Cu1   O19   S    
C1    C205  S    
C122  H90   S    
C120  O73   S    
C52   C68   A    
Cu8   O46   S    
C90   O73   S    
C202  C210  A    
C143  H20   S    
C32   C158  A    
C112  O11   A    
Cu5   O2    S    
C110  H57   S    
C35   C55   A    
C147  H30   S    
C186  C195  A    
C115  H66   S    
H48   O58   S    
C127  H101  S    
C29   C216  A    
C21   H1    S    
C19   O100  S    
H43   O49   S    
C136  H127  S    
C204  C213  A    
C49   C58   A    
C89   C97   A    
Cu7   O5    S    
C218  O20   A    
C220  O68   A    
Cu7   O14   S    
C53   C62   A    
C13   C76   A    
C55   C64   A    
C142  H16   S    
Cu3   O28   S    
C152  C164  A    
C100  O47   S    
C161  C170  A    
C116  H68   S    
Cu1   Cu9   S    
H44   O51   S    
C109  H53   S    
C123  H92   S    
C119  H80   S    
C98   O65   S    
Cu2   O42   S    
C132  H119  S    
C203  C212  A    
Cu12  O36   S    
C62   C103  S    
C129  H109  S    
C48   C56   A    
C42   O29   A    
C30   C155  A    
C211  O18   A    
C139  H7    S    
C145  O98   S    
C39   C184  S    
C13   C86   A    
C167  O14   A    
C114  O66   S    
C122  H87   S    
C205  C214  A    
C134  H125  S    
C167  O8    A    
C109  H52   S    
C155  C164  A    
Cu10  O8    S    
C223  O25   A    
C145  H27   S    
C151  C160  A    
C109  O63   S    
C24   C84   A    
C110  O64   S    
C71   C75   A    
C117  H73   S    
C94   C99   A    
Cu5   O20   S    
C111  H59   S    
C194  C203  A    
Cu7   Cu10  S    
C178  O15   A    
C137  H131  S    
C224  O35   A    
C2    C80   A    
C124  C170  A    
C1    O10   A    
C182  C191  A    
C131  H115  S    
C70   C72   A    
C179  C231  A    
C117  H72   S    
C60   C105  S    
C38   H41   S    
C217  O19   A    
Cu9   O16   S    
