data_mof_unit_47331.cif
_audit_creation_date              2012-12-10T17:18:20-0500
_audit_creation_method            fapswitch 2.2
_symmetry_space_group_name_H-M    P1
_symmetry_Int_Tables_number       1
_space_group_crystal_system       triclinic
_cell_length_a                    10.236186
_cell_length_b                    10.553952
_cell_length_c                    14.898757
_cell_angle_alpha                 90.36635
_cell_angle_beta                  82.13042
_cell_angle_gamma                 94.370686
_cell_volume                      1589.73752342

loop_
_atom_site_label
_atom_site_type_symbol
_atom_type_description
_atom_site_fract_x
_atom_site_fract_y
_atom_site_fract_z
_atom_type_partial_charge
C1    C     C_R   0.554754 0.733906 0.490910 0.932001
C2    C     C_2   0.074104 0.507113 0.484139 0.444712
C3    C     C_R   0.501307 0.501781 0.672498 1.045964
C4    C     C_R   0.498811 0.498712 0.327541 0.917088
C5    C     C_R   0.466671 0.384411 0.187956 -0.162858
C6    C     C_R   0.494887 0.624763 0.813312 -0.134845
C7    C     C_R   0.495938 0.498093 0.232089 -0.204253
C8    C     C_R   0.502926 0.507933 0.768020 -0.225483
C9    C     C_R   0.523875 0.613487 0.186680 0.366281
C10   C     C_R   0.493315 0.393286 0.814610 0.412823
C11   C     C_R   0.503996 0.621626 0.095574 -0.074346
C12   C     C_R   0.445116 0.265988 0.504486 0.819401
C13   C     C_R   0.457583 0.393799 0.908788 -0.036570
C14   C     C_R   0.474177 0.507208 0.049301 0.020399
C15   C     C_R   0.476694 0.509741 0.955353 -0.015065
C16   C     C_R   0.445297 0.389249 0.096573 0.027555
C17   C     C_R   0.502430 0.626813 0.907117 0.002931
C18   C     C_R   0.519885 0.739833 0.049156 -0.131492
C19   C     C_R   0.400422 0.283490 0.956700 -0.081426
C20   C     C_2   0.472611 0.262775 0.236782 0.385439
C21   C     C_2   0.465798 0.740235 0.764874 0.451759
C22   C     C_3   0.718651 0.720757 0.208889 0.070197
C23   C     C_R   0.530628 0.741260 0.954136 -0.054997
C24   C     C_3   0.780286 0.835998 0.254732 -0.294986
C25   C     C_3   0.929479 0.854298 0.226338 -0.891358
C26   C     C_3   0.627987 0.230850 0.781974 0.025279
C27   C     C_3   0.680432 0.152619 0.700029 -0.302511
C28   C     C_3   0.819741 0.114525 0.706909 -0.798238
C29   C     C_2   0.518741 0.861712 0.100488 0.518113
C30   C     C_2   0.334706 0.177860 0.908501 0.522192
C31   C     C_2   0.584934 0.860269 0.905425 0.445688
C32   C     C_2   0.304926 0.180679 0.105654 0.457271
C33   C     C_2   0.304992 0.069923 0.564312 0.494912
C34   C     C_R   0.390616 0.282173 0.051965 -0.047027
C35   C     C_2   0.706787 0.930676 0.506042 0.419870
C36   C     C_3   0.108976 0.532044 0.330927 0.085055
C37   C     C_3   0.122218 0.455628 0.243245 -0.336379
C38   C     C_3   0.127593 0.540079 0.159880 -0.954352
C39   C     C_3   0.883704 0.524211 0.666718 0.043362
C40   C     C_3   0.857453 0.623527 0.740994 -0.250606
C41   C     C_3   0.858202 0.569191 0.835557 -0.933988
C42   C     C_2   0.139551 0.672031 0.578614 0.546767
C43   C     C_2   0.869459 0.331402 0.418701 0.547361
C44   C     C_2   0.584259 0.869429 0.476113 -0.198731
C45   C     C_2   0.415182 0.129972 0.499074 -0.209385
C46   C     C_2   0.495680 0.930628 0.437270 -0.073876
C47   C     C_2   0.495763 0.067489 0.437964 -0.110798
C48   C     C_2   0.925256 0.504481 0.512292 0.413313
H1    H     H_    0.574035 0.118890 0.392588 0.195119
H2    H     H_    0.969528 0.941095 0.258845 0.287999
H3    H     H_    0.952725 0.865485 0.151642 0.276169
H4    H     H_    0.608649 0.168157 0.842728 0.158265
H5    H     H_    0.706406 0.305810 0.793486 0.127873
H6    H     H_    0.612931 0.065867 0.695399 0.248471
H7    H     H_    0.683438 0.209604 0.637195 0.261361
H8    H     H_    0.890150 0.200338 0.704368 0.241092
H9    H     H_    0.852788 0.052078 0.649406 0.291529
H10   H     H_    0.821549 0.062550 0.771175 0.293044
H11   H     H_    0.445777 0.870939 0.159842 0.130686
H12   H     H_    0.410067 0.878877 0.414786 0.194201
H13   H     H_    0.351432 0.079902 0.921175 0.080478
H14   H     H_    0.540228 0.948926 0.921539 0.074407
H15   H     H_    0.243257 0.205346 0.167384 0.049186
H16   H     H_    0.246480 0.129485 0.611170 0.094886
H17   H     H_    0.763897 0.876332 0.546130 0.135774
H18   H     H_    0.187421 0.611693 0.325944 0.179504
H19   H     H_    0.011018 0.573375 0.338436 0.093964
H20   H     H_    0.213489 0.405190 0.238245 0.227715
H21   H     H_    0.037305 0.383146 0.244900 0.214098
H22   H     H_    0.032216 0.583668 0.160179 0.262886
H23   H     H_    0.428652 0.251924 0.306995 0.043014
H24   H     H_    0.145518 0.481791 0.097710 0.271854
H25   H     H_    0.209157 0.616089 0.158249 0.267959
H26   H     H_    0.982389 0.488754 0.670468 0.087401
H27   H     H_    0.810178 0.441561 0.679338 0.171813
H28   H     H_    0.934570 0.703856 0.729477 0.232756
H29   H     H_    0.760433 0.661715 0.737113 0.280111
H30   H     H_    0.774108 0.497107 0.852571 0.253122
H31   H     H_    0.847616 0.646644 0.886232 0.293454
H32   H     H_    0.952582 0.525633 0.839842 0.263005
H33   H     H_    0.187837 0.696682 0.637427 0.080609
H34   H     H_    0.394989 0.803000 0.797957 0.049285
H35   H     H_    0.816166 0.301581 0.363151 0.062101
H36   H     H_    0.748044 0.730329 0.134264 0.166600
H37   H     H_    0.758650 0.633522 0.232577 0.152030
H38   H     H_    0.734263 0.922960 0.237153 0.271339
H39   H     H_    0.761102 0.822276 0.329106 0.221959
H40   H     H_    0.978186 0.771784 0.248490 0.249082
N1    N     N_2   0.842700 0.448880 0.462930 -0.226537
N2    N     N_2   0.157300 0.551120 0.537070 -0.235526
O1    O     O_R   0.431060 0.692470 0.507460 -0.591162
O2    O     O_2   0.524026 0.768856 0.689976 -0.599397
O3    O     O_3   0.579283 0.715432 0.231543 -0.679889
O4    O     O_3   0.509171 0.281590 0.765859 -0.637055
O5    O     O_2   0.601671 0.949760 0.079831 -0.540872
O6    O     O_2   0.260101 0.200277 0.854241 -0.553880
O7    O     O_2   0.682868 0.860064 0.848610 -0.582942
O8    O     O_2   0.305424 0.069057 0.083928 -0.609180
O9    O     O_2   0.278681 0.955280 0.567621 -0.539868
O10   O     O_2   0.746980 0.039713 0.485180 -0.556528
O11   O     O_3   0.123645 0.450995 0.403801 -0.600994
O12   O     O_R   0.568940 0.307530 0.492540 -0.617284
O13   O     O_3   0.874401 0.581237 0.582179 -0.592265
O14   O     O_2   0.079551 0.751896 0.545590 -0.544896
O15   O     O_2   0.943064 0.259144 0.446336 -0.534616
O16   O     O_R   0.651120 0.659650 0.483670 -0.593698
O17   O     O_R   0.348880 0.340350 0.516330 -0.587828
O18   O     O_R   0.389960 0.516440 0.644050 -0.636365
O19   O     O_R   0.610040 0.483560 0.355950 -0.651425
O20   O     O_R   0.610030 0.483620 0.620260 -0.593527
O21   O     O_R   0.389970 0.516380 0.379740 -0.589566
O22   O     O_2   0.531611 0.176129 0.199846 -0.518590
Zn1   Zn    Zn3+2 0.353060 0.521920 0.515880 1.005812
Zn2   Zn    Zn3+2 0.646940 0.478080 0.484120 0.979714

loop_
_geom_bond_atom_site_label_1
_geom_bond_atom_site_label_2
_ccdc_geom_bond_type
C26   O4    S    
C4    O19   A    
C38   H22   S    
C11   C18   A    
C37   H21   S    
C33   C45   S    
C41   H32   S    
C28   H8    S    
C27   H6    S    
C47   H1    S    
C5    C20   S    
C28   H9    S    
C26   C27   S    
C17   C23   A    
O16   Zn2   S    
C36   C37   S    
C11   C14   A    
C36   H18   S    
C22   H37   S    
C35   H17   S    
C3    O20   A    
C37   H20   S    
C43   H35   S    
C15   C17   A    
C43   O15   D    
N2    Zn1   S    
C2    N2    D    
C25   H2    S    
O17   Zn1   S    
C5    C16   A    
C30   O6    D    
C16   C34   A    
C20   O22   D    
C29   H11   S    
C20   H23   S    
C39   H27   S    
O20   Zn2   S    
C1    O16   A    
C31   O7    D    
C1    O1    A    
C31   H14   S    
C42   H33   S    
C4    C7    S    
C44   C46   D    
C45   C47   D    
C38   H24   S    
C36   H19   S    
C13   C19   A    
C18   C23   A    
C24   C25   S    
C3    C8    S    
C39   C40   S    
C5    C7    A    
C6    C8    A    
C2    O11   S    
C2    C48   S    
C6    C21   S    
C10   C13   A    
C25   H40   S    
O1    Zn1   S    
C36   O11   S    
C42   N2    S    
C32   C34   S    
O18   Zn1   S    
C25   H3    S    
C12   O12   A    
C37   C38   S    
O12   Zn2   S    
C26   H4    S    
C1    C44   S    
C22   H36   S    
O21   Zn1   S    
C18   C29   S    
C43   N1    S    
C35   C44   S    
C9    C11   A    
O19   Zn2   S    
C40   C41   S    
C4    O21   A    
C48   N1    D    
C13   C15   A    
C22   O3    S    
C14   C16   A    
C35   O10   D    
C26   H5    S    
C9    O3    S    
C41   H30   S    
C29   O5    D    
C7    C9    A    
C6    C17   A    
C46   C47   S    
C46   H12   S    
C40   H29   S    
C32   H15   S    
C12   C45   S    
C19   C34   A    
C42   O14   D    
C41   H31   S    
C12   O17   A    
C39   O13   S    
C28   H10   S    
C3    O18   A    
C27   H7    S    
N1    Zn2   S    
C48   O13   S    
C33   H16   S    
C32   O8    D    
C22   C24   S    
C39   H26   S    
C24   H39   S    
C40   H28   S    
C21   H34   S    
C8    C10   A    
C30   H13   S    
C27   C28   S    
C10   O4    S    
C14   C15   A    
C33   O9    D    
C19   C30   S    
C24   H38   S    
C38   H25   S    
C23   C31   S    
C21   O2    D    
