data_mof_unit_17822.cif
_audit_creation_date              2012-12-10T18:31:57-0500
_audit_creation_method            fapswitch 2.2
_symmetry_space_group_name_H-M    P1
_symmetry_Int_Tables_number       1
_space_group_crystal_system       triclinic
_cell_length_a                    10.674419
_cell_length_b                    14.942868
_cell_length_c                    15.36582
_cell_angle_alpha                 81.72958
_cell_angle_beta                  89.865021
_cell_angle_gamma                 104.23148
_cell_volume                      2349.20319221

loop_
_atom_site_label
_atom_site_type_symbol
_atom_type_description
_atom_site_fract_x
_atom_site_fract_y
_atom_site_fract_z
_atom_type_partial_charge
C1    C     C_R   0.483439 0.441437 0.662446 0.859217
C2    C     C_3   0.122138 0.501771 0.495947 0.081236
C3    C     C_3   0.067908 0.471423 0.408728 -0.458773
C4    C     C_3   0.107501 0.602519 0.498753 -0.407565
C5    C     C_R   0.482751 0.404921 0.755792 -0.062107
C6    C     C_R   0.545142 0.595944 0.244279 -0.105637
C7    C     C_R   0.410747 0.282844 0.879707 -0.157823
C8    C     C_R   0.416532 0.313276 0.789386 -0.150801
C9    C     C_R   0.548150 0.464374 0.812046 -0.248750
C10   C     C_R   0.541282 0.436173 0.903000 0.114977
C11   C     C_R   0.468248 0.344759 0.937015 0.156750
C12   C     C_R   0.742463 0.502020 0.495941 0.886962
C13   C     C_R   0.593301 0.499872 0.961177 0.034297
C14   C     C_R   0.548440 0.477905 0.049676 0.092449
C15   C     C_R   0.486235 0.384455 0.083588 -0.131865
C16   C     C_R   0.448629 0.318137 0.027757 -0.207637
C17   C     C_R   0.685513 0.585159 0.933994 -0.242683
C18   C     C_R   0.726274 0.649479 0.991849 0.150866
C19   C     C_R   0.667313 0.632935 0.076576 0.090922
C20   C     C_R   0.569597 0.549614 0.102583 0.030777
C21   C     C_R   0.702574 0.696925 0.136218 -0.151401
C22   C     C_R   0.646294 0.676122 0.220886 -0.134120
C23   C     C_R   0.516221 0.558746 0.337419 0.992433
C24   C     C_R   0.493458 0.541386 0.179867 -0.097054
C25   C     C_R   0.684488 0.839550 0.642930 -0.259035
C26   C     C_R   0.660314 0.752626 0.615704 0.051457
C27   C     C_R   0.510667 0.793291 0.512822 -0.030774
C28   C     C_R   0.528612 0.882260 0.538781 0.011999
C29   C     C_R   0.617776 0.904358 0.605281 0.123320
C30   C     C_R   0.461284 0.948976 0.501783 0.036008
C31   C     C_R   0.489877 0.039036 0.528666 0.029777
C32   C     C_R   0.567396 0.053717 0.603378 0.123732
C33   C     C_R   0.634215 0.988508 0.637487 -0.183355
C34   C     C_R   0.258104 0.500072 0.499205 0.861969
C35   C     C_R   0.362766 0.926963 0.441470 -0.248121
C36   C     C_R   0.296759 0.991850 0.404460 -0.024597
C37   C     C_R   0.336684 0.084651 0.421318 0.082387
C38   C     C_R   0.437020 0.109106 0.481022 0.001038
C39   C     C_R   0.282781 0.154838 0.377352 -0.271799
C40   C     C_R   0.326257 0.245779 0.393839 0.028619
C41   C     C_R   0.486242 0.204447 0.486279 -0.009674
C42   C     C_3   0.905487 0.440792 0.576296 -0.425918
C43   C     C_3   0.046801 0.434782 0.575327 -0.366942
C44   C     C_3   0.919677 0.464898 0.405558 -0.097484
C45   C     C_3   0.965284 0.604136 0.496902 -0.002382
C46   C     C_3   0.879859 0.503389 0.491227 -0.041510
H1    H     H_    0.839569 0.369663 0.584629 0.234624
H2    H     H_    0.162654 0.650997 0.441984 0.208793
H3    H     H_    0.125021 0.522676 0.354910 0.234888
H4    H     H_    0.396756 0.247772 0.055157 0.157367
H5    H     H_    0.685530 0.720708 0.269043 0.190114
H6    H     H_    0.355933 0.212615 0.905011 0.158172
H7    H     H_    0.365711 0.266398 0.746265 0.181953
H8    H     H_    0.596718 0.534910 0.784104 0.153480
H9    H     H_    0.885636 0.470916 0.635592 0.163412
H10   H     H_    0.465022 0.362513 0.153452 0.152160
H11   H     H_    0.732082 0.601337 0.869228 0.162391
H12   H     H_    0.778695 0.760139 0.120284 0.184527
H13   H     H_    0.694596 0.001560 0.693232 0.180275
H14   H     H_    0.573674 0.229756 0.519269 0.171823
H15   H     H_    0.280757 0.298977 0.363773 0.169635
H16   H     H_    0.752255 0.855148 0.694365 0.167925
H17   H     H_    0.708476 0.700834 0.645786 0.127748
H18   H     H_    0.447208 0.769996 0.461957 0.130364
H19   H     H_    0.090982 0.453593 0.637881 0.161637
H20   H     H_    0.329627 0.857561 0.425112 0.167529
H21   H     H_    0.207997 0.141087 0.330336 0.187755
H22   H     H_    0.051195 0.361809 0.571499 0.225601
H23   H     H_    0.088532 0.403613 0.400350 0.202240
H24   H     H_    0.940454 0.624907 0.560332 0.154601
H25   H     H_    0.148551 0.628091 0.559842 0.182032
N1    N     N_R   0.573860 0.731700 0.552730 -0.102786
N2    N     N_R   0.426060 0.268290 0.447230 -0.102716
O1    O     O_R   0.462770 0.383110 0.605620 -0.603859
O2    O     O_R   0.510160 0.531900 0.639510 -0.622928
O3    O     O_R   0.661510 0.425600 0.483070 -0.601092
O4    O     O_R   0.708900 0.574390 0.516960 -0.610892
O5    O     O_R   0.489840 0.468100 0.360490 -0.548635
O6    O     O_R   0.537230 0.616890 0.394380 -0.625956
O7    O     O_R   0.291100 0.425610 0.483040 -0.614457
O8    O     O_R   0.338490 0.574400 0.516930 -0.634683
Zn1   Zn    Zn3+2 0.468350 0.400660 0.477370 1.006479
Zn2   Zn    Zn3+2 0.531650 0.599340 0.522630 0.962670
C47   C     C_2   0.888472 0.521375 0.320334 0.943888
O9    O     O_2   0.777073 0.525667 0.307876 -0.617888
O10   O     O_R   0.983680 0.565758 0.254703 -0.784818
H26   H     H_    0.948227 0.599577 0.202156 0.366120
C48   C     C_2   0.352412 0.492950 0.183983 0.889052
O11   O     O_2   0.294506 0.485538 0.115692 -0.587835
O12   O     O_R   0.284044 0.459164 0.264213 -0.840520
H27   H     H_    0.190925 0.425611 0.256225 0.343184
I1    I     I_    0.872327 0.771660 0.943271 -0.367714
C49   C     C_2   0.188804 0.959460 0.346624 0.918879
O13   O     O_2   0.085851 0.980154 0.354559 -0.603201
O14   O     O_R   0.203562 0.901686 0.285379 -0.782541
H28   H     H_    0.123537 0.883599 0.250069 0.367609
I2    I     I_    0.563594 0.152828 0.690149 -0.400182
C50   C     C_2   0.848640 0.361836 0.403690 0.906232
O15   O     O_2   0.873260 0.299542 0.456468 -0.641611
O16   O     O_R   0.756875 0.337735 0.340473 -0.761811
H29   H     H_    0.717524 0.267983 0.346521 0.342413
I3    I     I_    0.937207 0.718586 0.401376 -0.324828

loop_
_geom_bond_atom_site_label_1
_geom_bond_atom_site_label_2
_ccdc_geom_bond_type
C49   O13   D    
C26   N1    A    
O14   H28   S    
C3    H3    S    
C7    C8    A    
C45   C46   S    
C40   N2    A    
C7    C11   A    
C30   C35   A    
C1    C5    S    
C1    O1    A    
C36   C37   A    
C3    H23   S    
C47   O10   S    
C7    H6    S    
C30   C31   A    
O4    Zn2   S    
C15   C16   A    
C6    C22   A    
C29   C33   A    
C32   I2    S    
C18   C19   A    
C42   C46   S    
C20   C24   A    
C34   O7    A    
C44   C50   S    
C36   C49   S    
C19   C20   A    
C43   H22   S    
C34   O8    A    
C9    C10   A    
C25   H16   S    
C2    C34   S    
C33   H13   S    
C21   C22   A    
O1    Zn1   S    
O8    Zn2   S    
C44   C46   S    
C4    C45   S    
C25   C29   A    
C3    C44   S    
C1    O2    A    
C14   C20   A    
C47   O9    D    
C38   C41   A    
C12   C46   S    
C27   H18   S    
O3    Zn1   S    
C39   C40   A    
O10   H26   S    
C35   H20   S    
C25   C26   A    
C40   H15   S    
C35   C36   A    
C2    C4    S    
C26   H17   S    
C5    C9    A    
C37   C38   A    
C42   H9    S    
C11   C16   A    
O5    Zn1   S    
C31   C32   A    
C2    C43   S    
C43   H19   S    
C6    C24   A    
C12   O4    A    
C17   C18   A    
C24   C48   S    
O7    Zn1   S    
C48   O12   S    
C50   O16   S    
C12   O3    A    
C42   C43   S    
N2    Zn1   S    
C4    H2    S    
C28   C29   A    
C19   C21   A    
C45   H24   S    
C39   H21   S    
C45   I3    S    
C41   H14   S    
C16   H4    S    
C44   C47   S    
C10   C13   A    
C8    H7    S    
C5    C8    A    
C31   C38   A    
C13   C17   A    
C18   I1    S    
C15   H10   S    
C28   C30   A    
C2    C3    S    
C21   H12   S    
C37   C39   A    
C32   C33   A    
O6    Zn2   S    
O2    Zn2   S    
O12   H27   S    
C6    C23   S    
O16   H29   S    
C42   H1    S    
C23   O5    A    
N1    Zn2   S    
C10   C11   A    
C41   N2    A    
C48   O11   D    
C49   O14   S    
C50   O15   D    
C27   C28   A    
C14   C15   A    
C9    H8    S    
C23   O6    A    
C13   C14   A    
C4    H25   S    
C27   N1    A    
C17   H11   S    
C22   H5    S    
