data_mof_unit_19532.cif
_audit_creation_date              2012-12-11T17:07:30-0500
_audit_creation_method            fapswitch 2.2
_symmetry_space_group_name_H-M    P1
_symmetry_Int_Tables_number       1
_space_group_crystal_system       triclinic
_cell_length_a                    6.985139
_cell_length_b                    14.709754
_cell_length_c                    15.923333
_cell_angle_alpha                 90.12742
_cell_angle_beta                  90.246785
_cell_angle_gamma                 90.075743
_cell_volume                      1636.09663915

loop_
_atom_site_label
_atom_site_type_symbol
_atom_type_description
_atom_site_fract_x
_atom_site_fract_y
_atom_site_fract_z
_atom_type_partial_charge
O1    O     O_R   0.505720 0.583900 0.413310 -0.537585
O2    O     O_R   0.175940 0.594920 0.586080 -0.541672
O3    O     O_R   0.005640 0.416100 0.586690 -0.533166
C1    C     C_R   0.345802 0.620832 0.611295 0.689288
O4    O     O_R   0.176000 0.594930 0.413930 -0.547146
O5    O     O_R   0.005700 0.416110 0.413310 -0.542705
C2    C     C_R   0.344856 0.616749 0.385121 0.685250
O6    O     O_R   0.505660 0.583890 0.586690 -0.530143
O7    O     O_3   0.339200 0.441330 0.500000 -0.370812
V1    V     V_3+5 0.064350 0.510880 0.500000 1.408035
O8    O     O_R   0.675980 0.405080 0.413920 -0.541968
C3    C     C_R   0.844799 0.382923 0.385386 0.678691
O9    O     O_R   0.675920 0.405070 0.586070 -0.535775
C4    C     C_R   0.845357 0.383575 0.615219 0.783372
V2    V     V_3+5 0.564340 0.489120 0.500000 1.426956
O10   O     O_3   0.839360 0.558670 0.500000 -0.370677
H1    H     H_    0.145520 0.103917 0.512221 0.107520
C5    C     C_R   0.731771 0.425413 0.790906 0.276707
C6    C     C_R   0.633546 0.440147 0.866308 -0.170572
C7    C     C_R   0.613254 0.370578 0.923882 -0.159240
C8    C     C_R   0.695874 0.286601 0.908091 -0.148652
C9    C     C_R   0.785197 0.267592 0.830165 0.027630
C10   C     C_R   0.789525 0.336373 0.767359 0.043481
C11   C     C_R   0.876602 0.183181 0.815742 -0.167713
C12   C     C_R   0.953903 0.163686 0.735491 0.075184
C13   C     C_R   0.941062 0.229011 0.669708 0.053928
C14   C     C_R   0.859075 0.315765 0.685182 -0.194720
C15   C     C_R   0.037997 0.078185 0.718258 -0.147480
C16   C     C_R   0.107357 0.057436 0.638632 -0.126968
C17   C     C_R   0.093031 0.120650 0.574228 -0.118961
C18   C     C_R   0.010318 0.205286 0.589095 -0.136687
H2    H     H_    0.585777 0.507776 0.883219 0.124567
H3    H     H_    0.543982 0.383432 0.983443 0.138998
H4    H     H_    0.689142 0.237714 0.958427 0.129940
H5    H     H_    0.048886 0.025955 0.765653 0.097942
H6    H     H_    0.170810 0.991567 0.626680 0.116265
H7    H     H_    0.000756 0.251362 0.536433 0.096570
C19   C     C_R   0.727144 0.247476 0.188025 0.100995
C20   C     C_R   0.882602 0.187891 0.180941 -0.107143
C21   C     C_R   0.034366 0.199032 0.238624 -0.175690
H8    H     H_    0.157521 0.154828 0.235601 0.128951
C22   C     C_R   0.022217 0.262692 0.304711 -0.183207
H9    H     H_    0.137478 0.266386 0.350155 0.127876
C23   C     C_R   0.857469 0.316716 0.315310 -0.105456
C24   C     C_R   0.714799 0.310198 0.253528 0.121305
C25   C     C_3   0.505049 0.295086 0.262818 -0.413521
C26   C     C_3   0.518422 0.227155 0.191020 -0.403108
H10   H     H_    0.420448 0.356619 0.246670 0.181756
H11   H     H_    0.469362 0.263108 0.323962 0.167771
H12   H     H_    0.442520 0.249679 0.133205 0.175714
H13   H     H_    0.489492 0.155896 0.210363 0.166325
C27   C     C_R   0.523574 0.703729 0.724622 0.090864
C28   C     C_R   0.357746 0.692991 0.676667 -0.116707
C29   C     C_R   0.204361 0.751651 0.694110 -0.203518
H14   H     H_    0.081897 0.752498 0.652818 0.138819
C30   C     C_R   0.213268 0.813236 0.762007 -0.180407
H15   H     H_    0.095716 0.859554 0.771870 0.127907
C31   C     C_R   0.377350 0.818804 0.813598 -0.102546
C32   C     C_R   0.532503 0.763234 0.793200 0.114835
C33   C     C_3   0.727453 0.794959 0.770129 -0.416158
C34   C     C_3   0.712402 0.735454 0.693050 -0.420593
H16   H     H_    0.835108 0.770643 0.816457 0.180042
H17   H     H_    0.733759 0.868817 0.755445 0.168476
H18   H     H_    0.818542 0.680300 0.690692 0.184714
H19   H     H_    0.699804 0.774889 0.633728 0.171645
C35   C     C_R   0.519099 0.739330 0.305402 0.086472
C36   C     C_R   0.354358 0.686623 0.318116 -0.077933
C37   C     C_R   0.199983 0.699992 0.262537 -0.173553
H20   H     H_    0.075247 0.657052 0.266856 0.133421
C38   C     C_R   0.211600 0.763619 0.196710 -0.163064
H21   H     H_    0.095711 0.769330 0.152771 0.164107
C39   C     C_R   0.378193 0.814577 0.183027 -0.104645
C40   C     C_R   0.532183 0.799049 0.237240 0.035029
C41   C     C_3   0.727192 0.766110 0.214957 -0.189459
C42   C     C_3   0.718234 0.706107 0.292762 -0.442812
H22   H     H_    0.832679 0.822431 0.219338 0.111588
H23   H     H_    0.814156 0.729901 0.344222 0.158885
H24   H     H_    0.725630 0.631667 0.280739 0.194894
O11   O     O_R   0.229140 0.916090 0.913340 -0.542022
O12   O     O_R   0.558860 0.905090 0.086080 -0.526081
O13   O     O_R   0.729100 0.083920 0.086690 -0.543131
C43   C     C_R   0.389850 0.882051 0.113906 0.698610
O14   O     O_R   0.558860 0.905090 0.913930 -0.534650
O15   O     O_R   0.729100 0.083920 0.913310 -0.542855
C44   C     C_R   0.389683 0.885054 0.883717 0.698288
O16   O     O_R   0.229140 0.916080 0.086720 -0.536757
O17   O     O_3   0.395570 0.058660 0.000020 -0.375818
V3    V     V_3+5 0.670450 0.989140 0.000000 1.439224
O18   O     O_R   0.058810 0.094980 0.913910 -0.539343
C45   C     C_R   0.889518 0.115338 0.884518 0.686248
O19   O     O_R   0.058810 0.094980 0.086060 -0.543746
C46   C     C_R   0.890275 0.117146 0.114600 0.681508
V4    V     V_3+5 0.170450 0.010950 0.999970 1.422268
O20   O     O_3   0.895460 0.941370 0.999990 -0.348124
N1    N     N_2   0.803686 0.502343 0.748270 -0.531065
H25   H     H_    0.712072 0.556511 0.752115 0.249952
C47   C     C_3   0.996458 0.525728 0.774535 -0.536256
H26   H     H_    0.048027 0.584752 0.738588 0.200646
H27   H     H_    0.095871 0.468181 0.762855 0.203103
H28   H     H_    0.999412 0.543827 0.842367 0.191224
C48   C     C_2   0.728114 0.713804 0.132436 0.779640
O21   O     O_2   0.646913 0.640269 0.126398 -0.562712
O22   O     O_R   0.815280 0.751941 0.061962 -0.658802
H29   H     H_    0.803641 0.711920 0.010258 0.280095

loop_
_geom_bond_atom_site_label_1
_geom_bond_atom_site_label_2
_ccdc_geom_bond_type
O17   V3    S    
V4    O20   S    
H1    C17   S    
C1    C28   S    
C40   C41   S    
N1    H25   S    
C1    O6    A    
C47   H26   S    
C28   C29   A    
C23   C24   A    
C12   C15   A    
C16   H6    S    
C13   C14   A    
C48   O21   D    
O15   C45   A    
C33   H17   S    
C15   C16   A    
C27   C32   A    
O11   V4    S    
C27   C34   S    
O5    C3    A    
C17   C18   A    
V2    O10   S    
C30   H15   S    
C33   H16   S    
C5    C6    A    
C19   C24   A    
C29   H14   S    
O13   C46   A    
O8    V2    S    
C6    C7    A    
C15   H5    S    
C37   H20   S    
C38   H21   S    
O1    V2    S    
C10   C14   A    
C4    C14   S    
O7    V1    S    
O19   C46   A    
C21   C22   A    
C35   C36   A    
C32   C33   S    
C48   O22   S    
O9    C4    A    
O18   V4    S    
C5    N1    S    
C22   C23   A    
C6    H2    S    
C47   H27   S    
C26   H12   S    
C29   C30   A    
V3    O20   S    
C41   C42   S    
C5    C10   A    
C11   C12   A    
O12   C43   A    
C20   C21   A    
O4    C2    A    
C26   H13   S    
C8    H4    S    
C31   C32   A    
C43   O16   A    
C35   C40   A    
C36   C37   A    
C18   H7    S    
C33   C34   S    
C34   H18   S    
O2    C1    A    
C16   C17   A    
O16   V4    S    
C34   H19   S    
O19   V4    S    
C25   H11   S    
C42   H23   S    
C19   C26   S    
O3    C4    A    
C41   H22   S    
C41   C48   S    
C7    H3    S    
C21   H8    S    
O14   C44   A    
O6    V2    S    
O9    V2    S    
C9    C11   A    
C22   H9    S    
O2    V1    S    
C31   C44   S    
C20   C46   S    
O11   C44   A    
C47   H28   S    
C27   C28   A    
C25   C26   S    
O1    C2    A    
O15   V3    S    
C39   C40   A    
C11   C45   S    
O5    V1    S    
O8    C3    A    
N1    C47   S    
C12   C13   A    
O4    V1    S    
O12   V3    S    
O3    V1    S    
V1    O10   S    
C19   C20   A    
C35   C42   S    
O17   V4    S    
C30   C31   A    
O14   V3    S    
O7    V2    S    
C42   H24   S    
O13   V3    S    
C2    C36   S    
C25   H10   S    
C24   C25   S    
C13   C18   A    
C7    C8    A    
C37   C38   A    
O22   H29   S    
C9    C10   A    
C3    C23   S    
C38   C39   A    
O18   C45   A    
C8    C9    A    
C39   C43   S    
