data_mof_unit_24119.cif
_audit_creation_date              2012-12-10T17:27:56-0500
_audit_creation_method            fapswitch 2.2
_symmetry_space_group_name_H-M    P1
_symmetry_Int_Tables_number       1
_space_group_crystal_system       triclinic
_cell_length_a                    10.622903
_cell_length_b                    11.994366
_cell_length_c                    12.842885
_cell_angle_alpha                 93.626755
_cell_angle_beta                  90.169546
_cell_angle_gamma                 86.349265
_cell_volume                      1629.78392155

loop_
_atom_site_label
_atom_site_type_symbol
_atom_type_description
_atom_site_fract_x
_atom_site_fract_y
_atom_site_fract_z
_atom_type_partial_charge
C1    C     C_R   0.495097 0.522344 0.700320 0.923852
C2    C     C_R   0.538774 0.631381 0.861489 -0.292086
C3    C     C_R   0.440515 0.453419 0.868546 0.387325
C4    C     C_R   0.739523 0.499871 0.497340 0.864155
C5    C     C_R   0.459996 0.456519 0.975443 0.048627
C6    C     C_R   0.515936 0.549938 0.025839 0.057752
C7    C     C_R   0.534805 0.551644 0.132191 -0.212542
C8    C     C_R   0.445684 0.370591 0.139128 -0.236503
C9    C     C_R   0.426224 0.367000 0.032584 -0.160282
C10   C     C_R   0.395687 0.952395 0.391136 0.361809
C11   C     C_R   0.403164 0.836346 0.404648 -0.086216
C12   C     C_R   0.938302 0.437666 0.408745 0.092642
C13   C     C_R   0.543713 0.859493 0.546953 -0.054400
C14   C     C_R   0.537525 0.976458 0.538412 0.020326
C15   C     C_R   0.462050 0.023682 0.459975 -0.018831
C16   C     C_R   0.501990 0.477669 0.299632 0.850068
C17   C     C_R   0.456406 0.141099 0.452277 -0.020725
C18   C     C_R   0.596572 0.162840 0.595118 0.067081
C19   C     C_R   0.605128 0.047019 0.606105 -0.277533
C20   C     C_R   0.260520 0.499387 0.497809 0.859566
C21   C     C_R   0.876968 0.379732 0.325769 -0.174342
C22   C     C_R   0.946673 0.321485 0.245545 -0.118984
C23   C     C_R   0.871743 0.499490 0.490420 -0.089827
C24   C     C_R   0.077734 0.320735 0.246044 -0.115018
C25   C     C_R   0.139566 0.378077 0.326849 -0.176991
C26   C     C_R   0.070275 0.436831 0.409288 0.095274
C27   C     C_3   0.256228 0.396646 0.799356 0.097596
C28   C     C_3   0.194722 0.301025 0.739579 -0.765108
C29   C     C_3   0.377233 0.970947 0.216591 0.105139
C30   C     C_3   0.303859 0.033423 0.134118 -0.798482
C31   C     C_R   0.931474 0.562174 0.568357 -0.206855
C32   C     C_R   0.060132 0.561404 0.568857 -0.212319
C33   C     C_R   0.128417 0.498006 0.491396 -0.090496
C34   C     C_R   0.497555 0.463972 0.188386 -0.046596
C35   C     C_R   0.488728 0.537290 0.811738 -0.218538
C36   C     C_R   0.551427 0.639201 0.968713 0.152117
H1    H     H_    0.878258 0.609845 0.629974 0.150967
H2    H     H_    0.898779 0.277723 0.182294 0.144824
H3    H     H_    0.131558 0.276615 0.183079 0.133353
H4    H     H_    0.241251 0.377207 0.323120 0.138781
H5    H     H_    0.106909 0.608761 0.630694 0.147282
H6    H     H_    0.576895 0.621713 0.172820 0.187838
H7    H     H_    0.416153 0.302862 0.183375 0.149690
H8    H     H_    0.247707 0.470866 0.751243 0.122320
H9    H     H_    0.204181 0.416534 0.874099 0.133439
H10   H     H_    0.197089 0.226627 0.786990 0.244753
H11   H     H_    0.095060 0.326788 0.721913 0.204014
H12   H     H_    0.384128 0.294713 0.995568 0.182058
H13   H     H_    0.245742 0.278484 0.665097 0.276261
H14   H     H_    0.377291 0.879646 0.194672 0.164630
H15   H     H_    0.476063 0.997383 0.216620 0.157484
H16   H     H_    0.304493 0.125015 0.152654 0.230823
H17   H     H_    0.348052 0.012963 0.056423 0.227085
H18   H     H_    0.204783 0.008878 0.131396 0.263221
H19   H     H_    0.572853 0.696858 0.816626 0.198813
H20   H     H_    0.398883 0.179811 0.393115 0.163288
H21   H     H_    0.648458 0.217136 0.647594 0.140321
H22   H     H_    0.663916 0.013038 0.667039 0.151645
H23   H     H_    0.350317 0.781144 0.353805 0.154550
H24   H     H_    0.601947 0.821838 0.606295 0.139487
H25   H     H_    0.775301 0.380257 0.321160 0.148696
I1    I     I_    0.630598 0.786046 0.035407 -0.475264
N1    N     N_R   0.523130 0.207800 0.519340 -0.115510
N2    N     N_R   0.476870 0.792180 0.480660 -0.120288
O1    O     O_R   0.506170 0.421690 0.658830 -0.568931
O2    O     O_3   0.319051 0.996521 0.314668 -0.619222
O3    O     O_R   0.491330 0.609320 0.646410 -0.633807
O4    O     O_R   0.690660 0.406170 0.506210 -0.626663
O5    O     O_R   0.675810 0.593790 0.493790 -0.609774
O6    O     O_R   0.508670 0.390680 0.353590 -0.640296
O7    O     O_R   0.493830 0.578310 0.341170 -0.620983
O8    O     O_R   0.324190 0.406210 0.506210 -0.628191
O9    O     O_R   0.309340 0.593830 0.493790 -0.608848
O10   O     O_3   0.383738 0.363736 0.818758 -0.600818
Zn1   Zn    Zn3+2 0.509910 0.374720 0.508290 0.952605
Zn2   Zn    Zn3+2 0.490090 0.625280 0.491710 0.949707

loop_
_geom_bond_atom_site_label_1
_geom_bond_atom_site_label_2
_ccdc_geom_bond_type
C2    C35   A    
C28   H11   S    
C8    H7    S    
C13   H24   S    
O4    Zn1   S    
C30   H18   S    
C12   C23   A    
C28   H10   S    
C10   C15   A    
C25   H4    S    
C5    C6    A    
C11   H23   S    
C18   N1    A    
C22   H2    S    
C24   H3    S    
O5    Zn2   S    
C18   C19   A    
C7    H6    S    
C3    O10   S    
C18   H21   S    
C16   C34   S    
C27   H8    S    
C8    C9    A    
C1    O1    A    
C32   H5    S    
C27   O10   S    
C21   H25   S    
C27   H9    S    
C13   C14   A    
C16   O7    A    
O8    Zn1   S    
C36   I1    S    
C4    O5    A    
C29   H14   S    
C10   O2    S    
C19   H22   S    
C30   H17   S    
C16   O6    A    
C24   C25   A    
C11   N2    A    
C4    O4    A    
C4    C23   S    
C25   C26   A    
C12   C21   A    
C31   H1    S    
C12   C26   A    
C23   C31   A    
C5    C9    A    
C29   C30   S    
C28   H13   S    
C26   C33   A    
C31   C32   A    
C3    C35   A    
N2    Zn2   S    
C8    C34   A    
C17   H20   S    
C20   C33   S    
O9    Zn2   S    
C22   C24   A    
C27   C28   S    
C7    C34   A    
C1    C35   S    
C29   H15   S    
C2    C36   A    
C15   C17   A    
C30   H16   S    
C14   C19   A    
C3    C5    A    
C6    C7    A    
O1    Zn1   S    
C2    H19   S    
C32   C33   A    
C17   N1    A    
O7    Zn2   S    
C13   N2    A    
N1    Zn1   S    
C1    O3    A    
C6    C36   A    
C20   O9    A    
C10   C11   A    
C29   O2    S    
C9    H12   S    
O6    Zn1   S    
C14   C15   A    
C20   O8    A    
O3    Zn2   S    
C21   C22   A    
