data_mof_unit_42011.cif
_audit_creation_date              2012-12-11T16:28:14-0500
_audit_creation_method            fapswitch 2.2
_symmetry_space_group_name_H-M    P1
_symmetry_Int_Tables_number       1
_space_group_crystal_system       triclinic
_cell_length_a                    30.127847
_cell_length_b                    22.497922
_cell_length_c                    18.041405
_cell_angle_alpha                 90.02108
_cell_angle_beta                  123.077888
_cell_angle_gamma                 90.197669
_cell_volume                      10246.7028484

loop_
_atom_site_label
_atom_site_type_symbol
_atom_type_description
_atom_site_fract_x
_atom_site_fract_y
_atom_site_fract_z
_atom_type_partial_charge
C1    C     C_R   0.543960 0.580975 0.742453 -0.126280
C2    C     C_R   0.467447 0.392837 0.292040 -0.121329
C3    C     C_R   0.455273 0.580811 0.256921 -0.142289
C4    C     C_R   0.544280 0.418613 0.742465 -0.131188
C5    C     C_R   0.044525 0.080481 0.743164 -0.137860
C6    C     C_R   0.963080 0.897574 0.280891 -0.124044
C7    C     C_R   0.960484 0.095192 0.270883 -0.128731
C8    C     C_R   0.034266 0.896948 0.715637 -0.126433
C9    C     C_R   0.317964 0.637747 0.583592 -0.169855
C10   C     C_R   0.681646 0.356737 0.419250 -0.167686
C11   C     C_R   0.629780 0.720386 0.420776 -0.175462
C12   C     C_R   0.319194 0.357951 0.583803 -0.182799
C13   C     C_R   0.865344 0.215357 0.580382 -0.176732
C14   C     C_R   0.147151 0.793712 0.424449 -0.181831
C15   C     C_R   0.135701 0.217312 0.423760 -0.174347
C16   C     C_R   0.818810 0.854905 0.580990 -0.181960
C17   C     C_R   0.275093 0.659854 0.583451 -0.163579
C18   C     C_R   0.724625 0.335750 0.418598 -0.158842
C19   C     C_R   0.654878 0.772612 0.422664 -0.158554
C20   C     C_R   0.276430 0.337432 0.585691 -0.163876
C21   C     C_R   0.841223 0.267925 0.579392 -0.156182
C22   C     C_R   0.168056 0.739144 0.423609 -0.158295
C23   C     C_R   0.159189 0.270724 0.425220 -0.156068
C24   C     C_R   0.775940 0.834502 0.582735 -0.159492
C25   C     C_R   0.223870 0.654393 0.507475 -0.037908
C26   C     C_R   0.776294 0.345413 0.491797 -0.039731
C27   C     C_R   0.681700 0.807198 0.499913 -0.033316
C28   C     C_R   0.224598 0.348045 0.513988 -0.036543
C29   C     C_R   0.817595 0.304519 0.504409 -0.018582
C30   C     C_R   0.185271 0.699355 0.494063 -0.016072
C31   C     C_R   0.183221 0.306737 0.501063 -0.034337
C32   C     C_R   0.724099 0.846529 0.511996 -0.035596
C33   C     C_R   0.370463 0.614811 0.113404 0.038884
C34   C     C_R   0.629709 0.386222 0.886797 0.041892
C35   C     C_R   0.628746 0.611939 0.888638 0.038427
C36   C     C_R   0.407641 0.300571 0.222390 0.042307
C37   C     C_R   0.894575 0.177524 0.180428 0.041951
C38   C     C_R   0.097452 0.810397 0.798318 0.043210
C39   C     C_R   0.129094 0.113540 0.888251 0.040338
C40   C     C_R   0.902025 0.806968 0.207217 0.042602
C41   C     C_R   0.364064 0.649711 0.980455 0.766246
C42   C     C_R   0.637398 0.352201 0.021138 0.766429
C43   C     C_R   0.633961 0.647310 0.020468 0.763978
C44   C     C_R   0.419937 0.222111 0.142831 0.764299
C45   C     C_R   0.905964 0.252821 0.095952 0.774849
C46   C     C_R   0.086199 0.734152 0.881792 0.770428
C47   C     C_R   0.133907 0.149089 0.019687 0.761238
C48   C     C_R   0.915128 0.728024 0.129247 0.780013
C49   C     C_R   0.394242 0.627422 0.066496 -0.318391
C50   C     C_R   0.606763 0.375104 0.935406 -0.325744
C51   C     C_R   0.604226 0.625222 0.934105 -0.325055
C52   C     C_R   0.437060 0.274749 0.191690 -0.324478
C53   C     C_R   0.921159 0.199248 0.141987 -0.329348
C54   C     C_R   0.069791 0.786983 0.833897 -0.335225
C55   C     C_R   0.104375 0.127123 0.933296 -0.325879
C56   C     C_R   0.931174 0.781664 0.175614 -0.325011
C57   C     C_R   0.315592 0.621191 0.070675 -0.234007
C58   C     C_R   0.684273 0.378466 0.927788 -0.240819
C59   C     C_R   0.683901 0.616947 0.933354 -0.238751
C60   C     C_R   0.362989 0.270477 0.208968 -0.234873
C61   C     C_R   0.853842 0.211130 0.174846 -0.233706
C62   C     C_R   0.139928 0.778557 0.807159 -0.232113
C63   C     C_R   0.184280 0.118968 0.933147 -0.238681
C64   C     C_R   0.858485 0.775830 0.196340 -0.231105
C65   C     C_R   0.284477 0.643823 0.984690 0.020754
C66   C     C_R   0.715669 0.354993 0.012940 0.018342
C67   C     C_R   0.714545 0.639722 0.019554 0.019320
C68   C     C_R   0.344265 0.218111 0.158395 0.017217
C69   C     C_R   0.837510 0.264921 0.128495 0.027522
C70   C     C_R   0.158076 0.726057 0.856793 0.028318
C71   C     C_R   0.214868 0.141100 0.019920 0.017580
C72   C     C_R   0.841254 0.722040 0.149336 0.019149
C73   C     C_R   0.309729 0.660671 0.940812 -0.086625
C74   C     C_R   0.691179 0.339050 0.058351 -0.092427
C75   C     C_R   0.688600 0.657545 0.061822 -0.062637
C76   C     C_R   0.372371 0.195154 0.122356 -0.064518
C77   C     C_R   0.863372 0.285038 0.086804 -0.070432
C78   C     C_R   0.131364 0.704708 0.896393 -0.071277
C79   C     C_R   0.188685 0.158652 0.061922 -0.062008
C80   C     C_R   0.869112 0.699241 0.112740 -0.073138
C81   C     C_R   0.230183 0.657005 0.946413 0.128940
C82   C     C_R   0.768992 0.339147 0.047742 0.132295
C83   C     C_R   0.769149 0.652428 0.059458 0.130596
C84   C     C_R   0.295072 0.192149 0.134422 0.131706
C85   C     C_R   0.792816 0.296054 0.115340 0.103480
C86   C     C_R   0.205358 0.697982 0.875761 0.105887
C87   C     C_R   0.269898 0.152485 0.061635 0.130707
C88   C     C_R   0.793639 0.694079 0.129556 0.131872
C89   C     C_R   0.625721 0.609275 0.573007 -0.124807
C90   C     C_R   0.355204 0.419205 0.429169 -0.150872
C91   C     C_R   0.355476 0.581134 0.428442 -0.125418
C92   C     C_R   0.644322 0.417912 0.572067 -0.120062
C93   C     C_R   0.127583 0.107811 0.573839 -0.128364
C94   C     C_R   0.855362 0.918419 0.428504 -0.140368
C95   C     C_R   0.872012 0.107317 0.428395 -0.124093
C96   C     C_R   0.132586 0.897220 0.572521 -0.132497
C97   C     C_R   0.797922 0.361976 0.013357 -0.234157
C98   C     C_R   0.200790 0.633052 0.979254 -0.225725
C99   C     C_R   0.269134 0.206272 0.177881 -0.239433
C100  C     C_R   0.799231 0.627480 0.028744 -0.238365
C101  C     C_R   0.230141 0.711461 0.830072 -0.159360
C102  C     C_R   0.769324 0.283671 0.163467 -0.165491
C103  C     C_R   0.768336 0.708222 0.174089 -0.232772
C104  C     C_R   0.300055 0.127515 0.031080 -0.240884
C105  C     C_R   0.845071 0.335869 0.034144 -0.099293
C106  C     C_R   0.151488 0.655807 0.952915 -0.099357
C107  C     C_R   0.217173 0.188103 0.143352 -0.118266
C108  C     C_R   0.849220 0.649631 0.057080 -0.095086
C109  C     C_R   0.280948 0.691221 0.860650 -0.071064
C110  C     C_R   0.719935 0.306786 0.136966 -0.052542
C111  C     C_R   0.717072 0.688411 0.142065 -0.114739
C112  C     C_R   0.351189 0.147484 0.063067 -0.110671
C113  C     C_R   0.575652 0.609152 0.425137 -0.121671
C114  C     C_R   0.406187 0.417057 0.576066 -0.126768
C115  C     C_R   0.405786 0.582256 0.575635 -0.126605
C116  C     C_R   0.594645 0.417614 0.425047 -0.145453
C117  C     C_R   0.079493 0.107023 0.426329 -0.121744
C118  C     C_R   0.905624 0.917200 0.575305 -0.137380
C119  C     C_R   0.923271 0.107711 0.575948 -0.125092
C120  C     C_R   0.083702 0.897797 0.425403 -0.123655
C121  C     C_R   0.382161 0.583277 0.259310 -0.121107
C122  C     C_R   0.617810 0.417275 0.740926 -0.125734
C123  C     C_R   0.617978 0.581367 0.742895 -0.145927
C124  C     C_R   0.393069 0.391690 0.292209 -0.127342
C125  C     C_R   0.886469 0.095992 0.270507 -0.143293
C126  C     C_R   0.110355 0.898008 0.721492 -0.141602
C127  C     C_R   0.118077 0.081827 0.742581 -0.139088
C128  C     C_R   0.890705 0.894589 0.286283 -0.126470
C129  C     C_R   0.597500 0.595508 0.793694 0.121998
C130  C     C_R   0.421899 0.359607 0.265976 0.112674
C131  C     C_R   0.402149 0.597131 0.207688 0.116907
C132  C     C_R   0.597689 0.403287 0.792345 0.113708
C133  C     C_R   0.097848 0.096033 0.793631 0.125945
C134  C     C_R   0.917228 0.864875 0.253857 0.114767
C135  C     C_R   0.911832 0.122935 0.234045 0.120821
C136  C     C_R   0.081901 0.867149 0.749631 0.117605
C137  C     C_R   0.612105 0.642356 0.498335 0.098719
C138  C     C_R   0.356125 0.403897 0.504472 0.104407
C139  C     C_R   0.355878 0.595431 0.503590 0.100911
C140  C     C_R   0.644024 0.403038 0.497263 0.104408
C141  C     C_R   0.116123 0.139842 0.499747 0.098727
C142  C     C_R   0.855997 0.902923 0.503381 0.106299
C143  C     C_R   0.885548 0.139815 0.503466 0.097631
C144  C     C_R   0.122865 0.867285 0.498132 0.095967
C145  C     C_R   0.215228 0.619496 0.436221 0.796418
C146  C     C_R   0.784609 0.381698 0.561700 0.774611
C147  C     C_R   0.677989 0.792270 0.571980 0.767144
C148  C     C_R   0.216089 0.385214 0.444844 0.791265
C149  C     C_R   0.823129 0.290816 0.433902 0.756946
C150  C     C_R   0.177295 0.712761 0.561877 0.760690
C151  C     C_R   0.178584 0.291548 0.572073 0.778330
C152  C     C_R   0.715835 0.884026 0.443310 0.769182
C153  C     C_R   0.258341 0.597207 0.436506 -0.347978
C154  C     C_R   0.741379 0.402417 0.562495 -0.341959
C155  C     C_R   0.653041 0.739530 0.570192 -0.337797
C156  C     C_R   0.259149 0.405616 0.442887 -0.347892
C157  C     C_R   0.847034 0.237723 0.434733 -0.348625
C158  C     C_R   0.156746 0.767777 0.563029 -0.358117
C159  C     C_R   0.155152 0.237715 0.570655 -0.339101
C160  C     C_R   0.758972 0.904045 0.441292 -0.344770
C161  C     C_R   0.310050 0.609483 0.508070 0.042615
C162  C     C_R   0.689727 0.387641 0.493066 0.044116
C163  C     C_R   0.631179 0.701889 0.496171 0.051540
C164  C     C_R   0.310771 0.389461 0.510311 0.047265
C165  C     C_R   0.866006 0.198560 0.506289 0.064069
C166  C     C_R   0.143456 0.809245 0.495945 0.064787
C167  C     C_R   0.135793 0.199109 0.498095 0.048611
C168  C     C_R   0.810523 0.887441 0.508384 0.047977
H1    H     H_    0.517297 0.577896 0.764861 0.099000
H2    H     H_    0.498821 0.381367 0.282787 0.103484
H3    H     H_    0.480864 0.576823 0.232505 0.105615
H4    H     H_    0.518093 0.421489 0.765833 0.098215
H5    H     H_    0.018538 0.076421 0.766808 0.097317
H6    H     H_    0.989757 0.890430 0.259776 0.095882
H7    H     H_    0.987217 0.099627 0.249075 0.097912
H8    H     H_    0.003000 0.886321 0.725710 0.099775
H9    H     H_    0.701514 0.385111 0.889879 0.128409
H10   H     H_    0.297762 0.613273 0.107448 0.127584
H11   H     H_    0.340672 0.290555 0.232573 0.129863
H12   H     H_    0.702439 0.608153 0.897929 0.129565
H13   H     H_    0.160366 0.796910 0.778813 0.117583
H14   H     H_    0.833874 0.193844 0.204654 0.119778
H15   H     H_    0.836141 0.795641 0.220097 0.128711
H16   H     H_    0.202875 0.110348 0.897735 0.129888
H17   H     H_    0.564867 0.381733 0.906340 0.163138
H18   H     H_    0.436428 0.622274 0.097035 0.168491
H19   H     H_    0.472370 0.296025 0.202528 0.166286
H20   H     H_    0.561820 0.620944 0.902132 0.168492
H21   H     H_    0.036189 0.810008 0.826653 0.164034
H22   H     H_    0.953490 0.174826 0.146803 0.168835
H23   H     H_    0.965815 0.803637 0.184835 0.164135
H24   H     H_    0.061942 0.122962 0.901058 0.164771
H25   H     H_    0.784535 0.400073 0.969961 0.135477
H26   H     H_    0.215266 0.596441 0.025354 0.141358
H27   H     H_    0.288578 0.230780 0.239391 0.136305
H28   H     H_    0.784799 0.590487 0.983011 0.136408
H29   H     H_    0.210876 0.737315 0.770134 0.152881
H30   H     H_    0.788456 0.256358 0.221975 0.145468
H31   H     H_    0.787689 0.734224 0.234253 0.137944
H32   H     H_    0.284931 0.091966 0.982917 0.136077
H33   H     H_    0.653233 0.621850 0.641158 0.106232
H34   H     H_    0.320451 0.422784 0.362801 0.100610
H35   H     H_    0.321269 0.578442 0.361372 0.097047
H36   H     H_    0.678428 0.420040 0.639308 0.096388
H37   H     H_    0.155120 0.119986 0.642144 0.104807
H38   H     H_    0.820787 0.921485 0.361882 0.099311
H39   H     H_    0.841800 0.118765 0.361426 0.094646
H40   H     H_    0.164015 0.887852 0.639597 0.094242
H41   H     H_    0.555996 0.621708 0.356551 0.106358
H42   H     H_    0.418096 0.419776 0.644415 0.100739
H43   H     H_    0.417334 0.579084 0.643739 0.102522
H44   H     H_    0.584125 0.421457 0.357558 0.108744
H45   H     H_    0.063999 0.118208 0.358697 0.099278
H46   H     H_    0.916458 0.920769 0.642998 0.100280
H47   H     H_    0.942784 0.119998 0.644722 0.106025
H48   H     H_    0.070409 0.889197 0.357772 0.095314
H49   H     H_    0.341319 0.581654 0.239569 0.090417
H50   H     H_    0.658652 0.419793 0.760886 0.087940
H51   H     H_    0.659095 0.577765 0.764842 0.090065
H52   H     H_    0.355536 0.380459 0.282933 0.098990
H53   H     H_    0.845340 0.100115 0.248150 0.093927
H54   H     H_    0.151178 0.891558 0.743757 0.089790
H55   H     H_    0.159198 0.078605 0.764400 0.088946
H56   H     H_    0.852867 0.884081 0.276315 0.096838
H57   H     H_    0.251173 0.572964 0.379134 0.163365
H58   H     H_    0.748462 0.428287 0.618573 0.162858
H59   H     H_    0.652782 0.727126 0.627919 0.164745
H60   H     H_    0.251914 0.432136 0.387325 0.164911
H61   H     H_    0.849257 0.226422 0.378520 0.147272
H62   H     H_    0.151829 0.778241 0.616723 0.148023
H63   H     H_    0.153743 0.225521 0.627376 0.166783
H64   H     H_    0.751867 0.931072 0.386245 0.164048
H65   H     H_    0.357398 0.647110 0.640134 0.145774
H66   H     H_    0.642132 0.345237 0.364596 0.147094
H67   H     H_    0.612975 0.692508 0.362536 0.144699
H68   H     H_    0.358699 0.345452 0.637017 0.140323
H69   H     H_    0.880080 0.186083 0.636643 0.139494
H70   H     H_    0.136457 0.824806 0.371491 0.137813
H71   H     H_    0.120808 0.188720 0.366634 0.143579
H72   H     H_    0.858292 0.841922 0.633764 0.143193
H73   H     H_    0.836627 0.276911 0.633840 0.179370
H74   H     H_    0.174910 0.730278 0.371622 0.173980
H75   H     H_    0.163135 0.280810 0.370361 0.179638
H76   H     H_    0.783419 0.804713 0.635494 0.180902
H77   H     H_    0.282750 0.687121 0.638813 0.171122
H78   H     H_    0.717131 0.307065 0.364638 0.175077
H79   H     H_    0.657891 0.782512 0.366803 0.181570
H80   H     H_    0.284083 0.308087 0.639000 0.176927
H81   H     H_    0.865332 0.353454 0.004373 0.194030
H82   H     H_    0.130798 0.637361 0.981437 0.197068
H83   H     H_    0.198358 0.200625 0.177848 0.185586
H84   H     H_    0.870624 0.630251 0.030543 0.193958
H85   H     H_    0.298918 0.703325 0.824583 0.183247
H86   H     H_    0.702697 0.295302 0.174388 0.188537
H87   H     H_    0.698544 0.701161 0.176936 0.184579
H88   H     H_    0.372657 0.128051 0.036681 0.188529
N1    N     N_R   0.532910 0.558440 0.665240 -0.041909
N2    N     N_R   0.467090 0.441560 0.334760 -0.043847
N3    N     N_R   0.467090 0.558440 0.334760 -0.043033
N4    N     N_R   0.532910 0.441560 0.665240 -0.042779
N5    N     N_R   0.032910 0.058440 0.665240 -0.041963
N6    N     N_R   0.967090 0.941560 0.334760 -0.043705
N7    N     N_R   0.967090 0.058440 0.334760 -0.042067
N8    N     N_R   0.032910 0.941560 0.665240 -0.043054
N9    N     N_R   0.597030 0.558910 0.545540 -0.043704
N10   N     N_R   0.402970 0.441090 0.454460 -0.040161
N11   N     N_R   0.402970 0.558910 0.454460 -0.041198
N12   N     N_R   0.597030 0.441090 0.545540 -0.041790
N13   N     N_R   0.097030 0.058910 0.545540 -0.043356
N14   N     N_R   0.902970 0.941090 0.454460 -0.040427
N15   N     N_R   0.902970 0.058910 0.454460 -0.041525
N16   N     N_R   0.097030 0.941090 0.545540 -0.040578
N17   N     N_R   0.566200 0.559270 0.454460 -0.043423
N18   N     N_R   0.433800 0.440730 0.545540 -0.041460
N19   N     N_R   0.433800 0.559270 0.545540 -0.042366
N20   N     N_R   0.566200 0.440730 0.454460 -0.042440
N21   N     N_R   0.066200 0.059270 0.454460 -0.044578
N22   N     N_R   0.933800 0.940730 0.545540 -0.041619
N23   N     N_R   0.933800 0.059270 0.545540 -0.043938
N24   N     N_R   0.066200 0.940730 0.454460 -0.043094
N25   N     N_R   0.421050 0.559750 0.334770 -0.042112
N26   N     N_R   0.578950 0.440250 0.665230 -0.041914
N27   N     N_R   0.578950 0.559750 0.665230 -0.041683
N28   N     N_R   0.421050 0.440250 0.334770 -0.043871
N29   N     N_R   0.921050 0.059750 0.334770 -0.040251
N30   N     N_R   0.078950 0.940250 0.665230 -0.040376
N31   N     N_R   0.078950 0.059750 0.665230 -0.041033
N32   N     N_R   0.921050 0.940250 0.334770 -0.043183
Ni1   Ni    Ni4+2 0.483090 0.500000 0.604440 0.216221
Ni2   Ni    Ni4+2 0.516910 0.500000 0.395560 0.225360
Ni3   Ni    Ni4+2 0.983090 0.000000 0.604440 0.220497
Ni4   Ni    Ni4+2 0.016910 0.000000 0.395560 0.226695
Ni5   Ni    Ni4+2 0.586780 0.500000 0.604440 0.214957
Ni6   Ni    Ni4+2 0.413220 0.500000 0.395560 0.216917
Ni7   Ni    Ni4+2 0.086780 0.000000 0.604440 0.220726
Ni8   Ni    Ni4+2 0.913220 0.000000 0.395560 0.224640
F1    F     F_    0.388674 0.664068 0.938347 -0.690657
F2    F     F_    0.613575 0.338939 0.064891 -0.691239
F3    F     F_    0.608661 0.662486 0.061056 -0.688394
F4    F     F_    0.448148 0.199703 0.110918 -0.684794
F5    F     F_    0.931738 0.272045 0.057805 -0.672460
F6    F     F_    0.059548 0.713586 0.917726 -0.674499
F7    F     F_    0.108367 0.164226 0.059888 -0.688199
F8    F     F_    0.943137 0.705895 0.096789 -0.668348
F9    F     F_    0.165670 0.612155 0.363194 -0.659070
F10   F     F_    0.834360 0.393061 0.632050 -0.677244
F11   F     F_    0.702228 0.826114 0.646471 -0.688371
F12   F     F_    0.166210 0.397496 0.375989 -0.661640
F13   F     F_    0.802012 0.326626 0.361923 -0.706590
F14   F     F_    0.192505 0.674138 0.629374 -0.701362
F15   F     F_    0.200388 0.326507 0.645284 -0.679408
F16   F     F_    0.666043 0.897644 0.375347 -0.684462

loop_
_geom_bond_atom_site_label_1
_geom_bond_atom_site_label_2
_ccdc_geom_bond_type
C124  H52   S    
C54   H21   S    
N14   Ni8   S    
C119  C143  A    
C120  C144  A    
C128  H56   S    
N21   Ni4   S    
N22   Ni3   S    
N11   N19   A    
C3    C131  A    
C153  H57   S    
C1    C129  A    
C119  N23   A    
C57   H10   S    
C120  N24   A    
C99   H27   S    
C62   C70   A    
C97   H25   S    
C116  N20   A    
C64   H15   S    
C49   H18   S    
C37   C135  S    
C52   H19   S    
C38   C136  S    
C8    N8    A    
C147  C155  A    
C53   H22   S    
C81   C86   A    
C97   C105  A    
C156  H60   S    
N15   N23   A    
C83   C88   A    
C56   H23   S    
C126  C136  A    
C4    N4    A    
C5    N5    A    
C91   N11   A    
C41   C49   A    
C100  H28   S    
C111  H87   S    
C125  N29   A    
C9    H65   S    
C127  N31   A    
N3    N25   A    
C128  N32   A    
C118  N22   A    
C13   H69   S    
C6    H6    S    
C21   C29   A    
C153  C161  A    
C159  H63   S    
N11   Ni6   S    
C24   C32   A    
C36   C130  S    
C66   C82   A    
C146  C154  A    
C12   C20   A    
C13   C21   A    
C117  H45   S    
C63   C71   A    
C83   C100  A    
C35   C51   A    
C113  C137  A    
C25   C145  A    
C113  N17   A    
C99   C107  A    
C43   C75   A    
C104  C112  A    
C74   C110  A    
N26   Ni5   S    
C82   C85   A    
C98   C106  A    
C78   C106  A    
C17   C25   A    
C106  H82   S    
N8    N30   A    
C62   H13   S    
C10   C18   A    
C3    N3    A    
C90   H34   S    
N31   Ni7   S    
C24   H76   S    
N32   Ni8   S    
N13   Ni7   S    
C96   H40   S    
N16   Ni7   S    
C142  C168  S    
C92   N12   A    
C93   N13   A    
C34   C58   A    
C21   H73   S    
C33   C49   A    
C38   C62   A    
N6    N32   A    
C151  F15   S    
N7    N29   A    
C15   H71   S    
C152  F16   S    
C69   C77   A    
C94   H38   S    
C48   C56   A    
C71   C79   A    
N1    Ni1   S    
C4    C132  A    
C60   H11   S    
C5    C133  A    
C155  H59   S    
C61   H14   S    
C108  H84   S    
C103  C111  A    
C59   H12   S    
C110  H86   S    
C101  H29   S    
C140  C162  S    
C66   C74   A    
C26   C146  A    
C51   H20   S    
C59   C67   A    
C159  C167  A    
C160  H64   S    
C7    N7    A    
N28   Ni6   S    
C14   C166  A    
C36   C52   A    
C37   C53   A    
C44   C52   A    
C160  C168  A    
C45   C53   A    
N16   N24   A    
C104  H32   S    
C15   C167  A    
C121  N25   A    
N9    Ni5   S    
C90   C138  A    
C45   F5    S    
C100  C108  A    
C94   C142  A    
N2    N28   A    
C157  C165  A    
C137  C163  S    
C155  C163  A    
C40   C134  S    
C151  C159  A    
C128  C134  A    
C31   C151  A    
C32   C152  A    
C17   H77   S    
N12   N20   A    
C11   C163  A    
N13   N21   A    
C6    N6    A    
C9    C161  A    
C60   C68   A    
C42   C50   A    
N9    N17   A    
C126  N30   A    
C67   C75   A    
C69   C85   A    
C145  F9    S    
C123  H51   S    
C4    H4    S    
C124  N28   A    
C5    H5    S    
C154  C162  A    
C8    H8    S    
C125  H53   S    
C68   C76   A    
C80   C108  A    
C115  H43   S    
C14   C22   A    
C113  H41   S    
C72   C80   A    
C125  C135  A    
N27   Ni5   S    
C89   N9    A    
C114  C138  A    
C41   C73   A    
C16   H72   S    
C10   C162  A    
N1    N27   A    
C45   C77   A    
C112  H88   S    
N5    N31   A    
C85   C102  A    
C95   C143  A    
C8    C136  A    
C18   C26   A    
C67   C83   A    
C11   C19   A    
C154  H58   S    
C30   C150  A    
C81   C98   A    
C101  C109  A    
C94   N14   A    
C98   H26   S    
C35   C59   A    
C143  C165  S    
C41   F1    S    
C39   C55   A    
C40   C56   A    
C22   C30   A    
C92   H36   S    
N2    Ni2   S    
C11   H67   S    
C121  H49   S    
C1    N1    A    
C95   H39   S    
C141  C167  S    
C42   C74   A    
C157  H61   S    
C68   C84   A    
C139  C161  S    
C14   H70   S    
C42   F2    S    
N3    Ni2   S    
C48   F8    S    
C144  C166  S    
N8    Ni3   S    
C117  C141  A    
C12   C164  A    
C65   C81   A    
C38   C54   A    
C46   C54   A    
C79   C107  A    
C118  H46   S    
C122  N26   A    
C2    H2    S    
C91   C139  A    
C89   C137  A    
C82   C97   A    
C102  C110  A    
C120  H48   S    
N17   Ni2   S    
C92   C140  A    
C22   H74   S    
C93   C141  A    
C37   C61   A    
C114  N18   A    
C46   C78   A    
C39   C133  S    
C25   C30   S    
N4    Ni1   S    
C63   H16   S    
C150  C158  A    
C27   C32   S    
C84   C99   A    
C28   C31   S    
C127  C133  A    
C57   C65   A    
C10   H66   S    
C95   N15   A    
C20   C28   A    
C75   C111  A    
C107  H83   S    
N10   Ni6   S    
C55   H24   S    
N14   N22   A    
C77   C105  A    
C105  H81   S    
C116  H44   S    
C27   C147  A    
C43   C51   A    
N10   N18   A    
N5    Ni3   S    
N29   Ni8   S    
C109  H85   S    
C2    C130  A    
N6    Ni4   S    
N30   Ni7   S    
C73   C109  A    
C87   C104  A    
C146  F10   S    
C148  C156  A    
C149  C157  A    
C91   H35   S    
C23   C31   A    
C89   H33   S    
C152  C160  A    
C119  H47   S    
C70   C78   A    
N7    Ni4   S    
C84   C87   A    
C47   C79   A    
C93   H37   S    
C158  H62   S    
C19   H79   S    
C148  F12   S    
C114  H42   S    
C149  F13   S    
N24   Ni4   S    
C90   N10   A    
C102  H30   S    
C96   C144  A    
C147  F11   S    
C65   C73   A    
C44   C76   A    
N12   Ni5   S    
C117  N21   A    
C13   C165  A    
C58   C66   A    
C7    H7    S    
C19   C27   A    
C35   C129  S    
C127  H55   S    
C145  C153  A    
C33   C131  S    
C15   C23   A    
C34   C132  S    
C16   C24   A    
C123  C129  A    
C121  C131  A    
C122  C132  A    
C72   C88   A    
C34   C50   A    
C124  C130  A    
N19   Ni1   S    
C46   F6    S    
C7    C135  A    
N25   Ni6   S    
C18   H78   S    
C76   C112  A    
C44   F4    S    
C103  H31   S    
C9    C17   A    
C2    N2    A    
N23   Ni3   S    
C71   C87   A    
C70   C86   A    
C88   C103  A    
C47   C55   A    
C61   C69   A    
C12   H68   S    
C43   F3    S    
C33   C57   A    
C122  H50   S    
C28   C148  A    
C47   F7    S    
C115  C139  A    
C118  C142  A    
N4    N26   A    
C126  H54   S    
C96   N16   A    
C39   C63   A    
C40   C64   A    
C48   C80   A    
N20   Ni2   S    
C6    C134  A    
C123  N27   A    
C86   C101  A    
C3    H3    S    
C16   C168  A    
C1    H1    S    
C58   H9    S    
C64   C72   A    
N18   Ni1   S    
N15   Ni8   S    
C29   C149  A    
C158  C166  A    
C115  N19   A    
C20   H80   S    
C156  C164  A    
C26   C29   S    
C150  F14   S    
C36   C60   A    
C138  C164  S    
C50   H17   S    
C23   H75   S    
C116  C140  A    
