data_mof_unit_66750.cif
_audit_creation_date              2013-03-05T15:40:47-0500
_audit_creation_method            fapswitch 2.2
_symmetry_space_group_name_H-M    P1
_symmetry_Int_Tables_number       1
_space_group_crystal_system       triclinic
_cell_length_a                    8.440967
_cell_length_b                    13.235498
_cell_length_c                    15.239946
_cell_angle_alpha                 96.089256
_cell_angle_beta                  99.524259
_cell_angle_gamma                 98.177378
_cell_volume                      1647.35514378

loop_
_atom_site_label
_atom_site_type_symbol
_atom_site_description
_atom_site_fract_x
_atom_site_fract_y
_atom_site_fract_z
_atom_type_partial_charge
P1    P     P_3+3 0.998660 0.747790 0.570900 0.501253
O1    O     O_2   0.168170 0.764170 0.543850 -0.347713
O2    O     O_3   0.898670 0.629780 0.545890 -0.411073
O3    O     O_3   0.365980 0.695510 0.380810 -0.403056
O4    O     O_2   0.284485 0.875699 0.428530 -0.326318
O5    O     O_3   0.036024 0.783529 0.687114 -0.546040
O6    O     O_3   0.380276 0.860040 0.275172 -0.583116
C1    C     C_3   0.493607 0.830879 0.142553 -0.972814
H1    H     H_    0.417581 0.878289 0.103237 0.252015
H2    H     H_    0.603416 0.881769 0.178860 0.327405
P2    P     P_3+3 0.306970 0.411860 0.294270 0.500791
P3    P     P_3+3 0.868375 0.622703 0.218049 0.595604
O7    O     O_2   0.136040 0.444100 0.280280 -0.341983
O8    O     O_3   0.934510 0.640480 0.335500 -0.316135
O9    O     O_2   0.964007 0.543766 0.177496 -0.318004
O10   O     O_3   0.227098 0.279925 0.261698 -0.602891
O11   O     O_3   0.918274 0.733075 0.167138 -0.566574
C2    C     C_3   0.982908 0.822178 0.228870 0.683061
H3    H     H_    0.081392 0.805785 0.280206 0.092949
C3    C     C_3   0.054558 0.906559 0.176726 -0.101304
H4    H     H_    0.169433 0.891216 0.158022 0.109849
C4    C     C_3   0.832228 0.275951 0.261526 0.538073
H5    H     H_    0.959266 0.300143 0.294141 0.047925
C5    C     C_3   0.831982 0.219809 0.165473 0.309570
H6    H     H_    0.944017 0.183669 0.171159 0.108022
Ba1   Ba    Ba6+2 0.153570 0.551840 0.456200 1.682825
C6    C     C_3   0.104336 0.710422 0.732191 0.456603
H7    H     H_    0.211482 0.691757 0.704237 0.120265
H8    H     H_    0.009324 0.641716 0.727176 0.071083
C7    C     C_3   0.159927 0.756024 0.830683 -0.904621
H9    H     H_    0.247269 0.828766 0.836461 0.307522
H10   H     H_    0.221432 0.701978 0.869593 0.209479
H11   H     H_    0.053197 0.772746 0.860518 0.250372
C8    C     C_3   0.328401 0.209484 0.289227 0.694242
H12   H     H_    0.446192 0.248144 0.329669 0.096820
C9    C     C_3   0.354822 0.143832 0.206275 -0.798668
H13   H     H_    0.236384 0.109294 0.163125 0.226509
H14   H     H_    0.421350 0.080878 0.225930 0.276217
H15   H     H_    0.424013 0.190452 0.166269 0.265897
P4    P     P_3+3 0.811620 0.252200 0.429030 0.583477
O12   O     O_2   0.642110 0.235770 0.456130 -0.367201
O13   O     O_3   0.911620 0.370210 0.454030 -0.352357
O14   O     O_3   0.444310 0.304480 0.619110 -0.414222
O15   O     O_3   0.752224 0.210772 0.312822 -0.571827
P5    P     P_3+3 0.920244 0.387521 0.782687 0.499005
O16   O     O_3   0.400800 0.556680 0.607590 -0.428923
O17   O     O_3   0.875770 0.359510 0.664420 -0.324368
O18   O     O_2   0.767901 0.419679 0.814904 -0.386210
O19   O     O_3   0.940832 0.271924 0.830356 -0.605451
Ba2   Ba    Ba6+2 0.656590 0.448150 0.543720 1.647311
P6    P     P_3+3 0.416690 0.829663 0.385798 0.518260
C10   C     C_3   0.405226 0.780201 0.211615 1.024537
H16   H     H_    0.488818 0.732471 0.243245 0.041904
H17   H     H_    0.536403 0.773590 0.097325 0.214838
O20   O     O_3   0.409490 0.443300 0.392340 -0.465740
C11   C     C_3   0.588611 0.766935 0.686574 0.235911
H18   H     H_    0.691009 0.734038 0.663115 0.041112
H19   H     H_    0.489145 0.765531 0.628445 0.109362
C12   C     C_3   0.650552 0.877097 0.731055 0.218980
H20   H     H_    0.784116 0.886386 0.757609 0.084517
H21   H     H_    0.631065 0.927100 0.678036 0.183411
P7    P     P_3+3 0.497916 0.583431 0.720422 0.438621
O21   O     O_2   0.674250 0.555830 0.719690 -0.369429
O22   O     O_3   0.527755 0.714383 0.751197 -0.565008
H22   H     H_    0.087422 0.980981 0.220409 0.181564
C13   C     C_3   0.990846 0.184628 0.782786 1.298363
C14   C     C_3   0.037707 0.115176 0.855373 -0.962874
H23   H     H_    0.031696 0.033685 0.827352 0.280860
H24   H     H_    0.164915 0.141689 0.890452 0.219856
H25   H     H_    0.959334 0.117133 0.906936 0.256649
P8    P     P_3+3 0.397057 0.167959 0.612619 0.607634
C15   C     C_3   0.509264 0.175933 0.786018 0.387444
H26   H     H_    0.391177 0.173169 0.807559 0.110264
O23   O     O_2   0.485033 0.126192 0.539410 -0.304573
O24   O     O_3   0.490375 0.112186 0.704331 -0.417166
H27   H     H_    0.570529 0.254456 0.781338 0.130200
H28   H     H_    0.530495 0.078602 0.890496 0.268446
C16   C     C_3   0.610326 0.134005 0.860576 -0.752770
H29   H     H_    0.671660 0.197991 0.913492 0.281550
H30   H     H_    0.701624 0.094106 0.834517 0.250190
C17   C     C_R   0.077814 0.180827 0.529430 0.254428
C18   C     C_R   0.724692 0.823332 0.485605 -0.429336
C19   C     C_R   0.690435 0.993032 0.443879 0.027192
C20   C     C_R   0.625770 0.888813 0.446430 0.277857
C21   C     C_R   0.890486 0.854898 0.520406 0.305309
C22   C     C_R   0.956776 0.965151 0.522997 -0.116798
C23   C     C_R   0.853772 0.035499 0.483017 -0.050871
C24   C     C_R   0.916666 0.146220 0.486315 0.228244
C25   C     C_R   0.178638 0.114437 0.565861 0.112350
C26   C     C_R   0.118250 0.009973 0.567087 0.273831
H31   H     H_    0.613262 0.040159 0.409324 0.183669
H32   H     H_    0.672061 0.743720 0.485175 0.141346
C27   C     C_R   0.209552 0.514770 0.775330 -0.555850
C28   C     C_R   0.108003 0.481890 0.833709 0.248117
C29   C     C_R   0.176761 0.484821 0.925194 -0.288312
C30   C     C_R   0.349010 0.505851 0.955634 0.073507
C31   C     C_R   0.447864 0.528308 0.890770 -0.253543
C32   C     C_R   0.378213 0.532421 0.801386 0.295531
C33   C     C_R   0.583109 0.562947 0.088511 -0.306992
C34   C     C_R   0.648809 0.575206 0.180053 0.339327
C35   C     C_R   0.399227 0.483668 0.210655 0.299639
C36   C     C_R   0.341755 0.458322 0.116859 0.472094
C37   C     C_R   0.424776 0.508234 0.054278 -0.103554
C38   C     C_R   0.549462 0.547441 0.241067 -0.417864
H33   H     H_    0.658578 0.597422 0.045560 0.176415
H34   H     H_    0.095617 0.462673 0.970123 0.222966
H35   H     H_    0.578888 0.542867 0.907828 0.163681
H36   H     H_    0.597868 0.563957 0.312296 0.198006
H37   H     H_    0.158422 0.511355 0.704811 0.148297
O25   O     O_3   0.254079 0.713378 0.177024 -0.635781
C39   C     C_3   0.207403 0.696721 0.082194 -0.196323
H38   H     H_    0.303958 0.673077 0.048529 0.117903
H39   H     H_    0.170569 0.765562 0.054824 0.181376
H40   H     H_    0.101232 0.634184 0.063161 0.215899
N1    N     N_R   0.693643 0.136254 0.136650 0.255735
O26   O     O_R   0.595099 0.131191 0.060477 -0.431128
O27   O     O_R   0.684640 0.057309 0.180262 -0.348140
N2    N     N_R   0.838662 0.289226 0.095964 0.244646
O28   O     O_R   0.723804 0.343959 0.076552 -0.382101
O29   O     O_R   0.925374 0.270186 0.034852 -0.366980
N3    N     N_R   0.243640 0.139188 0.340127 0.166206
O30   O     O_R   0.086840 0.131213 0.333700 -0.474122
O31   O     O_R   0.316294 0.068740 0.374742 -0.419748
O32   O     O_3   0.559540 0.905394 0.797698 -0.561777
C40   C     C_3   0.641669 0.894264 0.884189 0.017004
H41   H     H_    0.756154 0.950705 0.904057 0.158202
H42   H     H_    0.670106 0.815423 0.888494 0.169538
H43   H     H_    0.561964 0.909108 0.933651 0.164705
N4    N     N_R   0.857587 0.127222 0.714974 0.187859
O33   O     O_R   0.873187 0.035343 0.682895 -0.524658
O34   O     O_R   0.768996 0.176429 0.662603 -0.342371
O35   O     O_3   0.126969 0.199845 0.739338 -0.688549
C41   C     C_3   0.215201 0.297923 0.757752 -0.250684
H44   H     H_    0.236254 0.325782 0.829632 0.123283
H45   H     H_    0.163510 0.340894 0.705972 0.216463
H46   H     H_    0.337127 0.303242 0.745393 0.134878
N5    N     N_R   0.214749 0.957195 0.626890 0.276319
O36   O     O_R   0.349363 0.933448 0.606301 -0.362043
O37   O     O_R   0.203450 0.969873 0.711269 -0.341119
O38   O     O_3   0.131522 0.284959 0.547079 -0.670148
C42   C     C_3   0.219422 0.316386 0.481656 0.146014
H47   H     H_    0.141215 0.315616 0.416811 0.101307
H48   H     H_    0.314991 0.270543 0.469948 0.095698
H49   H     H_    0.280857 0.395026 0.507538 0.207224
O39   O     O_3   0.216752 0.376504 0.088734 -0.584211
C43   C     C_3   0.273643 0.295824 0.040669 -0.027287
H50   H     H_    0.207090 0.221056 0.051430 0.184260
H51   H     H_    0.406533 0.294625 0.059952 0.163070
H52   H     H_    0.246231 0.301243 0.968501 0.122671
N6    N     N_R   0.858406 0.858598 0.274394 0.180558
O40   O     O_R   0.860433 0.956517 0.295688 -0.386921
O41   O     O_R   0.765133 0.794554 0.309586 -0.521951
N7    N     N_R   0.943569 0.916545 0.094832 0.267789
O42   O     O_R   0.900152 0.839318 0.030923 -0.442295
O43   O     O_R   0.921890 0.007780 0.076387 -0.393217
N8    N     N_R   0.750360 0.363547 0.256534 0.211536
O44   O     O_R   0.598260 0.345591 0.219608 -0.518399
O45   O     O_R   0.804285 0.444421 0.315231 -0.369065

loop_
_geom_bond_atom_site_label_1
_geom_bond_atom_site_label_2
_geom_bond_distance
_ccdc_geom_bond_type
C17   O38   1.371382 S    
C19   C23   1.417335 A    
C23   C24   1.478555 A    
C27   C28   1.394310 A    
C6    H8    1.110616 S    
P1    Ba1   3.500132 S    
C33   C37   1.412988 A    
C29   C30   1.428604 A    
C15   H27   1.108010 S    
Ba1   O20   2.993223 S    
O39   C43   1.415560 S    
C4    N8    1.434139 S    
H28   C16   1.109845 S    
N5    O37   1.300088 A    
C35   C36   1.419041 A    
O16   P7    1.753861 S    
C19   C20   1.416471 A    
N8    O44   1.291216 A    
O6    C10   1.418750 S    
C8    H12   1.102644 S    
Ba1   Ba2   4.675751 S    
C36   O39   1.377148 S    
C7    H9    1.112130 S    
C16   H30   1.096827 S    
N1    O26   1.300819 A    
P4    Ba2   3.500625 S    
C34   C38   1.394899 A    
C18   H32   1.082640 S    
C11   H18   1.113903 S    
C2    C3    1.549125 S    
P1    O1    1.546004 D    
N2    O28   1.304847 A    
P7    O22   1.718049 S    
O10   C8    1.402675 S    
O25   C39   1.418359 S    
C4    O15   1.401229 S    
O5    C6    1.381782 S    
C1    H1    1.109796 S    
N1    O27   1.296446 A    
P3    O11   1.756981 S    
C40   H43   1.110625 S    
C15   C16   1.508124 S    
C11   O22   1.388769 S    
P5    O19   1.780022 S    
N7    O43   1.299428 A    
C1    C10   1.543210 S    
C43   H51   1.114374 S    
C7    H11   1.112785 S    
C13   N4    1.454701 S    
C17   C25   1.401622 A    
P4    O13   1.639975 S    
C13   C14   1.549037 S    
C12   H20   1.117567 S    
N7    O42   1.300700 A    
P7    C32   1.842401 S    
C6    C7    1.526983 S    
Ba2   O21   2.870841 S    
C36   C37   1.435367 A    
C15   O24   1.400103 S    
P5    C28   1.870693 S    
C4    H5    1.091619 S    
O2    Ba2   2.918721 S    
C31   C32   1.401436 A    
O17   Ba2   2.851654 S    
C13   O35   1.418958 S    
P5    O17   1.766826 S    
P1    C21   1.950060 S    
C33   H33   1.077578 S    
C12   H21   1.103794 S    
N3    O31   1.297591 A    
C3    N7    1.461537 S    
O3    P6    1.756720 S    
C14   H23   1.108060 S    
C3    H22   1.101101 S    
C5    H6    1.113994 S    
C39   H39   1.104142 S    
O19   C13   1.449513 S    
C42   H49   1.095221 S    
C1    H17   1.109041 S    
C16   H29   1.108063 S    
C2    H3    1.105578 S    
P2    Ba1   3.459641 S    
C21   C22   1.480626 A    
C9    H15   1.090274 S    
P1    O5    1.747850 S    
P1    O2    1.639954 S    
P7    O21   1.583768 D    
C29   H34   1.079146 S    
C41   H46   1.070501 S    
C43   H52   1.097992 S    
P2    O10   1.766541 S    
C33   C34   1.396603 A    
P8    C25   1.869572 S    
P3    O9    1.546976 D    
C10   O25   1.430159 S    
C30   C31   1.423563 A    
O11   C2    1.408993 S    
N6    O41   1.293194 A    
P2    C35   1.873046 S    
O8    Ba1   2.851045 S    
N3    O30   1.299103 A    
O13   Ba2   2.978746 S    
P4    O12   1.546359 D    
P3    O8    1.764523 S    
C35   C38   1.397651 A    
C18   C20   1.398364 A    
C22   C26   1.429512 A    
C41   H44   1.094889 S    
C4    C5    1.569322 S    
O7    Ba1   2.870674 S    
C9    H14   1.108942 S    
O12   Ba2   2.958122 S    
C38   H36   1.081931 S    
C26   N5    1.425953 S    
P2    O20   1.579050 S    
C10   H16   1.099168 S    
Ba1   O13   2.918084 S    
C41   H45   1.090157 S    
C43   H50   1.108400 S    
P5    O18   1.547947 D    
C12   O32   1.421744 S    
C9    H13   1.108835 S    
O14   P8    1.782652 S    
C39   H38   1.096480 S    
C22   C23   1.472914 A    
O2    Ba1   2.977817 S    
P8    O24   1.771682 S    
C15   H26   1.096867 S    
O1    Ba1   2.957672 S    
P8    O23   1.536869 D    
O3    Ba1   2.885466 S    
O14   Ba2   2.884817 S    
C8    N3    1.458314 S    
C18   C21   1.398345 A    
C19   H31   1.078185 S    
N5    O36   1.298855 A    
O16   Ba2   2.992285 S    
C5    N2    1.476802 S    
Ba2   O20   2.831072 S    
C11   C12   1.521489 S    
C14   H25   1.108342 S    
P4    C24   1.968092 S    
C42   H48   1.102117 S    
N4    O33   1.294566 A    
O6    P6    1.762385 S    
C42   H47   1.092036 S    
C7    H10   1.107516 S    
P2    O7    1.549807 D    
C40   H41   1.110590 S    
O38   C42   1.400935 S    
C27   C32   1.392013 A    
N8    O45   1.294862 A    
C11   H19   1.111746 S    
O35   C41   1.377328 S    
C39   H40   1.106522 S    
C8    C9    1.522612 S    
C28   C29   1.412994 A    
N2    O29   1.301897 A    
P3    C34   1.844336 S    
C17   C24   1.398188 A    
Ba1   O16   2.831858 S    
C31   H35   1.077718 S    
P4    O15   1.763632 S    
C3    H4    1.094499 S    
C5    N1    1.462646 S    
C1    H2    1.092050 S    
C30   C37   1.528411 S    
C6    H7    1.108707 S    
C40   H42   1.109671 S    
N6    O40   1.299177 A    
O4    P6    1.546088 D    
C14   H24   1.106766 S    
C25   C26   1.407124 A    
C2    N6    1.460335 S    
P6    C20   1.869547 S    
C27   H37   1.083495 S    
O32   C40   1.416884 S    
N4    O34   1.292936 A    
