data_mof_unit_34379.cif
_audit_creation_date              2012-12-10T19:00:45-0500
_audit_creation_method            fapswitch 2.2
_symmetry_space_group_name_H-M    P1
_symmetry_Int_Tables_number       1
_space_group_crystal_system       triclinic
_cell_length_a                    15.013047
_cell_length_b                    10.799494
_cell_length_c                    9.547185
_cell_angle_alpha                 90.004679
_cell_angle_beta                  89.986127
_cell_angle_gamma                 91.05131
_cell_volume                      1547.65609639

loop_
_atom_site_label
_atom_site_type_symbol
_atom_type_description
_atom_site_fract_x
_atom_site_fract_y
_atom_site_fract_z
_atom_type_partial_charge
C1    C     C_R   0.497422 0.262218 0.499812 0.785905
C2    C     C_R   0.909897 0.618823 0.512164 0.073921
C3    C     C_R   0.949074 0.279316 0.479884 -0.207783
C4    C     C_R   0.041960 0.277254 0.479486 -0.213207
C5    C     C_R   0.091626 0.387974 0.489926 0.118111
C6    C     C_R   0.047577 0.502091 0.501310 0.064952
C7    C     C_R   0.097308 0.613950 0.511858 0.119215
C8    C     C_R   0.053746 0.726695 0.521590 -0.219450
C9    C     C_R   0.961208 0.729418 0.521157 -0.208485
C10   C     C_R   0.184671 0.387014 0.489017 -0.256643
C11   C     C_R   0.233038 0.498404 0.500193 -0.040171
C12   C     C_R   0.329078 0.497703 0.500030 0.800130
C13   C     C_R   0.190027 0.611234 0.511831 -0.242520
C14   C     C_R   0.465756 0.062877 0.619469 0.122972
C15   C     C_R   0.485974 0.128972 0.497589 -0.103696
C16   C     C_R   0.489945 0.064116 0.370014 -0.237083
C17   C     C_R   0.489108 0.935124 0.369980 -0.219676
C18   C     C_R   0.484533 0.870119 0.497567 -0.076624
C19   C     C_R   0.464386 0.935528 0.619380 0.122876
C20   C     C_3   0.501118 0.929125 0.764410 -0.468872
C21   C     C_3   0.503723 0.069958 0.763830 -0.473449
C22   C     C_R   0.538800 0.595764 0.073549 0.261267
C23   C     C_R   0.496869 0.737594 0.499817 0.813620
C24   C     C_R   0.453795 0.412368 0.074443 -0.076025
C25   C     C_R   0.453653 0.412506 0.925544 -0.075606
C26   C     C_R   0.539284 0.595321 0.926276 0.263298
C27   C     C_3   0.634861 0.634855 0.921232 -0.507638
C28   C     C_3   0.633826 0.637292 0.080033 -0.517860
C29   C     C_R   0.671097 0.503153 0.500009 0.826949
C30   C     C_R   0.815872 0.619780 0.511791 -0.067618
C31   C     C_R   0.767844 0.506664 0.500188 -0.102277
C32   C     C_R   0.811994 0.394333 0.489883 -0.267228
C33   C     C_R   0.904740 0.392130 0.490584 0.117240
C34   C     C_R   0.953946 0.504385 0.501679 0.040041
Cu1   Cu    Cu3+1 0.500000 0.499980 0.640670 0.943472
Cu2   Cu    Cu3+1 0.500000 0.500020 0.359330 0.940711
H1    H     H_    0.498623 0.887437 0.271427 0.161819
H2    H     H_    0.452025 0.889276 0.839875 0.193809
H3    H     H_    0.567905 0.887633 0.768197 0.205252
H4    H     H_    0.456587 0.110938 0.839867 0.188472
H5    H     H_    0.572446 0.110155 0.765810 0.199185
H6    H     H_    0.417774 0.340073 0.130196 0.136710
H7    H     H_    0.417322 0.340567 0.869779 0.136316
H8    H     H_    0.678692 0.562467 0.877690 0.223258
H9    H     H_    0.644234 0.728137 0.874640 0.186520
H10   H     H_    0.678050 0.567553 0.127838 0.225172
H11   H     H_    0.773678 0.308437 0.481431 0.128104
H12   H     H_    0.640518 0.732502 0.123220 0.183888
H13   H     H_    0.911852 0.192673 0.471510 0.146787
H14   H     H_    0.074947 0.189161 0.470854 0.142198
H15   H     H_    0.219572 0.300282 0.480169 0.124229
H16   H     H_    0.228979 0.696579 0.520150 0.125202
H17   H     H_    0.091315 0.813123 0.529008 0.142479
H18   H     H_    0.930632 0.819150 0.527574 0.164791
H19   H     H_    0.499607 0.112143 0.271429 0.164182
N1    N     N_R   0.500570 0.500930 0.147930 -0.184744
N2    N     N_R   0.500570 0.500890 0.852020 -0.185587
O1    O     O_R   0.500000 0.319640 0.618810 -0.583930
O2    O     O_R   0.500010 0.319680 0.381230 -0.590581
O3    O     O_R   0.370250 0.499950 0.618800 -0.579140
O4    O     O_R   0.370260 0.499990 0.381220 -0.577721
O5    O     O_R   0.499990 0.680320 0.618770 -0.579510
O6    O     O_R   0.500000 0.680360 0.381190 -0.587707
O7    O     O_R   0.629740 0.500010 0.618780 -0.577988
O8    O     O_R   0.629750 0.500050 0.381200 -0.580527
C35   C     C_R   0.768868 0.739010 0.518840 0.098380
C36   C     C_R   0.742568 0.797283 0.394796 -0.153035
C37   C     C_R   0.710073 0.917714 0.398391 -0.140177
C38   C     C_R   0.704448 0.980872 0.525798 -0.087842
C39   C     C_R   0.730836 0.923325 0.649744 -0.175067
C40   C     C_R   0.762623 0.802484 0.646589 -0.164585
H20   H     H_    0.750742 0.751071 0.295311 0.127627
H21   H     H_    0.690556 0.962769 0.302205 0.127822
H22   H     H_    0.680243 0.074614 0.528378 0.121528
H23   H     H_    0.727395 0.972772 0.748145 0.127436
H24   H     H_    0.785601 0.760073 0.742451 0.134209

loop_
_geom_bond_atom_site_label_1
_geom_bond_atom_site_label_2
_ccdc_geom_bond_type
C24   H6    S    
C19   C20   S    
Cu2   O2    S    
C25   H7    S    
C3    H13   S    
C7    C8    A    
C28   H10   S    
C26   C27   S    
Cu1   O1    S    
C5    C6    A    
C14   C21   S    
C36   H20   S    
C1    O2    A    
C30   C31   A    
C16   C17   A    
C3    C33   A    
C15   C16   A    
C18   C19   A    
C27   H8    S    
C23   O5    A    
C31   C32   A    
C8    C9    A    
Cu1   O7    S    
C1    C15   S    
Cu2   O6    S    
C2    C34   A    
C23   O6    A    
C35   C36   A    
C29   O7    A    
C22   C28   S    
C25   N2    A    
C10   H15   S    
C17   C18   A    
C36   C37   A    
C24   C25   A    
C20   H3    S    
Cu2   O8    S    
C37   C38   A    
C22   N1    A    
C37   H21   S    
C18   C23   S    
C4    H14   S    
Cu1   O3    S    
Cu1   Cu2   S    
Cu2   N1    S    
C13   H16   S    
C20   H2    S    
C35   C40   A    
C33   C34   A    
C38   H22   S    
C17   H1    S    
C30   C35   S    
C29   O8    A    
C32   H11   S    
C21   H5    S    
Cu2   O4    S    
C39   H23   S    
C39   C40   A    
C28   H12   S    
C14   C19   A    
C4    C5    A    
C8    H17   S    
C11   C12   S    
C6    C7    A    
C24   N1    A    
C2    C30   A    
Cu1   N2    S    
C32   C33   A    
C16   H19   S    
C5    C10   A    
C29   C31   S    
C1    O1    A    
C12   O4    A    
C11   C13   A    
C27   H9    S    
C40   H24   S    
C21   H4    S    
Cu1   O5    S    
C38   C39   A    
C26   N2    A    
C10   C11   A    
C12   O3    A    
C6    C34   A    
C7    C13   A    
C20   C21   S    
C22   C26   A    
C27   C28   S    
C14   C15   A    
C9    H18   S    
C2    C9    A    
C3    C4    A    
