data_mof_unit_61222.cif
_audit_creation_date              2012-12-11T18:32:00-0500
_audit_creation_method            fapswitch 2.2
_symmetry_space_group_name_H-M    P1
_symmetry_Int_Tables_number       1
_space_group_crystal_system       triclinic
_cell_length_a                    8.191132
_cell_length_b                    14.308467
_cell_length_c                    18.740368
_cell_angle_alpha                 93.979436
_cell_angle_beta                  92.542217
_cell_angle_gamma                 91.608112
_cell_volume                      2187.89785542

loop_
_atom_site_label
_atom_site_type_symbol
_atom_type_description
_atom_site_fract_x
_atom_site_fract_y
_atom_site_fract_z
_atom_type_partial_charge
Ba1   Ba    Ba6+2 0.841340 0.543980 0.464170 1.674819
Ba2   Ba    Ba6+2 0.348470 0.456100 0.535830 1.703864
Br1   Br    Br    0.867882 0.133521 0.319876 -0.527449
C1    C     C_3   0.592136 0.877101 0.263017 -0.275092
C2    C     C_3   0.446059 0.512885 0.242577 -0.011833
C3    C     C_2   0.381058 0.522489 0.166195 -0.106195
C4    C     C_3   0.107026 0.749598 0.260842 0.306498
C5    C     C_2   0.221477 0.501021 0.147084 -0.070134
C6    C     C_2   0.110067 0.475323 0.205121 -0.139092
C7    C     C_1   0.166431 0.475104 0.272978 0.011597
C8    C     C_R   0.047854 0.494812 0.929759 0.470107
C9    C     C_R   0.158999 0.500458 0.070254 0.466132
C10   C     C_R   0.082195 0.528752 0.799550 -0.120124
C11   C     C_R   0.028207 0.520216 0.726727 0.047181
C12   C     C_3   0.598652 0.781796 0.293962 0.295658
C13   C     C_R   0.783398 0.436905 0.757896 0.014910
C14   C     C_R   0.835965 0.444754 0.830556 -0.118424
C15   C     C_R   0.988278 0.489335 0.852460 -0.080835
C16   C     C_3   0.069054 0.766513 0.182604 0.279710
C17   C     C_R   0.882560 0.471400 0.706637 -0.300191
C18   C     C_R   0.700273 0.935976 0.537225 -0.029341
C19   C     C_R   0.510292 0.801446 0.497493 0.049947
C20   C     C_R   0.364748 0.769416 0.461088 -0.292845
C21   C     C_R   0.259402 0.831613 0.430305 0.004305
C22   C     C_R   0.305256 0.926027 0.429860 -0.135141
C23   C     C_3   0.485420 0.311399 0.320463 0.279432
C24   C     C_R   0.454264 0.959565 0.463550 -0.014949
C25   C     C_R   0.556448 0.898257 0.499994 -0.023542
C26   C     C_R   0.644223 0.091339 0.498012 -0.006755
C27   C     C_R   0.746790 0.031009 0.535017 0.007362
C28   C     C_3   0.188795 0.743691 0.610548 0.329670
C29   C     C_R   0.690328 0.187178 0.497760 0.037196
C30   C     C_R   0.837057 0.220969 0.531602 -0.232623
C31   C     C_R   0.941620 0.161339 0.565432 0.033948
C32   C     C_R   0.896160 0.066500 0.568249 -0.137496
C33   C     C_R   0.499269 0.054356 0.462380 -0.015125
C34   C     C_3   0.468182 0.279968 0.240996 -0.342834
C35   C     C_3   0.198025 0.849561 0.626124 -0.360008
C36   C     C_3   0.945186 0.252352 0.287364 0.487507
C37   C     C_3   0.041401 0.230839 0.220421 0.236355
C38   C     C_3   0.698928 0.666888 0.674521 0.335025
C39   C     C_3   0.710345 0.693041 0.754875 0.224021
C40   C     C_3   0.120309 0.260178 0.738851 0.324338
C41   C     C_3   0.129580 0.232931 0.815851 -0.312259
C42   C     C_3   0.603727 0.207771 0.702990 0.337999
C43   C     C_3   0.588262 0.110131 0.729689 -0.321078
C44   C     C_2   0.308848 0.515096 0.293866 -0.258604
Cl1   Cl    Cl    0.907325 0.194003 0.145546 -0.578736
Cl2   Cl    Cl    0.512062 0.711459 0.787845 -0.615689
Cl3   Cl    Cl    0.124725 0.883798 0.165026 -0.562918
H1    H     H_    0.718316 0.777300 0.323213 0.119252
H2    H     H_    0.692119 0.884992 0.225530 0.185265
H3    H     H_    0.787328 0.757941 0.766374 0.081465
H4    H     H_    0.766803 0.636156 0.783564 -0.006276
H5    H     H_    0.499544 0.776369 0.331867 -0.023484
H6    H     H_    0.607058 0.933298 0.306985 0.113090
H7    H     H_    0.362320 0.324882 0.340217 0.028919
H8    H     H_    0.563656 0.376331 0.327726 0.025446
H9    H     H_    0.411813 0.208362 0.233567 0.160435
H10   H     H_    0.390697 0.328161 0.211882 0.052215
H11   H     H_    0.589141 0.278912 0.216896 0.159920
H12   H     H_    0.297014 0.869216 0.667309 0.159251
H13   H     H_    0.472663 0.884456 0.233953 0.166948
H14   H     H_    0.138615 0.717443 0.147851 0.013620
H15   H     H_    0.199803 0.323601 0.735236 0.095214
H16   H     H_    0.991902 0.276713 0.724741 -0.061427
H17   H     H_    0.257253 0.216593 0.831823 0.158339
H18   H     H_    0.089338 0.291680 0.852044 0.080388
H19   H     H_    0.048762 0.170445 0.821321 0.129476
H20   H     H_    0.734590 0.222902 0.694157 -0.076343
H21   H     H_    0.532390 0.208010 0.651274 0.082881
H22   H     H_    0.634533 0.057918 0.689461 0.062903
H23   H     H_    0.223494 0.884925 0.576901 0.048972
H24   H     H_    0.458162 0.092259 0.738356 0.155605
H25   H     H_    0.073229 0.675274 0.268228 -0.002206
H26   H     H_    0.661007 0.107042 0.780864 0.134562
H27   H     H_    0.467214 0.539228 0.126230 0.118395
H28   H     H_    0.983679 0.454475 0.191161 0.121839
H29   H     H_    0.195942 0.566770 0.814734 0.160850
H30   H     H_    0.758348 0.416104 0.869458 0.116847
H31   H     H_    0.326505 0.550221 0.347024 0.064537
H32   H     H_    0.841254 0.465208 0.650831 0.069909
H33   H     H_    0.328749 0.695980 0.460124 0.062776
H34   H     H_    0.079791 0.874065 0.646053 0.113341
H35   H     H_    0.223574 0.973321 0.404392 0.116118
H36   H     H_    0.977374 0.020790 0.595511 0.069022
H37   H     H_    0.240128 0.761745 0.272817 -0.023706
H38   H     H_    0.872533 0.294175 0.529715 0.071299
H39   H     H_    0.778640 0.892498 0.567720 0.094006
H40   H     H_    0.419184 0.098528 0.433237 0.105001
H41   H     H_    0.936329 0.753890 0.169456 0.083815
H42   H     H_    0.309575 0.719437 0.595069 0.007479
H43   H     H_    0.096476 0.726293 0.566156 0.047246
H44   H     H_    0.836845 0.293470 0.274516 0.033705
H45   H     H_    0.110819 0.293466 0.206510 -0.035582
H46   H     H_    0.128975 0.174719 0.229769 0.111404
H47   H     H_    0.822342 0.651427 0.656452 -0.077914
H48   H     H_    0.617313 0.603705 0.663891 0.061466
N1    N     N_R   0.201544 0.527773 0.950139 -0.209125
N2    N     N_R   0.255763 0.530412 0.018608 -0.218470
N3    N     N_R   0.005048 0.467952 0.049961 -0.215490
N4    N     N_R   0.950977 0.465062 0.981444 -0.220564
O1    O     O_2   0.878750 0.447310 0.330740 -0.490237
O2    O     O_2   0.281779 0.168029 0.565382 -0.490318
O3    O     O_3   0.174154 0.185729 0.693920 -0.604371
O4    O     O_3   0.131030 0.448880 0.418060 -0.448142
O5    O     O_3   0.553640 0.613150 0.531430 -0.488843
O6    O     O_2   0.393070 0.270760 0.474720 -0.449275
O7    O     O_3   0.556738 0.239524 0.356447 -0.599597
O8    O     O_2   0.443281 0.445798 0.756381 -0.462721
O9    O     O_3   0.542683 0.273281 0.753748 -0.595030
O10   O     O_3   0.627390 0.618170 0.367170 -0.493506
O11   O     O_2   0.779318 0.574502 0.248111 -0.488621
O12   O     O_3   0.638857 0.742948 0.639593 -0.627577
O13   O     O_3   0.046003 0.296378 0.343532 -0.639134
O14   O     O_3   0.577854 0.710754 0.238437 -0.599283
O15   O     O_2   0.796630 0.729270 0.525320 -0.477674
O16   O     O_3   0.039210 0.666640 0.400620 -0.488314
O17   O     O_2   0.919693 0.833364 0.435529 -0.485936
O18   O     O_3   0.016405 0.810454 0.304694 -0.571866
O19   O     O_2   0.310950 0.552720 0.669300 -0.432817
O20   O     O_3   0.058670 0.551200 0.581940 -0.505781
O21   O     O_3   0.562310 0.381900 0.632830 -0.497510
O22   O     O_3   0.145726 0.702506 0.672688 -0.600795
O23   O     O_3   0.636050 0.386930 0.468580 -0.474489
O24   O     O_3   0.150490 0.333430 0.599380 -0.485878
P1    P     P_3+3 0.053470 0.419720 0.342720 0.983733
P2    P     P_3+3 0.625250 0.715650 0.546950 0.980896
P3    P     P_3+3 0.058640 0.787233 0.393914 0.966327
P4    P     P_3+3 0.136230 0.580350 0.657290 1.024908
P5    P     P_3+3 0.137306 0.211457 0.604797 0.972111
P6    P     P_3+3 0.609010 0.601909 0.273762 0.963865
P7    P     P_3+3 0.572153 0.270294 0.448440 0.998104
P8    P     P_3+3 0.582338 0.385904 0.726397 0.966867

loop_
_geom_bond_atom_site_label_1
_geom_bond_atom_site_label_2
_ccdc_geom_bond_type
C10   H29   S    
C8    C15   S    
C4    H25   S    
N3    N4    A    
O11   P6    D    
C17   H32   S    
C42   H21   S    
C38   C39   S    
Ba1   P2    S    
C38   O12   S    
C13   P8    S    
C40   H15   S    
C43   H26   S    
O3    P5    S    
C18   H39   S    
C42   C43   S    
C2    C44   S    
C26   C33   A    
C20   H33   S    
C10   C15   A    
C1    H2    S    
C30   H38   S    
Ba1   O23   S    
C28   O22   S    
C31   C32   A    
C26   C29   A    
C39   H3    S    
C29   P7    S    
C32   H36   S    
O23   P7    S    
Ba2   O5    S    
O13   P1    S    
C8    N1    A    
Ba1   Ba2   S    
C40   O3    S    
Ba1   O20   S    
O17   P3    D    
C21   P3    S    
C2    P6    S    
C4    H37   S    
C5    C6    S    
O2    P5    D    
C20   C21   A    
C12   H1    S    
O1    P1    D    
C6    C7    D    
O19   P4    D    
C43   H22   S    
C5    C9    S    
Ba1   O4    S    
C6    H28   S    
Br1   C36   S    
C19   C25   A    
C10   C11   A    
C1    H6    S    
C37   H46   S    
O15   P2    D    
C14   C15   A    
Ba2   O20   S    
C7    C44   D    
O21   P8    S    
O7    P7    S    
O18   P3    S    
C11   C17   A    
C21   C22   A    
C36   C37   S    
C13   C14   A    
C3    H27   S    
C3    C5    D    
C28   H43   S    
O4    P1    S    
Ba2   O4    S    
C14   H30   S    
C12   H5    S    
C40   C41   S    
C36   H44   S    
C26   C27   A    
O12   P2    S    
C19   P2    S    
N1    N2    A    
O14   P6    S    
C16   H14   S    
C13   C17   A    
C22   H35   S    
C30   C31   A    
O22   P4    S    
C41   H19   S    
C23   C34   S    
Ba1   O15   S    
O10   P6    S    
C23   H8    S    
C23   O7    S    
C34   H9    S    
Ba1   O5    S    
Ba2   O24   S    
C1    H13   S    
C18   C25   A    
C31   P5    S    
C36   O13   S    
C38   H47   S    
C41   H18   S    
C37   H45   S    
C7    P1    S    
C43   H24   S    
Ba2   O21   S    
C11   P4    S    
Ba2   O19   S    
C33   H40   S    
C37   Cl1   S    
O8    P8    D    
Ba1   O1    S    
C35   H34   S    
C42   H20   S    
C19   C20   A    
C4    O18   S    
Ba1   P1    S    
O5    P2    S    
C34   H11   S    
C42   O9    S    
O9    P8    S    
C24   C33   A    
C22   C24   A    
C27   C32   A    
C18   C27   A    
C4    C16   S    
C28   C35   S    
C29   C30   A    
C1    C12   S    
O6    P7    D    
Ba1   O10   S    
O16   P3    S    
C39   H4    S    
C16   Cl3   S    
C2    C3    S    
O24   P5    S    
C40   H16   S    
Ba2   O6    S    
Ba2   P4    S    
C8    N4    A    
Ba1   O16   S    
C44   H31   S    
C23   H7    S    
C9    N2    A    
C34   H10   S    
C16   H41   S    
C39   Cl2   S    
Ba2   O23   S    
C9    N3    A    
C28   H42   S    
C24   C25   A    
C12   O14   S    
C41   H17   S    
O20   P4    S    
C38   H48   S    
C35   H12   S    
C35   H23   S    
