data_mof_unit_63707.cif
_audit_creation_date              2012-12-10T19:01:59-0500
_audit_creation_method            fapswitch 2.2
_symmetry_space_group_name_H-M    P1
_symmetry_Int_Tables_number       1
_space_group_crystal_system       triclinic
_cell_length_a                    43.887084
_cell_length_b                    30.269851
_cell_length_c                    31.816361
_cell_angle_alpha                 89.999462
_cell_angle_beta                  136.35372
_cell_angle_gamma                 89.999931
_cell_volume                      29172.6008732

loop_
_atom_site_label
_atom_site_type_symbol
_atom_type_description
_atom_site_fract_x
_atom_site_fract_y
_atom_site_fract_z
_atom_type_partial_charge
C1    C     C_R   0.586180 0.000013 0.086791 0.867621
C2    C     C_R   0.413819 0.000014 0.913208 0.867634
C3    C     C_R   0.086179 0.500013 0.086789 0.867614
C4    C     C_R   0.913820 0.500014 0.913210 0.867568
C5    C     C_3   0.500189 0.000202 0.291428 0.179229
C6    C     C_3   0.499812 0.000204 0.708573 0.179228
C7    C     C_3   0.000188 0.500208 0.291428 0.179236
C8    C     C_3   0.999815 0.500205 0.708576 0.179227
C9    C     C_3   0.461652 0.012024 0.198048 0.151151
C10   C     C_3   0.538322 0.012113 0.801926 0.151146
C11   C     C_3   0.962026 0.513187 0.198421 0.151120
C12   C     C_3   0.038299 0.512186 0.801905 0.151145
C13   C     C_3   0.491075 0.041241 0.255111 -0.165850
C14   C     C_3   0.508833 0.041263 0.744796 -0.165851
C15   C     C_3   0.992315 0.541502 0.256349 -0.165854
C16   C     C_3   0.008757 0.541280 0.744721 -0.165841
C17   C     C_1   0.500566 0.999988 0.163876 -0.062370
C18   C     C_1   0.499435 0.999989 0.836125 -0.062373
C19   C     C_1   0.000561 0.499981 0.163872 -0.062384
C20   C     C_1   0.999434 0.499989 0.836125 -0.062381
C21   C     C_1   0.500133 0.000197 0.336829 -0.067288
C22   C     C_1   0.499868 0.000198 0.663172 -0.067288
C23   C     C_1   0.000133 0.500201 0.336829 -0.067301
C24   C     C_1   0.999869 0.500199 0.663174 -0.067297
C25   C     C_R   0.702411 0.965407 0.183040 -0.179709
C26   C     C_R   0.297588 0.965379 0.816920 -0.179719
C27   C     C_R   0.202409 0.465465 0.182960 -0.179668
C28   C     C_R   0.797590 0.465424 0.816979 -0.179731
C29   C     C_R   0.656712 0.965956 0.137712 -0.230875
C30   C     C_R   0.343287 0.965929 0.862246 -0.230870
C31   C     C_R   0.156710 0.466009 0.137633 -0.230885
C32   C     C_R   0.843289 0.465971 0.862307 -0.230956
C33   C     C_R   0.634093 0.000065 0.135678 -0.042598
C34   C     C_R   0.365904 0.000068 0.864321 -0.042637
C35   C     C_R   0.134090 0.500064 0.135675 -0.042512
C36   C     C_R   0.865907 0.500066 0.864322 -0.042580
C37   C     C_R   0.657514 0.033664 0.180250 0.109630
C38   C     C_R   0.342479 0.033698 0.819792 0.109635
C39   C     C_R   0.157506 0.533610 0.180319 0.109595
C40   C     C_R   0.842488 0.533653 0.819733 0.109630
C41   C     C_R   0.703548 0.032709 0.225709 -0.210842
C42   C     C_R   0.296446 0.032739 0.774331 -0.210871
C43   C     C_R   0.203540 0.532660 0.225779 -0.210820
C44   C     C_R   0.796454 0.532700 0.774274 -0.210859
C45   C     C_R   0.499994 0.999970 0.081268 0.902530
C46   C     C_R   0.500006 0.999970 0.918732 0.902525
C47   C     C_R   0.999994 0.499970 0.081268 0.902456
C48   C     C_R   0.000006 0.499970 0.918732 0.902489
C49   C     C_R   0.725842 0.998759 0.227011 0.083888
C50   C     C_R   0.274155 0.998758 0.772990 0.083884
C51   C     C_R   0.225838 0.498767 0.227006 0.083869
C52   C     C_R   0.774158 0.498765 0.772990 0.083888
C53   C     C_R   0.796885 0.003293 0.335493 -0.179845
C54   C     C_R   0.203116 0.003301 0.664510 -0.179848
C55   C     C_R   0.296883 0.503215 0.335499 -0.179844
C56   C     C_R   0.703115 0.503288 0.664506 -0.179846
C57   C     C_R   0.842610 0.003689 0.380943 -0.194170
C58   C     C_R   0.157391 0.003696 0.619059 -0.194172
C59   C     C_R   0.342608 0.503608 0.380950 -0.194153
C60   C     C_R   0.657390 0.503682 0.619056 -0.194161
C61   C     C_R   0.865542 0.999199 0.365795 -0.034892
C62   C     C_R   0.134458 0.999196 0.634206 -0.034889
C63   C     C_R   0.365540 0.499204 0.365793 -0.034910
C64   C     C_R   0.634458 0.499201 0.634205 -0.034887
C65   C     C_R   0.842327 0.993947 0.304821 -0.194626
C66   C     C_R   0.157672 0.993934 0.695178 -0.194636
C67   C     C_R   0.342324 0.494043 0.304807 -0.194650
C68   C     C_R   0.657673 0.493963 0.695181 -0.194660
C69   C     C_R   0.796557 0.993333 0.259395 -0.176231
C70   C     C_R   0.203442 0.993317 0.740604 -0.176228
C71   C     C_R   0.296554 0.493434 0.259379 -0.176242
C72   C     C_R   0.703443 0.493351 0.740607 -0.176267
C73   C     C_R   0.773796 0.998221 0.274666 0.125993
C74   C     C_R   0.226203 0.998217 0.725335 0.125973
C75   C     C_R   0.273792 0.498232 0.274660 0.125999
C76   C     C_R   0.726205 0.498227 0.725335 0.126012
C77   C     C_R   0.500000 0.913588 0.500000 0.865460
C78   C     C_R   0.000000 0.413591 0.500000 0.865377
C79   C     C_R   0.499999 0.000010 0.418735 0.906431
C80   C     C_R   0.500001 0.000011 0.581265 0.906431
C81   C     C_R   0.999999 0.500011 0.418735 0.906389
C82   C     C_R   0.000002 0.500011 0.581265 0.906392
C83   C     C_R   0.500000 0.086115 0.500000 0.875515
C84   C     C_R   1.000000 0.586115 0.500000 0.875510
C85   C     C_3   0.540478 0.987796 0.304718 -0.152270
C86   C     C_3   0.459551 0.987708 0.695311 -0.152260
C87   C     C_3   0.040085 0.486592 0.304326 -0.152183
C88   C     C_3   0.959576 0.487632 0.695336 -0.152254
C89   C     C_R   0.000000 0.086378 0.500000 0.875628
C90   C     C_R   0.500000 0.586375 0.500000 0.875551
C91   C     C_R   0.913515 0.999792 0.413556 0.874464
C92   C     C_R   0.086485 0.999792 0.586444 0.874463
C93   C     C_R   0.413515 0.499793 0.413555 0.874429
C94   C     C_R   0.586485 0.499793 0.586444 0.874422
C95   C     C_R   0.000000 0.913609 0.500000 0.871882
C96   C     C_R   0.500000 0.413609 0.500000 0.871895
C97   C     C_R   0.461910 0.796798 0.450004 -0.178448
C98   C     C_R   0.538094 0.796797 0.549996 -0.178453
C99   C     C_R   0.962030 0.296811 0.449780 -0.178382
C100  C     C_R   0.037974 0.296811 0.550220 -0.178392
C101  C     C_R   0.461802 0.842588 0.450143 -0.191979
C102  C     C_R   0.538200 0.842587 0.549857 -0.191977
C103  C     C_R   0.961918 0.342601 0.449920 -0.191997
C104  C     C_R   0.038084 0.342600 0.550081 -0.192017
C105  C     C_R   0.500001 0.865638 0.500000 -0.028918
C106  C     C_R   0.000001 0.365647 0.500000 -0.028697
C107  C     C_R   0.500002 0.773913 0.500000 0.110779
C108  C     C_R   0.000002 0.273927 0.500000 0.110716
C109  C     C_R   0.012158 0.203143 0.548532 -0.177138
C110  C     C_R   0.987846 0.203143 0.451469 -0.177137
C111  C     C_R   0.512539 0.703128 0.548796 -0.177081
C112  C     C_R   0.487464 0.703129 0.451204 -0.177084
C113  C     C_R   0.011893 0.157353 0.548368 -0.192628
C114  C     C_R   0.988109 0.157354 0.451633 -0.192628
C115  C     C_R   0.512271 0.657339 0.548632 -0.192653
C116  C     C_R   0.487732 0.657339 0.451369 -0.192654
C117  C     C_R   0.000001 0.134314 0.500000 -0.032788
C118  C     C_R   0.500001 0.634304 0.500000 -0.032578
C119  C     C_3   0.531309 0.028682 0.267449 -0.191840
C120  C     C_3   0.468627 0.028615 0.732486 -0.191839
C121  C     C_3   0.032153 0.527736 0.268293 -0.191837
C122  C     C_3   0.968574 0.528556 0.732433 -0.191835
C123  C     C_R   0.000002 0.226027 0.500000 0.111227
C124  C     C_R   0.500002 0.726013 0.500000 0.111181
C125  C     C_R   0.472296 0.203369 0.444316 0.113741
C126  C     C_R   0.527699 0.203368 0.555683 0.113741
C127  C     C_R   0.972299 0.703369 0.444317 0.113740
C128  C     C_R   0.027698 0.703368 0.555683 0.113742
C129  C     C_R   0.472443 0.157392 0.444220 0.078225
C130  C     C_R   0.527554 0.157390 0.555779 0.078225
C131  C     C_R   0.972446 0.657392 0.444221 0.078218
C132  C     C_R   0.027552 0.657390 0.555779 0.078225
C133  C     C_R   0.499999 0.134192 0.500000 -0.206277
C134  C     C_R   0.999999 0.634192 0.500000 -0.206275
C135  C     C_R   0.499998 0.226302 0.499999 -0.097232
C136  C     C_R   0.999998 0.726302 0.500000 -0.097232
C137  C     C_R   0.979490 0.797062 0.512368 -0.184619
C138  C     C_R   0.020508 0.797062 0.487633 -0.184614
C139  C     C_R   0.479493 0.297063 0.512373 -0.184616
C140  C     C_R   0.520504 0.297061 0.487627 -0.184614
C141  C     C_R   0.979937 0.842861 0.513089 -0.196965
C142  C     C_R   0.020062 0.842861 0.486911 -0.196965
C143  C     C_R   0.479940 0.342861 0.513095 -0.196965
C144  C     C_R   0.520058 0.342860 0.486905 -0.196966
C145  C     C_R   1.000000 0.865808 0.500000 -0.025233
C146  C     C_R   0.499999 0.365808 0.500000 -0.025234
C147  C     C_R   0.999999 0.774278 0.500000 0.128479
C148  C     C_R   0.499998 0.274278 0.499999 0.128481
C149  C     C_1   0.500274 0.999983 0.126050 -0.184622
C150  C     C_1   0.499726 0.999984 0.873951 -0.184618
C151  C     C_1   0.000272 0.499981 0.126048 -0.184628
C152  C     C_1   0.999726 0.499984 0.873951 -0.184623
C153  C     C_1   0.500081 0.000130 0.374314 -0.190693
C154  C     C_1   0.499920 0.000131 0.625686 -0.190694
C155  C     C_1   0.000081 0.500133 0.374314 -0.190698
C156  C     C_1   0.999920 0.500132 0.625687 -0.190698
C157  C     C_3   0.509930 0.959110 0.246141 -0.192274
C158  C     C_3   0.490164 0.959090 0.753953 -0.192271
C159  C     C_3   0.008687 0.458840 0.244901 -0.192279
C160  C     C_3   0.990242 0.459072 0.754031 -0.192274
C161  C     C_3   0.500871 0.999973 0.209654 0.188674
C162  C     C_3   0.499130 0.999974 0.790347 0.188675
C163  C     C_3   0.000864 0.499959 0.209647 0.188688
C164  C     C_3   0.999130 0.499973 0.790347 0.188677
C165  C     C_3   0.469603 0.971338 0.233734 -0.217751
C166  C     C_3   0.530463 0.971409 0.766333 -0.217759
C167  C     C_3   0.968747 0.472279 0.232879 -0.217830
C168  C     C_3   0.030519 0.471467 0.766390 -0.217779
H1    H     H_    0.556681 0.051910 0.280712 0.139436
H2    H     H_    0.443202 0.051785 0.719171 0.139428
H3    H     H_    0.058214 0.550188 0.282243 0.139338
H4    H     H_    0.943105 0.551678 0.719074 0.139423
H5    H     H_    0.722079 0.058446 0.260006 0.128737
H6    H     H_    0.277911 0.058496 0.740063 0.128754
H7    H     H_    0.222068 0.558359 0.260133 0.128733
H8    H     H_    0.777923 0.558429 0.739963 0.128729
H9    H     H_    0.779499 0.006715 0.347724 0.130940
H10   H     H_    0.220503 0.006732 0.652284 0.130960
H11   H     H_    0.279497 0.506566 0.347737 0.130939
H12   H     H_    0.720500 0.506700 0.652274 0.130940
H13   H     H_    0.859926 0.007702 0.427766 0.155927
H14   H     H_    0.140075 0.007716 0.572237 0.155927
H15   H     H_    0.359924 0.507548 0.427781 0.155945
H16   H     H_    0.640074 0.507684 0.572232 0.155938
H17   H     H_    0.859460 0.990311 0.292243 0.156043
H18   H     H_    0.140539 0.990290 0.707754 0.156044
H19   H     H_    0.359456 0.490477 0.292219 0.156052
H20   H     H_    0.640541 0.490335 0.707760 0.156033
H21   H     H_    0.778897 0.989721 0.212355 0.132947
H22   H     H_    0.221103 0.989696 0.787644 0.132966
H23   H     H_    0.278894 0.489893 0.212331 0.132939
H24   H     H_    0.721103 0.489749 0.787649 0.132901
H25   H     H_    0.432261 0.779196 0.411326 0.133811
H26   H     H_    0.567743 0.779194 0.588674 0.133806
H27   H     H_    0.932473 0.279209 0.410924 0.133824
H28   H     H_    0.067530 0.279208 0.589077 0.133819
H29   H     H_    0.432067 0.859899 0.411167 0.154761
H30   H     H_    0.567935 0.859898 0.588833 0.154759
H31   H     H_    0.932280 0.359918 0.410772 0.154597
H32   H     H_    0.067722 0.359917 0.589229 0.154592
H33   H     H_    0.021372 0.220745 0.586055 0.133129
H34   H     H_    0.978632 0.220746 0.413946 0.133133
H35   H     H_    0.522054 0.720729 0.586530 0.133131
H36   H     H_    0.477950 0.720730 0.413470 0.133131
H37   H     H_    0.021314 0.140029 0.586180 0.153571
H38   H     H_    0.978688 0.140030 0.413821 0.153572
H39   H     H_    0.521992 0.640008 0.586649 0.153414
H40   H     H_    0.478010 0.640009 0.413352 0.153414
H41   H     H_    0.573195 0.977731 0.349843 0.137639
H42   H     H_    0.426857 0.977569 0.650209 0.137641
H43   H     H_    0.072484 0.475545 0.349134 0.137633
H44   H     H_    0.926902 0.477432 0.650252 0.137640
H45   H     H_    0.963382 0.779336 0.521589 0.134026
H46   H     H_    0.036616 0.779335 0.478412 0.134027
H47   H     H_    0.463388 0.279336 0.521598 0.134024
H48   H     H_    0.536609 0.279334 0.478401 0.134026
H49   H     H_    0.964076 0.860331 0.522856 0.149894
H50   H     H_    0.035924 0.860329 0.477146 0.149897
H51   H     H_    0.464082 0.360331 0.522865 0.149892
H52   H     H_    0.535917 0.360329 0.477135 0.149897
H53   H     H_    0.482639 0.074690 0.258533 0.136986
H54   H     H_    0.517193 0.074731 0.741297 0.136980
H55   H     H_    0.984891 0.575191 0.260781 0.136925
H56   H     H_    0.017054 0.574763 0.741158 0.136976
H57   H     H_    0.443845 0.948410 0.219865 0.136614
H58   H     H_    0.556273 0.948539 0.780255 0.136616
H59   H     H_    0.942309 0.450139 0.218331 0.136642
H60   H     H_    0.056372 0.448646 0.780353 0.136607
H61   H     H_    0.517891 0.925626 0.242044 0.141801
H62   H     H_    0.482278 0.925588 0.758127 0.141802
H63   H     H_    0.015636 0.425131 0.239793 0.141805
H64   H     H_    0.982418 0.425556 0.758267 0.141797
H65   H     H_    0.719513 0.938833 0.184131 0.138482
H66   H     H_    0.280487 0.938782 0.815796 0.138497
H67   H     H_    0.219514 0.438933 0.183992 0.138481
H68   H     H_    0.780487 0.438860 0.815902 0.138482
H69   H     H_    0.638984 0.940016 0.103708 0.159580
H70   H     H_    0.361015 0.939965 0.896217 0.159623
H71   H     H_    0.138983 0.440110 0.103569 0.159508
H72   H     H_    0.861016 0.440040 0.896326 0.159564
O1    O     O_R   0.565460 0.963010 0.065460 -0.630948
O2    O     O_R   0.434540 0.963010 0.934540 -0.630957
O3    O     O_R   0.065460 0.463010 0.065460 -0.630922
O4    O     O_R   0.934540 0.463010 0.934540 -0.630936
O5    O     O_R   0.934500 0.999950 0.469270 -0.627671
O6    O     O_R   0.065500 0.999950 0.530730 -0.627667
O7    O     O_R   0.434500 0.499950 0.469270 -0.627654
O8    O     O_R   0.565500 0.499950 0.530730 -0.627651
O9    O     O_R   0.934490 0.999950 0.399700 -0.626583
O10   O     O_R   0.065510 0.999950 0.600300 -0.626587
O11   O     O_R   0.434490 0.499950 0.399700 -0.626622
O12   O     O_R   0.565510 0.499950 0.600300 -0.626624
O13   O     O_R   0.000010 0.934490 0.534800 -0.624127
O14   O     O_R   0.999990 0.934490 0.465200 -0.624123
O15   O     O_R   0.500010 0.434490 0.534800 -0.624131
O16   O     O_R   0.499990 0.434490 0.465200 -0.624117
O17   O     O_R   0.565400 0.036920 0.065400 -0.595533
O18   O     O_R   0.434600 0.036920 0.934600 -0.595529
O19   O     O_R   0.065400 0.536920 0.065400 -0.595532
O20   O     O_R   0.934600 0.536920 0.934600 -0.595547
O21   O     O_R   0.499990 0.963010 0.061610 -0.619488
O22   O     O_R   0.500010 0.963010 0.938390 -0.619490
O23   O     O_R   0.999990 0.463010 0.061610 -0.619506
O24   O     O_R   0.000010 0.463010 0.938390 -0.619497
O25   O     O_R   0.499940 0.036920 0.061550 -0.613729
O26   O     O_R   0.500060 0.036920 0.938450 -0.613741
O27   O     O_R   0.999940 0.536920 0.061550 -0.613637
O28   O     O_R   0.000060 0.536920 0.938450 -0.613727
O29   O     O_R   0.536910 0.934410 0.536900 -0.625259
O30   O     O_R   0.463090 0.934410 0.463100 -0.625259
O31   O     O_R   0.036910 0.434410 0.536900 -0.625189
O32   O     O_R   0.963090 0.434410 0.463100 -0.625184
O33   O     O_R   0.536920 0.999880 0.475310 -0.612879
O34   O     O_R   0.463080 0.999880 0.524690 -0.612877
O35   O     O_R   0.036920 0.499880 0.475310 -0.612858
O36   O     O_R   0.963080 0.499880 0.524690 -0.612859
O37   O     O_R   0.463000 0.999950 0.401380 -0.621164
O38   O     O_R   0.537000 0.999950 0.598620 -0.621165
O39   O     O_R   0.963000 0.499950 0.401380 -0.621195
O40   O     O_R   0.037000 0.499950 0.598620 -0.621198
O41   O     O_R   0.536940 0.065340 0.536940 -0.628254
O42   O     O_R   0.463060 0.065340 0.463060 -0.628253
O43   O     O_R   0.036940 0.565340 0.536940 -0.628252
O44   O     O_R   0.963060 0.565340 0.463060 -0.628253
O45   O     O_R   0.999920 0.065420 0.534690 -0.625545
O46   O     O_R   0.000080 0.065420 0.465310 -0.625546
O47   O     O_R   0.499920 0.565420 0.534690 -0.625472
O48   O     O_R   0.500080 0.565420 0.465310 -0.625483
Zn1   Zn    Zn3+2 0.500000 0.950610 0.000000 0.949542
Zn2   Zn    Zn3+2 1.000000 0.450610 0.000000 0.949559
Zn3   Zn    Zn3+2 0.500000 0.049320 0.000000 0.984732
Zn4   Zn    Zn3+2 1.000000 0.549320 0.000000 0.984819
Zn5   Zn    Zn3+2 0.549320 0.999860 0.549320 0.945904
Zn6   Zn    Zn3+2 0.450680 0.999860 0.450680 0.945909
Zn7   Zn    Zn3+2 0.049320 0.499860 0.549320 0.945940
Zn8   Zn    Zn3+2 0.950680 0.499860 0.450680 0.945932
Zn9   Zn    Zn3+2 0.999970 0.999950 0.546410 0.943331
Zn10  Zn    Zn3+2 0.000030 0.999950 0.453590 0.943338
Zn11  Zn    Zn3+2 0.499970 0.499950 0.546410 0.943350
Zn12  Zn    Zn3+2 0.500030 0.499950 0.453590 0.943359
N1    N     N_3   0.443131 0.226286 0.387091 -0.430002
H73   H     H_    0.461957 0.245391 0.385237 0.185605
H74   H     H_    0.422889 0.247262 0.384502 0.190439
N2    N     N_3   0.556864 0.226283 0.612908 -0.430005
H75   H     H_    0.538037 0.245387 0.614761 0.185602
H76   H     H_    0.577105 0.247261 0.615497 0.190436
N3    N     N_3   0.943137 0.726286 0.387092 -0.430004
H77   H     H_    0.961965 0.745391 0.385242 0.185607
H78   H     H_    0.922893 0.747263 0.384500 0.190435
N4    N     N_3   0.056860 0.726283 0.612908 -0.430005
H79   H     H_    0.038031 0.745387 0.614758 0.185604
H80   H     H_    0.077103 0.747260 0.615501 0.190436
N5    N     N_3   0.445192 0.135006 0.386844 -0.427085
H81   H     H_    0.464622 0.112764 0.389199 0.177541
H82   H     H_    0.420413 0.117742 0.377962 0.211941
N6    N     N_3   0.554806 0.135004 0.613155 -0.427086
H83   H     H_    0.535377 0.112760 0.610800 0.177541
H84   H     H_    0.579585 0.117740 0.622037 0.211940
N7    N     N_3   0.945196 0.635006 0.386844 -0.427086
H85   H     H_    0.964626 0.612763 0.389202 0.177534
H86   H     H_    0.920416 0.617742 0.377961 0.211936
N8    N     N_3   0.054802 0.635003 0.613155 -0.427085
H87   H     H_    0.035372 0.612760 0.610797 0.177540
H88   H     H_    0.079582 0.617740 0.622039 0.211940
N9    N     N_3   0.418768 0.025518 0.139053 -0.458309
H89   H     H_    0.398118 0.030621 0.144298 0.179307
H90   H     H_    0.405763 0.998776 0.109390 0.180249
N10   N     N_3   0.581174 0.025703 0.860889 -0.458303
H91   H     H_    0.601813 0.030852 0.855633 0.179311
H92   H     H_    0.594240 0.998990 0.890613 0.180247
N11   N     N_3   0.919568 0.527969 0.139851 -0.458211
H93   H     H_    0.899080 0.533693 0.145258 0.179344
H94   H     H_    0.905762 0.501632 0.109388 0.180277
N12   N     N_3   0.081126 0.525858 0.860843 -0.458303
H95   H     H_    0.101755 0.531045 0.855577 0.179311
H96   H     H_    0.094239 0.499169 0.890615 0.180243
N13   N     N_3   0.634578 0.067853 0.179907 -0.430961
H97   H     H_    0.619363 0.053104 0.190671 0.172987
H98   H     H_    0.656847 0.091090 0.214053 0.173566
N14   N     N_3   0.365411 0.067925 0.820176 -0.430941
H99   H     H_    0.380604 0.053221 0.809356 0.173018
H100  H     H_    0.343141 0.091192 0.786084 0.173566
N15   N     N_3   0.134562 0.567739 0.180045 -0.430978
H101  H     H_    0.119328 0.552919 0.190743 0.172940
H102  H     H_    0.156829 0.590936 0.214262 0.173589
N16   N     N_3   0.865426 0.567828 0.820058 -0.430970
H103  H     H_    0.880649 0.553060 0.809316 0.172983
H104  H     H_    0.843157 0.591053 0.785891 0.173564

loop_
_geom_bond_atom_site_label_1
_geom_bond_atom_site_label_2
_ccdc_geom_bond_type
O18   Zn3   S    
C60   H16   S    
C99   C103  A    
C4    C36   S    
C89   O45   A    
C23   C155  T    
O24   Zn2   S    
N8    H88   S    
C119  C161  S    
N13   H97   S    
N1    H73   S    
C132  N8    S    
C112  C124  A    
C55   C59   A    
C26   C50   A    
O6    Zn10  S    
C99   H27   S    
C100  C104  A    
O40   Zn7   S    
C97   H25   S    
C9    C13   S    
C31   H71   S    
C8    C168  S    
C38   N14   S    
C54   C74   A    
C43   H7    S    
C12   C16   S    
C70   C74   A    
O28   Zn4   S    
C95   O13   A    
C5    C13   S    
C141  C145  A    
C17   C161  S    
C125  C135  A    
C45   O25   A    
C8    C16   S    
C11   C167  S    
C166  H58   S    
C107  C124  S    
C41   C49   A    
C67   H19   S    
C65   H17   S    
C100  H28   S    
C25   C29   A    
N4    H80   S    
C27   C31   A    
C86   H42   S    
C28   C32   A    
C127  C136  A    
C88   C122  S    
C111  H35   S    
C62   C66   A    
O2    Zn1   S    
C98   C102  A    
C54   H10   S    
C53   H9    S    
N6    H83   S    
C159  H63   S    
C110  C123  A    
C68   C72   A    
C115  C118  A    
O48   Zn12  S    
C78   O31   A    
C129  C133  A    
C66   H18   S    
C10   C14   S    
C49   C73   S    
C16   H56   S    
C112  H36   S    
C69   H21   S    
C90   C118  S    
C70   H22   S    
C10   C162  S    
C47   O27   A    
C111  C124  A    
C81   O39   A    
C82   O40   A    
C94   O12   A    
C57   C61   A    
C92   O10   A    
C59   C63   A    
O11   Zn12  S    
C60   C64   A    
C110  H34   S    
C64   C94   S    
C6    C14   S    
C66   C70   A    
C3    O19   A    
C109  H33   S    
C87   C159  S    
C88   C160  S    
C127  C131  A    
O1    Zn1   S    
C97   C107  A    
C61   C65   A    
C5    C21   S    
C132  C134  A    
C88   H44   S    
O25   Zn3   S    
C21   C153  T    
N3    H78   S    
C18   C150  T    
C24   C156  T    
C6    C22   S    
O20   Zn4   S    
C29   C33   A    
C120  H2    S    
C157  H61   S    
C99   C108  A    
C64   C68   A    
O27   Zn4   S    
C144  H52   S    
C5    C85   S    
C50   C74   S    
O36   Zn8   S    
C101  H29   S    
N5    H82   S    
C79   C153  S    
C121  C163  S    
C122  C164  S    
C157  C161  S    
N9    H90   S    
C142  H50   S    
C16   C122  S    
C93   O7    A    
O41   Zn5   S    
C139  C143  A    
C116  C118  A    
C19   C151  T    
C160  H64   S    
O13   Zn9   S    
C110  C114  A    
C120  C162  S    
N16   H104  S    
C55   C75   A    
C26   H66   S    
C160  C168  S    
O9    Zn10  S    
O44   Zn8   S    
C104  H32   S    
C11   C15   S    
C30   H70   S    
C11   C163  S    
C27   C51   A    
C84   O43   A    
C130  N6    S    
C139  C148  A    
C100  C108  A    
C30   C34   A    
C96   O16   A    
C42   H6    S    
C157  C165  S    
N12   H95   S    
C109  C123  A    
C3    O3    A    
C40   N16   S    
C8    C88   S    
C113  H37   S    
C59   H15   S    
C125  C129  A    
O30   Zn6   S    
N11   H94   S    
C45   O21   A    
C3    C35   S    
C10   C166  S    
C165  H57   S    
O33   Zn5   S    
C9    C161  S    
C2    O2    A    
O31   Zn7   S    
C116  H40   S    
O35   Zn7   S    
C28   H68   S    
C113  C117  A    
C42   C50   A    
C26   C30   A    
N15   H102  S    
C77   O29   A    
C112  C116  A    
O17   Zn3   S    
C56   H12   S    
C46   C150  S    
C41   H5    S    
C2    O18   A    
C87   H43   S    
C44   H8    S    
C13   H53   S    
N10   H91   S    
C52   C76   S    
C12   N12   S    
C168  H60   S    
C129  N5    S    
C96   C146  S    
C77   C105  S    
C81   C155  S    
O22   Zn1   S    
C83   O42   A    
C2    C34   S    
O19   Zn4   S    
C7    C23   S    
C7    C15   S    
C8    C24   S    
C37   C41   A    
C114  C117  A    
C143  H51   S    
C40   C44   A    
C55   H11   S    
C68   H20   S    
C4    O20   A    
O8    Zn12  S    
C86   C120  S    
C71   H23   S    
C94   O8    A    
C72   H24   S    
C58   C62   A    
C143  C146  A    
C6    C166  S    
C131  N7    S    
C95   C145  S    
C131  C134  A    
C104  C106  A    
C84   C134  S    
O47   Zn11  S    
C160  C164  S    
N14   H100  S    
O16   Zn12  S    
C128  C136  A    
C54   C58   A    
C126  C130  A    
C20   C164  S    
C98   H26   S    
C102  C105  A    
N6    H84   S    
C7    C167  S    
C141  H49   S    
C7    C87   S    
O37   Zn6   S    
C139  H47   S    
O21   Zn1   S    
C69   C73   A    
C78   O32   A    
N8    H87   S    
C89   O46   A    
C79   O33   A    
C80   O38   A    
C142  C145  A    
C158  H62   S    
O12   Zn11  S    
C85   C157  S    
N13   H98   S    
C1    O17   A    
N1    H74   S    
C53   C73   A    
N3    H77   S    
C144  C146  A    
C138  C142  A    
C87   C121  S    
C53   C57   A    
O42   Zn6   S    
C19   C163  S    
C33   C37   A    
C98   C107  A    
C56   C60   A    
C35   C39   A    
N11   H93   S    
O14   Zn10  S    
C12   C164  S    
C167  H59   S    
C39   N15   S    
C46   O26   A    
O10   Zn9   S    
C127  N3    S    
N14   H99   S    
C95   O14   A    
O32   Zn8   S    
O4    Zn2   S    
C47   C151  S    
C126  C135  A    
C14   C120  S    
C48   C152  S    
C31   C35   A    
C130  C133  A    
C108  C123  S    
C32   C36   A    
C158  C166  S    
C91   O9    A    
C137  C141  A    
N4    H79   S    
C138  H46   S    
C92   O6    A    
O45   Zn9   S    
C137  C147  A    
C140  C144  A    
C6    C86   S    
O29   Zn5   S    
C80   C154  S    
C63   C93   S    
C58   H14   S    
C9    C165  S    
O34   Zn6   S    
C18   C162  S    
C37   N13   S    
N5    H81   S    
C43   C51   A    
C65   C69   A    
C78   C106  S    
C67   C71   A    
C15   H55   S    
N9    H89   S    
C25   C49   A    
N7    H85   S    
O5    Zn9   S    
C20   C152  T    
C90   O47   A    
C71   C75   A    
N15   H101  S    
C91   O5    A    
C56   C76   A    
C115  H39   S    
C72   C76   A    
C140  C148  A    
C57   H13   S    
C1    C33   S    
C84   O44   A    
C51   C75   S    
C38   C42   A    
C102  H30   S    
N12   H96   S    
C48   O28   A    
O39   Zn8   S    
C119  H1    S    
C128  N4    S    
C85   C119  S    
C62   C92   S    
O26   Zn3   S    
C5    C165  S    
C109  C113  A    
C82   C156  S    
O3    Zn2   S    
C25   H65   S    
C11   N11   S    
C159  C167  S    
C128  C132  A    
C29   H69   S    
C13   C119  S    
C101  C105  A    
C63   C67   A    
C36   C40   A    
N10   H92   S    
O43   Zn7   S    
C140  H48   S    
C39   C43   A    
C32   H72   S    
C47   O23   A    
O38   Zn5   S    
C48   O24   A    
C114  H38   S    
O7    Zn11  S    
C81   O35   A    
C10   N10   S    
C82   O36   A    
C83   O41   A    
C138  C147  A    
C79   O37   A    
C80   O34   A    
C126  N2    S    
C103  H31   S    
C86   C158  S    
C1    O1    A    
N2    H75   S    
C121  H3    S    
C9    N9    S    
C89   C117  S    
C122  H4    S    
O23   Zn2   S    
C159  C163  S    
O15   Zn11  S    
C22   C154  T    
C15   C121  S    
C137  H45   S    
C34   C38   A    
C14   H54   S    
C17   C149  T    
C96   O15   A    
C12   C168  S    
C27   H67   S    
C46   O22   A    
C125  N1    S    
C90   O48   A    
C28   C52   A    
C44   C52   A    
N16   H103  S    
N2    H76   S    
C4    O4    A    
C103  C106  A    
C45   C149  S    
C83   C133  S    
C136  C147  S    
C158  C162  S    
C93   O11   A    
C85   H41   S    
C135  C148  S    
C77   O30   A    
O46   Zn10  S    
C111  C115  A    
N7    H86   S    
C97   C101  A    
C61   C91   S    
