data_mof_unit_17603.cif
_audit_creation_date              2013-03-05T15:55:22-0500
_audit_creation_method            fapswitch 2.2
_symmetry_space_group_name_H-M    P1
_symmetry_Int_Tables_number       1
_space_group_crystal_system       triclinic
_cell_length_a                    27.621482
_cell_length_b                    10.770832
_cell_length_c                    9.933953
_cell_angle_alpha                 91.190819
_cell_angle_beta                  89.983697
_cell_angle_gamma                 92.382805
_cell_volume                      2952.22039284

loop_
_atom_site_label
_atom_site_type_symbol
_atom_site_description
_atom_site_fract_x
_atom_site_fract_y
_atom_site_fract_z
_atom_type_partial_charge
O1    O     O_R   0.500000 0.316780 0.614690 -0.653111
O2    O     O_R   0.500000 0.316750 0.385360 -0.613714
C1    C     C_R   0.503479 0.260843 0.497626 0.883304
O3    O     O_R   0.428760 0.500030 0.614650 -0.656088
O4    O     O_R   0.428750 0.500010 0.385320 -0.614358
C2    C     C_R   0.406240 0.497398 0.499026 0.938245
Zn1   Zn    Zn3+2 0.500000 0.500020 0.653130 0.989052
Zn2   Zn    Zn3+2 0.500000 0.499980 0.346870 0.942075
O5    O     O_R   0.500000 0.683250 0.614640 -0.535220
O6    O     O_R   0.500000 0.683220 0.385310 -0.591293
O7    O     O_R   0.571250 0.499990 0.614680 -0.599979
O8    O     O_R   0.571240 0.499970 0.385350 -0.628082
C3    C     C_R   0.496371 0.740010 0.502727 0.927246
C4    C     C_R   0.593842 0.495943 0.499984 0.870020
C5    C     C_R   0.178225 0.411994 0.558374 0.623583
O9    O     O_2   0.204197 0.313899 0.591785 -0.533803
N1    N     N_R   0.201638 0.518214 0.514216 -0.322905
C6    C     C_R   0.176945 0.623592 0.492791 0.512668
C7    C     C_R   0.282514 0.613863 0.556123 -0.220793
C8    C     C_R   0.332437 0.613632 0.541855 0.103776
C9    C     C_R   0.325284 0.409322 0.430866 0.305024
C10   C     C_R   0.274758 0.425711 0.418251 0.443045
C11   C     C_R   0.253300 0.519309 0.496144 0.083175
C12   C     C_R   0.101947 0.514493 0.552589 -0.138165
C13   C     C_R   0.127487 0.405086 0.569953 -0.142100
C14   C     C_R   0.101778 0.292297 0.596090 0.502140
C15   C     C_R   0.127375 0.625596 0.520047 -0.025726
C16   C     C_R   0.353807 0.504928 0.494727 -0.231010
C17   C     C_R   0.646206 0.480832 0.500961 -0.049924
C18   C     C_R   0.974323 0.398133 0.606937 -0.028751
C19   C     C_R   0.974820 0.614690 0.532165 0.004812
C20   C     C_R   0.949202 0.502458 0.564012 0.000806
C21   C     C_R   0.947194 0.296984 0.663565 0.464956
C22   C     C_R   0.897091 0.287967 0.647160 -0.247534
C23   C     C_R   0.872537 0.383776 0.588370 -0.064141
C24   C     C_R   0.898149 0.493742 0.551613 -0.128092
C25   C     C_R   0.872676 0.594330 0.502156 -0.115547
C26   C     C_R   0.821947 0.581143 0.490443 0.569281
N2    N     N_R   0.798332 0.471031 0.520481 -0.353761
C27   C     C_R   0.822436 0.373348 0.569172 0.509696
C28   C     C_R   0.719155 0.446718 0.626454 -0.162920
C29   C     C_R   0.669262 0.453480 0.621815 -0.261316
C30   C     C_R   0.673289 0.489782 0.381778 -0.288889
C31   C     C_R   0.723505 0.477167 0.384405 0.282913
C32   C     C_R   0.746640 0.461365 0.509239 0.284585
O10   O     O_2   0.797877 0.266251 0.598284 -0.566617
C33   C     C_R   0.025324 0.399573 0.592246 0.000865
C34   C     C_R   0.050975 0.512861 0.565741 0.028257
C35   C     C_R   0.025940 0.623943 0.548551 0.053946
C36   C     C_R   0.051214 0.289800 0.595468 -0.292940
H1    H     H_    0.648864 0.438818 0.713530 0.153150
H2    H     H_    0.736692 0.433045 0.722213 0.156107
H3    H     H_    0.877519 0.206154 0.683765 0.206597
H4    H     H_    0.032882 0.199468 0.591002 0.207973
O11   O     O_2   0.200122 0.725882 0.443926 -0.592706
C37   C     C_R   0.103332 0.737087 0.519872 -0.218726
H5    H     H_    0.266535 0.691510 0.608022 0.205860
H6    H     H_    0.123636 0.824547 0.508459 0.190920
C38   C     C_R   0.948835 0.711689 0.477670 -0.295720
C39   C     C_R   0.898460 0.703484 0.463416 0.505259
O12   O     O_2   0.796098 0.677351 0.450302 -0.504857
C40   C     C_R   0.053581 0.738639 0.543727 0.181380
H7    H     H_    0.967011 0.794179 0.440238 0.184898
H8    H     H_    0.655573 0.506524 0.286939 0.150170
C41   C     C_R   0.556127 0.127749 0.698884 -0.183765
H9    H     H_    0.573788 0.216855 0.677450 0.158388
C42   C     C_R   0.566928 0.071601 0.819568 0.179568
C43   C     C_R   0.541940 0.961329 0.852361 -0.269208
H10   H     H_    0.546619 0.923185 0.950687 0.157900
C44   C     C_R   0.509738 0.901792 0.760262 0.544125
C45   C     C_R   0.507653 0.945310 0.625590 -0.091144
C46   C     C_R   0.524217 0.067803 0.604965 -0.039245
C47   C     C_R   0.508446 0.128099 0.490666 -0.151818
C48   C     C_R   0.489682 0.060392 0.378455 0.151948
C49   C     C_R   0.479802 0.933776 0.389935 0.129015
C50   C     C_R   0.491292 0.874197 0.510140 -0.201129
H11   H     H_    0.559910 0.622371 0.130938 0.167850
C51   C     C_R   0.433498 0.346808 0.137765 -0.128693
H12   H     H_    0.434375 0.335695 0.243752 0.257844
C52   C     C_R   0.399741 0.271653 0.068545 -0.342267
H13   H     H_    0.376514 0.209773 0.126411 0.168233
C53   C     C_R   0.397389 0.273449 0.927802 0.489117
C54   C     C_R   0.432111 0.345947 0.858831 -0.190879
H14   H     H_    0.431820 0.335563 0.751893 0.218723
C55   C     C_R   0.466333 0.425412 0.926808 -0.017256
C56   C     C_R   0.466497 0.426002 0.070871 0.117183
N3    N     N_R   0.499540 0.498800 0.142780 -0.133051
C57   C     C_R   0.533702 0.566425 0.073389 -0.305181
C58   C     C_R   0.534053 0.567338 0.928983 0.581397
N4    N     N_R   0.499520 0.498720 0.857170 -0.132550
O13   O     O_3   0.348717 0.307694 0.375839 -0.675561
C59   C     C_3   0.325473 0.190783 0.403552 0.068683
H15   H     H_    0.349790 0.117964 0.366331 0.134653
H16   H     H_    0.291875 0.174761 0.344169 0.199715
C60   C     C_3   0.317057 0.169130 0.554687 -0.330761
H17   H     H_    0.352913 0.166510 0.604602 0.242611
H18   H     H_    0.297355 0.246670 0.601188 0.241802
C61   C     C_3   0.287618 0.048089 0.580439 -0.843922
H19   H     H_    0.267819 0.012848 0.489190 0.274569
H20   H     H_    0.260251 0.063131 0.660334 0.266034
H21   H     H_    0.311849 0.976086 0.615884 0.256109
O14   O     O_3   0.873937 0.806919 0.424956 -0.586307
C62   C     C_3   0.886950 0.844273 0.293450 0.107845
H22   H     H_    0.854112 0.833175 0.229029 0.183605
H23   H     H_    0.915394 0.788322 0.244091 0.099465
C63   C     C_3   0.903574 0.981576 0.298459 -0.310756
H24   H     H_    0.874491 0.037372 0.343640 0.251012
H25   H     H_    0.936354 0.994135 0.362964 0.221725
C64   C     C_3   0.915300 0.029576 0.158358 -1.004201
H26   H     H_    0.945401 0.977808 0.112805 0.264318
H27   H     H_    0.926502 0.129647 0.165913 0.270189
H28   H     H_    0.882907 0.019117 0.092205 0.274018
N5    N     N_2   0.750808 0.485509 0.263014 -0.294850
H29   H     H_    0.734158 0.532342 0.187549 0.222964
C65   C     C_3   0.769342 0.369048 0.214848 -0.789009
H30   H     H_    0.791449 0.385287 0.123015 0.238131
H31   H     H_    0.738876 0.302017 0.189295 0.238734
H32   H     H_    0.792808 0.328542 0.291716 0.261755
N6    N     N_2   0.033047 0.855356 0.573914 -0.323709
H33   H     H_    0.052434 0.931702 0.538067 0.232136
C66   C     C_3   0.018396 0.872350 0.712727 -0.787497
H34   H     H_    0.000946 0.962846 0.725181 0.268314
H35   H     H_    0.050513 0.872059 0.780072 0.226950
H36   H     H_    0.991802 0.797748 0.742446 0.258368
N7    N     N_2   0.482591 0.118567 0.252502 -0.287931
H37   H     H_    0.453601 0.085229 0.195495 0.215323
C67   C     C_3   0.526316 0.141655 0.174537 -0.703380
H38   H     H_    0.516975 0.187134 0.079335 0.222834
H39   H     H_    0.544135 0.053868 0.150330 0.227747
H40   H     H_    0.552752 0.203405 0.230644 0.255496
N8    N     N_2   0.598956 0.132284 0.914033 -0.317697
H41   H     H_    0.588688 0.220876 0.938843 0.219041
C68   C     C_3   0.649518 0.132353 0.876062 -0.758058
H42   H     H_    0.672032 0.173052 0.959781 0.236035
H43   H     H_    0.656056 0.189031 0.785078 0.240079
H44   H     H_    0.660892 0.036259 0.855514 0.256393
O15   O     O_3   0.245243 0.348451 0.337602 -0.620590
C69   C     C_3   0.253469 0.374692 0.200283 0.034762
H45   H     H_    0.242839 0.289385 0.141122 0.163560
H46   H     H_    0.292322 0.396781 0.176536 0.148990
C70   C     C_3   0.221859 0.479625 0.154786 -0.339306
H47   H     H_    0.183399 0.457022 0.180903 0.239504
H48   H     H_    0.233435 0.567777 0.207747 0.238206
C71   C     C_3   0.225943 0.497750 0.003098 -0.961845
H49   H     H_    0.264059 0.521511 0.974944 0.263475
H50   H     H_    0.202957 0.574630 0.972929 0.271027
H51   H     H_    0.213563 0.411645 0.947639 0.265767
O16   O     O_3   0.478054 0.809872 0.808369 -0.601759
C72   C     C_3   0.432543 0.860398 0.837155 0.070447
H52   H     H_    0.412274 0.873806 0.742454 0.163385
H53   H     H_    0.436861 0.953669 0.888019 0.104763
C73   C     C_3   0.403726 0.774023 0.933313 -0.341477
H54   H     H_    0.427322 0.702158 0.972032 0.246411
H55   H     H_    0.390745 0.829408 0.020741 0.179262
C74   C     C_3   0.360216 0.704684 0.869065 -0.877834
H56   H     H_    0.336836 0.769131 0.816028 0.261165
H57   H     H_    0.338344 0.658341 0.948763 0.244513
H58   H     H_    0.372777 0.631362 0.799037 0.288398
N9    N     N_2   0.456786 0.866209 0.281554 -0.296158
H59   H     H_    0.423823 0.898819 0.253360 0.190541
C75   C     C_3   0.487525 0.838313 0.168421 -0.707271
H60   H     H_    0.480868 0.902598 0.085890 0.216333
H61   H     H_    0.478221 0.743044 0.133530 0.256281
H62   H     H_    0.526579 0.843305 0.196115 0.234598
O17   O     O_3   0.365301 0.197767 0.851694 -0.679652
C76   C     C_3   0.319771 0.175033 0.914452 0.083247
H63   H     H_    0.291194 0.188141 0.838512 0.170128
H64   H     H_    0.311458 0.241971 0.997065 0.117774
C77   C     C_3   0.315809 0.040533 0.961308 -0.362315
H65   H     H_    0.321572 0.977493 0.873559 0.237273
H66   H     H_    0.344304 0.024432 0.036974 0.203929
C78   C     C_3   0.266312 0.008833 0.022342 -0.955765
H67   H     H_    0.260108 0.068665 0.112505 0.261514
H68   H     H_    0.264685 0.910242 0.053211 0.277847
H69   H     H_    0.237353 0.021740 0.947087 0.269839
O18   O     O_3   0.566223 0.644110 0.858166 -0.594804
C79   C     C_3   0.614439 0.640300 0.906393 0.043223
H70   H     H_    0.638334 0.628529 0.817848 0.178801
H71   H     H_    0.621059 0.560452 0.972900 0.104588
C80   C     C_3   0.629818 0.764309 0.974731 -0.358254
H72   H     H_    0.630001 0.837786 0.898253 0.239379
H73   H     H_    0.603789 0.789061 0.054929 0.210462
C81   C     C_3   0.680264 0.760247 0.036321 -0.925545
H74   H     H_    0.680099 0.691932 0.118449 0.255848
H75   H     H_    0.691144 0.853288 0.079175 0.276899
H76   H     H_    0.707116 0.734185 0.958521 0.265271
O19   O     O_3   0.125850 0.181910 0.604003 -0.593274
C82   C     C_3   0.117350 0.125371 0.730060 0.089577
H77   H     H_    0.128545 0.027690 0.720535 0.167319
H78   H     H_    0.078358 0.119922 0.758210 0.134476
C83   C     C_3   0.147597 0.190610 0.842539 -0.363758
H79   H     H_    0.186746 0.184980 0.818483 0.246088
H80   H     H_    0.138751 0.290177 0.850590 0.214575
C84   C     C_3   0.137630 0.130905 0.978264 -0.964983
H81   H     H_    0.099038 0.139914 0.006914 0.273035
H82   H     H_    0.160753 0.178275 0.056772 0.279425
H83   H     H_    0.145960 0.030913 0.973663 0.268406
O20   O     O_3   0.969110 0.205737 0.735107 -0.681516
C85   C     C_3   0.964292 0.228791 0.875204 0.055473
H84   H     H_    0.968592 0.138905 0.925660 0.179668
H85   H     H_    0.927718 0.260734 0.903865 0.139130
C86   C     C_3   0.004023 0.321473 0.927356 -0.365124
H86   H     H_    0.040003 0.291318 0.892833 0.233027
H87   H     H_    0.998138 0.414940 0.886670 0.219134
C87   C     C_3   0.004058 0.330987 0.080858 -0.947421
H88   H     H_    0.968438 0.361420 0.118138 0.264515
H89   H     H_    0.032631 0.400102 0.115041 0.272070
H90   H     H_    0.011739 0.239701 0.124420 0.266727
N10   N     N_2   0.359766 0.727802 0.557754 -0.304993
H91   H     H_    0.395536 0.719342 0.583340 0.241633
C88   C     C_3   0.354802 0.808425 0.444531 -0.820258
H92   H     H_    0.375644 0.897329 0.463964 0.229782
H93   H     H_    0.316216 0.829020 0.428354 0.274939
H94   H     H_    0.368494 0.762491 0.351765 0.252374

loop_
_geom_bond_atom_site_label_1
_geom_bond_atom_site_label_2
_geom_bond_distance
_ccdc_geom_bond_type
C84   H82   1.110473 S    
N3    C57   1.363618 A    
C28   C29   1.383870 A    
O17   C76   1.417905 S    
C17   C29   1.401581 A    
C74   H57   1.109969 S    
C47   C48   1.406443 A    
C60   H17   1.109389 S    
C12   C15   1.405664 A    
C49   C50   1.409760 A    
C67   H39   1.106026 S    
C75   H60   1.104382 S    
C60   C61   1.533590 S    
C72   H52   1.109955 S    
C87   H88   1.110933 S    
C7    H5    1.082901 S    
Zn1   O7    2.004659 S    
C10   O15   1.383913 S    
C36   H4    1.078088 S    
N7    H37   1.028951 S    
C86   H87   1.110774 S    
C82   C83   1.536004 S    
C20   C24   1.414632 A    
C24   C25   1.412779 A    
C65   H32   1.109590 S    
C70   H48   1.111133 S    
O4    C2    1.289462 A    
O7    C4    1.299732 A    
C51   C52   1.382737 A    
C5    C13   1.405133 A    
C48   N7    1.428087 S    
C63   H24   1.112063 S    
C65   H30   1.110459 S    
C82   H78   1.112148 S    
C22   C23   1.396213 A    
C77   H65   1.109290 S    
C19   C38   1.409205 A    
O5    C3    1.285755 A    
C66   H36   1.110429 S    
C62   H22   1.111148 S    
C64   H27   1.109976 S    
C60   H18   1.108447 S    
C2    C16   1.454614 S    
C19   C20   1.416581 A    
H11   C57   1.078707 S    
C80   H73   1.108823 S    
C43   H10   1.077369 S    
C41   C42   1.391896 A    
C86   C87   1.526190 S    
C68   H44   1.108985 S    
N9    C75   1.442515 S    
O20   C85   1.415804 S    
C37   H6    1.084088 S    
C83   C84   1.525887 S    
C28   H2    1.083170 S    
C80   C81   1.524597 S    
C29   H1    1.082021 S    
N2    C32   1.431511 S    
C26   O12   1.349609 S    
C57   C58   1.434793 A    
C51   C56   1.399460 A    
C87   H89   1.110480 S    
C84   H81   1.110835 S    
C85   H84   1.110131 S    
O1    Zn1   2.002443 S    
C9    C10   1.419895 A    
C17   C30   1.403173 A    
C74   H58   1.108059 S    
C76   H64   1.111354 S    
C77   H66   1.109794 S    
C72   H53   1.117032 S    
C19   C35   1.420534 A    
C71   H51   1.110438 S    
C39   O14   1.387991 S    
C75   H61   1.096558 S    
C78   H68   1.110524 S    
C30   H8    1.083631 S    
N10   H91   1.028434 S    
C33   C36   1.407921 A    
N6    C66   1.447126 S    
C26   N2    1.367991 A    
C55   N4    1.380023 A    
C42   N8    1.420335 S    
C48   C49   1.386659 A    
C54   H14   1.065873 S    
C42   C43   1.393188 A    
C12   C34   1.413346 A    
C33   C34   1.414777 A    
C18   C33   1.415704 A    
C21   C22   1.392667 A    
C12   C13   1.411980 A    
C71   H50   1.110309 S    
C86   H86   1.110321 S    
C64   H28   1.110852 S    
O13   C59   1.421526 S    
C15   C37   1.396244 A    
C52   H13   1.080019 S    
C8    C16   1.404625 A    
C65   H31   1.111677 S    
C13   C14   1.410246 A    
C55   C56   1.431007 A    
Zn1   N4    2.027298 S    
C69   C70   1.532153 S    
C59   C60   1.540258 S    
C83   H79   1.111229 S    
C82   H77   1.111033 S    
O1    C1    1.303921 A    
C23   C24   1.408829 A    
C73   C74   1.521663 S    
C7    C11   1.396448 A    
C81   H74   1.109834 S    
C83   H80   1.111035 S    
C88   H92   1.110032 S    
C25   C26   1.407105 A    
C85   C86   1.535259 S    
C81   H75   1.110458 S    
C14   O19   1.389800 S    
N9    H59   1.030357 S    
C3    C50   1.458232 S    
Zn2   O8    2.004651 S    
C79   C80   1.529916 S    
C59   H16   1.105347 S    
N1    C6    1.368670 A    
C66   H34   1.109828 S    
C62   H23   1.117033 S    
C71   H49   1.110185 S    
N1    C11   1.437770 S    
C8    N10   1.421889 S    
O16   C72   1.417181 S    
C40   N6    1.426718 S    
C44   C45   1.428679 A    
C69   H46   1.115747 S    
C6    O11   1.350085 S    
C79   H70   1.107870 S    
C52   C53   1.400227 A    
O18   C79   1.417967 S    
C54   C55   1.411090 A    
C9    C16   1.410398 A    
C73   H55   1.111206 S    
C31   N5    1.424557 S    
C53   C54   1.399498 A    
C61   H20   1.109989 S    
C30   C31   1.399586 A    
C76   H63   1.107317 S    
C77   C78   1.524048 S    
C37   C40   1.395135 A    
C72   C73   1.544825 S    
O3    C2    1.305596 A    
C44   O16   1.386302 S    
C27   O10   1.350228 S    
C4    C17   1.462264 S    
N8    H41   1.031689 S    
C61   H21   1.108151 S    
C45   C50   1.428711 A    
N2    C27   1.365194 A    
C75   H62   1.112181 S    
C31   C32   1.411882 A    
N7    C67   1.450115 S    
N5    H29   1.031090 S    
C9    O13   1.396339 S    
C87   H90   1.110904 S    
C49   N9    1.422081 S    
C5    N1    1.370671 A    
O3    Zn1   2.004654 S    
C34   C35   1.419934 A    
C35   C40   1.426670 A    
C18   C21   1.422053 A    
C88   H93   1.110038 S    
C56   N3    1.369563 A    
O2    Zn2   2.018023 S    
C6    C15   1.396583 A    
C76   C77   1.530396 S    
O8    C4    1.301214 A    
C46   C47   1.398289 A    
N8    C68   1.446497 S    
O6    C3    1.311531 A    
O4    Zn2   2.004662 S    
N6    H33   1.032092 S    
C78   H69   1.109923 S    
C70   C71   1.527012 S    
C41   C46   1.411505 A    
O15   C69   1.415220 S    
C38   H7    1.075308 S    
C81   H76   1.110942 S    
Zn2   N3    2.027236 S    
C7    C8    1.386276 A    
C14   C36   1.395803 A    
O2    C1    1.283900 A    
C67   H40   1.109340 S    
O19   C82   1.419057 S    
C70   H47   1.111786 S    
C18   C20   1.418034 A    
C51   H12   1.062517 S    
C68   H42   1.110424 S    
C63   H25   1.111423 S    
C21   O20   1.384271 S    
C5    O9    1.348664 S    
C59   H15   1.111149 S    
N10   C88   1.445175 S    
C79   H71   1.116398 S    
C23   C27   1.396582 A    
C62   C63   1.529993 S    
C41   H9    1.083475 S    
O14   C62   1.416763 S    
C1    C47   1.442230 S    
C85   H85   1.115665 S    
C66   H35   1.111416 S    
C25   C39   1.409451 A    
C69   H45   1.109543 S    
C78   H67   1.109964 S    
C84   H83   1.110639 S    
Zn1   O5    2.018025 S    
C38   C39   1.397612 A    
C88   H94   1.110607 S    
C45   C46   1.397493 A    
C73   H54   1.107405 S    
C22   H3    1.083771 S    
Zn2   O6    2.002442 S    
C61   H19   1.110655 S    
C74   H56   1.108674 S    
C68   H43   1.111701 S    
C43   C44   1.402885 A    
C28   C32   1.397960 A    
C10   C11   1.408310 A    
C58   O18   1.389597 S    
C58   N4    1.372892 A    
C64   H26   1.111213 S    
C63   C64   1.524764 S    
C80   H72   1.108242 S    
C67   H38   1.109429 S    
N5    C65   1.446660 S    
C53   O17   1.391529 S    
