data_mof_unit_54195.cif
_audit_creation_date              2012-12-11T14:03:24-0500
_audit_creation_method            fapswitch 2.2
_symmetry_space_group_name_H-M    P1
_symmetry_Int_Tables_number       1
_space_group_crystal_system       triclinic
_cell_length_a                    6.943108
_cell_length_b                    11.402495
_cell_length_c                    18.671368
_cell_angle_alpha                 89.999724
_cell_angle_beta                  92.887143
_cell_angle_gamma                 90.000195
_cell_volume                      1476.31265728

loop_
_atom_site_label
_atom_site_type_symbol
_atom_type_description
_atom_site_fract_x
_atom_site_fract_y
_atom_site_fract_z
_atom_type_partial_charge
O1    O     O_R   0.330540 0.606360 0.598870 -0.538370
O2    O     O_R   0.669460 0.106360 0.401130 -0.538370
O3    O     O_R   0.026770 0.620470 0.750430 -0.531433
O4    O     O_R   0.973230 0.120470 0.249570 -0.531442
O5    O     O_R   0.856460 0.393640 0.750930 -0.540425
O6    O     O_R   0.143540 0.893640 0.249070 -0.540430
C1    C     C_R   0.198676 0.648394 0.774524 0.693513
C2    C     C_R   0.801326 0.148391 0.225475 0.693517
O7    O     O_R   0.000920 0.620350 0.599420 -0.548678
O8    O     O_R   0.999080 0.120350 0.400580 -0.548678
O9    O     O_R   0.830430 0.393520 0.598850 -0.540648
O10   O     O_R   0.169570 0.893520 0.401150 -0.540646
C3    C     C_R   0.166651 0.647860 0.574537 0.764719
C4    C     C_R   0.833349 0.147860 0.425463 0.764719
O11   O     O_R   0.356570 0.606480 0.750960 -0.531226
O12   O     O_R   0.643430 0.106480 0.249040 -0.531220
O13   O     O_3   0.176990 0.425580 0.674890 -0.379315
O14   O     O_3   0.823010 0.925580 0.325110 -0.379315
V1    V     V_3+5 0.902170 0.513810 0.674910 1.449960
V2    V     V_3+5 0.097830 0.013810 0.325090 1.449950
O15   O     O_R   0.500800 0.379530 0.599380 -0.550640
O16   O     O_R   0.499200 0.879530 0.400620 -0.550640
C5    C     C_R   0.666543 0.352027 0.574504 0.757912
C6    C     C_R   0.333457 0.852027 0.425496 0.757919
O17   O     O_R   0.526650 0.379650 0.750390 -0.544197
O18   O     O_R   0.473350 0.879650 0.249610 -0.544194
C7    C     C_R   0.698613 0.351387 0.774299 0.718395
C8    C     C_R   0.301385 0.851391 0.225699 0.718395
V3    V     V_3+5 0.402160 0.486190 0.674900 1.434352
V4    V     V_3+5 0.597840 0.986190 0.325100 1.434357
O19   O     O_3   0.677210 0.574420 0.674910 -0.364305
O20   O     O_3   0.322790 0.074420 0.325090 -0.364306
C9    C     C_R   0.720527 0.068923 0.878035 0.255742
C10   C     C_R   0.279552 0.568929 0.121958 0.255738
C11   C     C_R   0.714823 0.268448 0.834007 -0.087069
C12   C     C_R   0.285170 0.768451 0.165989 -0.087071
C13   C     C_R   0.792996 0.350861 0.180392 -0.064447
C14   C     C_R   0.206993 0.850867 0.819601 -0.064444
C15   C     C_R   0.783192 0.432452 0.125093 -0.031136
C16   C     C_R   0.216770 0.932460 0.874899 -0.031140
C17   C     C_R   0.766500 0.395722 0.053892 -0.128594
C18   C     C_R   0.233440 0.895732 0.946101 -0.128602
C19   C     C_R   0.758940 0.274808 0.035968 0.102808
C20   C     C_R   0.241029 0.774819 0.964027 0.102803
C21   C     C_R   0.768459 0.191741 0.093091 0.086841
C22   C     C_R   0.231564 0.691752 0.906905 0.086853
C23   C     C_R   0.742913 0.233703 0.963457 0.036391
C24   C     C_R   0.257056 0.733712 0.036538 0.036394
C25   C     C_R   0.736940 0.110584 0.949524 0.077744
C26   C     C_R   0.263116 0.610595 0.050470 0.077753
C27   C     C_R   0.746993 0.031588 0.007041 -0.177314
C28   C     C_R   0.253131 0.531602 0.992953 -0.177331
C29   C     C_R   0.762364 0.071232 0.077296 -0.215793
C30   C     C_R   0.237738 0.571245 0.922699 -0.215794
C31   C     C_R   0.732181 0.310933 0.904118 -0.224602
C32   C     C_R   0.267716 0.810937 0.095879 -0.224623
C33   C     C_R   0.708766 0.148158 0.821105 -0.212049
C34   C     C_R   0.291318 0.648161 0.178889 -0.212032
C35   C     C_R   0.785439 0.230972 0.165198 -0.052113
C36   C     C_R   0.214568 0.730979 0.834799 -0.052108
H1    H     H_    0.735150 0.404864 0.910148 0.116662
H2    H     H_    0.264636 0.904861 0.089848 0.116674
H3    H     H_    0.807021 0.381332 0.235379 0.102343
H4    H     H_    0.192969 0.881332 0.764613 0.102341
H5    H     H_    0.789116 0.525207 0.137470 0.124121
H6    H     H_    0.210830 0.025213 0.862520 0.124120
C37   C     C_2   0.831956 0.233716 0.484709 -0.344804
C38   C     C_2   0.168043 0.733716 0.515290 -0.344806
C39   C     C_2   0.667951 0.266167 0.515259 -0.342202
C40   C     C_2   0.332049 0.766167 0.484741 -0.342206
H7    H     H_    0.530445 0.229324 0.496169 0.150437
H8    H     H_    0.469555 0.729325 0.503832 0.150438
H9    H     H_    0.694926 0.115839 0.766511 0.138441
H10   H     H_    0.305211 0.615838 0.233482 0.138443
H11   H     H_    0.742879 0.937789 0.998546 0.183893
H12   H     H_    0.257324 0.437808 0.001448 0.183899
Br1   Br    Br    0.712929 0.904799 0.854014 -0.635124
Br2   Br    Br    0.287124 0.404808 0.145976 -0.635133
H13   H     H_    0.760355 0.464644 0.014479 0.115843
H14   H     H_    0.239563 0.964654 0.985514 0.115845
H15   H     H_    0.769597 0.005824 0.119384 0.124850
H16   H     H_    0.230564 0.505837 0.880613 0.124857
H17   H     H_    0.969463 0.270561 0.503798 0.149518
H18   H     H_    0.030537 0.770560 0.496202 0.149519

loop_
_geom_bond_atom_site_label_1
_geom_bond_atom_site_label_2
_ccdc_geom_bond_type
V4    O20   S    
C18   H14   S    
O13   V3    S    
C5    C39   S    
O4    C2    A    
V1    O19   S    
C6    C40   S    
C23   C25   A    
C37   H17   S    
O9    V1    S    
O16   C6    A    
C27   H11   S    
O3    C1    A    
C2    C35   S    
C9    C25   A    
C29   H15   S    
C33   H9    S    
C39   H7    S    
O7    C3    A    
O5    C7    A    
O7    V1    S    
O6    C8    A    
O8    V2    S    
C25   C27   A    
C26   C28   A    
C4    C37   S    
O3    V1    S    
O14   V4    S    
C28   C30   A    
C16   C18   A    
C21   C29   A    
C2    O12   A    
C16   H6    S    
C17   C19   A    
O10   V2    S    
C18   C20   A    
C13   H3    S    
C20   C22   A    
O11   V3    S    
C14   H4    S    
O17   V3    S    
C13   C15   A    
C10   C26   A    
C12   C34   A    
C11   C31   A    
C38   H18   S    
C15   C17   A    
O8    C4    A    
C1    O11   A    
C7    C11   S    
O15   V3    S    
C37   C39   D    
C12   C32   A    
C22   C30   A    
O1    V3    S    
C24   C26   A    
C19   C21   A    
C13   C35   A    
C14   C36   A    
O18   V4    S    
O15   C5    A    
C32   H2    S    
O1    C3    A    
C1    C36   S    
C30   H16   S    
C34   H10   S    
C23   C31   A    
V2    O20   S    
C24   C32   A    
O10   C6    A    
C21   C35   A    
C9    C33   A    
O16   V4    S    
C22   C36   A    
C28   H12   S    
C17   H13   S    
O5    V1    S    
O17   C7    A    
O6    V2    S    
C15   H5    S    
O18   C8    A    
O2    V4    S    
C11   C33   A    
V3    O19   S    
C10   Br2   S    
C14   C16   A    
C9    Br1   S    
C19   C23   A    
C31   H1    S    
O9    C5    A    
O13   V1    S    
O14   V2    S    
O2    C4    A    
O4    V2    S    
C8    C12   S    
C38   C40   D    
C10   C34   A    
C40   H8    S    
C27   C29   A    
O12   V4    S    
C20   C24   A    
C3    C38   S    
