data_mof_unit_55608.cif
_audit_creation_date              2012-12-11T14:14:19-0500
_audit_creation_method            fapswitch 2.2
_symmetry_space_group_name_H-M    P1
_symmetry_Int_Tables_number       1
_space_group_crystal_system       triclinic
_cell_length_a                    17.076544
_cell_length_b                    7.234441
_cell_length_c                    17.00709
_cell_angle_alpha                 90.001177
_cell_angle_beta                  99.154279
_cell_angle_gamma                 89.997764
_cell_volume                      2074.28327585

loop_
_atom_site_label
_atom_site_type_symbol
_atom_type_description
_atom_site_fract_x
_atom_site_fract_y
_atom_site_fract_z
_atom_type_partial_charge
O1    O     O_R   0.414560 0.494370 0.416770 -0.537577
O2    O     O_R   0.585440 0.994370 0.583230 -0.537578
O3    O     O_R   0.578370 0.819590 0.429320 -0.540183
O4    O     O_R   0.421630 0.319590 0.570680 -0.540191
C1    C     C_R   0.604788 0.654962 0.414329 0.703950
C2    C     C_R   0.395215 0.154969 0.585674 0.703942
O5    O     O_R   0.414740 0.823790 0.407360 -0.541214
O6    O     O_R   0.585260 0.323790 0.592640 -0.541213
O7    O     O_R   0.420650 0.998510 0.561120 -0.534719
O8    O     O_R   0.579350 0.498510 0.438880 -0.534719
C3    C     C_R   0.387142 0.655333 0.385967 0.693747
C4    C     C_R   0.612855 0.155329 0.614035 0.693761
O9    O     O_3   0.502130 0.662240 0.550470 -0.380340
O10   O     O_3   0.497870 0.162240 0.449530 -0.380339
V1    V     V_3+5 0.499600 0.935390 0.490640 1.435827
V2    V     V_3+5 0.500400 0.435390 0.509360 1.435828
C5    C     C_2   0.794355 0.261360 0.777027 -0.036887
C6    C     C_2   0.205643 0.761375 0.222969 -0.036904
C7    C     C_2   0.813934 0.117758 0.827412 -0.383206
C8    C     C_2   0.186064 0.617756 0.172590 -0.383219
H1    H     H_    0.771477 0.006646 0.829238 0.143819
H2    H     H_    0.228521 0.506631 0.170772 0.143821
C9    C     C_2   0.713401 0.275421 0.728354 0.032661
C10   C     C_2   0.286596 0.775431 0.271646 0.032656
C11   C     C_2   0.686865 0.141452 0.673619 -0.213305
C12   C     C_2   0.313128 0.641471 0.326388 -0.213332
C13   C     C_R   0.329907 0.141388 0.633280 -0.085172
C14   C     C_R   0.670095 0.641358 0.366719 -0.085189
C15   C     C_R   0.163688 0.126021 0.858995 -0.101040
C16   C     C_R   0.836314 0.626041 0.141005 -0.101049
C17   C     C_R   0.294411 0.247274 0.841383 0.081714
C18   C     C_R   0.705586 0.747283 0.158620 0.081721
C19   C     C_R   0.235145 0.214909 0.888790 -0.200371
C20   C     C_R   0.764850 0.714913 0.111210 -0.200381
C21   C     C_R   0.149595 0.065534 0.778556 0.025223
C22   C     C_R   0.850416 0.565577 0.221447 0.025189
C23   C     C_R   0.210227 0.089884 0.730262 0.104796
C24   C     C_R   0.789773 0.589864 0.269732 0.104844
C25   C     C_R   0.282059 0.183081 0.761328 0.086505
C26   C     C_R   0.717940 0.683078 0.238673 0.086494
C27   C     C_R   0.340336 0.209723 0.711273 -0.239354
C28   C     C_R   0.659666 0.709725 0.288732 -0.239347
C29   C     C_R   0.259210 0.048621 0.603167 -0.046141
C30   C     C_R   0.740785 0.548530 0.396817 -0.046128
C31   C     C_R   0.200536 0.024482 0.650859 -0.213044
C32   C     C_R   0.799458 0.524389 0.349121 -0.213044
H3    H     H_    0.395738 0.279085 0.732560 0.104096
H4    H     H_    0.604267 0.779117 0.267452 0.104105
H5    H     H_    0.147449 0.952588 0.624317 0.129637
H6    H     H_    0.852538 0.452428 0.375643 0.129565
H7    H     H_    0.243190 0.260437 0.950088 0.113947
H8    H     H_    0.756800 0.760434 0.049912 0.113942
O11   O     O_R   0.920750 0.773600 0.061260 -0.533226
O12   O     O_R   0.079250 0.273600 0.938740 -0.533230
O13   O     O_R   0.085340 0.439850 0.092570 -0.537724
O14   O     O_R   0.914660 0.939850 0.907430 -0.537711
C33   C     C_R   0.112564 0.608630 0.113608 0.732817
C34   C     C_R   0.887434 0.108632 0.886393 0.732811
O15   O     O_R   0.921720 0.444130 0.070790 -0.544935
O16   O     O_R   0.078280 0.944130 0.929210 -0.544952
O17   O     O_R   0.914480 0.269530 0.916840 -0.533730
O18   O     O_R   0.085520 0.769530 0.083160 -0.533707
C35   C     C_R   0.897275 0.613062 0.087558 0.684157
C36   C     C_R   0.102722 0.113056 0.912438 0.684151
O19   O     O_3   0.997840 0.601520 0.949550 -0.370982
O20   O     O_3   0.002160 0.101520 0.050450 -0.370966
V3    V     V_3+5 0.000400 0.328340 0.009360 1.439309
V4    V     V_3+5 0.999600 0.828340 0.990640 1.439322
C37   C     C_1   0.851511 0.403401 0.766012 0.368641
N1    N     N_1   0.896907 0.517267 0.757120 -0.349607
C38   C     C_1   0.148484 0.903424 0.233979 0.368660
N2    N     N_1   0.103084 0.017293 0.242868 -0.349580
C39   C     C_3   0.068233 0.990321 0.742725 -0.367208
C40   C     C_3   0.020426 0.137251 0.690412 -0.350577
C41   C     C_3   0.939546 0.062954 0.653263 -0.685009
H9    H     H_    0.946454 0.944522 0.613355 0.235993
H10   H     H_    0.906601 0.017091 0.700918 0.245406
H11   H     H_    0.905028 0.173424 0.618013 0.233049
H12   H     H_    0.011850 0.259522 0.727663 0.215107
H13   H     H_    0.052422 0.183608 0.642003 0.207764
H14   H     H_    0.074218 0.861159 0.709001 0.178871
H15   H     H_    0.032823 0.948068 0.788702 0.192860
C42   C     C_3   0.931804 0.490534 0.257292 -0.367148
C43   C     C_3   0.979519 0.637506 0.309664 -0.350559
C44   C     C_3   0.060513 0.563550 0.346654 -0.684952
H16   H     H_    0.053784 0.445360 0.386765 0.235949
H17   H     H_    0.093314 0.517385 0.298930 0.245344
H18   H     H_    0.095065 0.674299 0.381679 0.233116
H19   H     H_    0.987880 0.760074 0.272499 0.215183
H20   H     H_    0.947563 0.683328 0.358190 0.207700
H21   H     H_    0.925880 0.361308 0.290989 0.178904
H22   H     H_    0.967245 0.448492 0.211311 0.192777
C45   C     C_3   0.662823 0.445903 0.738213 -0.289132
C46   C     C_3   0.688821 0.559570 0.814372 -0.326093
C47   C     C_3   0.629608 0.714213 0.821991 -0.796216
H23   H     H_    0.619252 0.799011 0.766855 0.236153
H24   H     H_    0.572301 0.655525 0.833262 0.230122
H25   H     H_    0.653799 0.805956 0.872247 0.210013
H26   H     H_    0.693519 0.468672 0.867634 0.194590
H27   H     H_    0.747268 0.624966 0.812727 0.214502
H28   H     H_    0.600918 0.399532 0.739539 0.161676
H29   H     H_    0.663380 0.538372 0.686132 0.216674
C48   C     C_3   0.337176 0.945897 0.261784 -0.289137
C49   C     C_3   0.311169 0.059585 0.185633 -0.326099
C50   C     C_3   0.370386 0.214209 0.178012 -0.796210
H30   H     H_    0.380761 0.298984 0.233156 0.236152
H31   H     H_    0.427685 0.155501 0.166717 0.230123
H32   H     H_    0.346187 0.305981 0.127768 0.210012
H33   H     H_    0.306459 0.968697 0.132365 0.194594
H34   H     H_    0.252727 0.125003 0.187293 0.214492
H35   H     H_    0.399078 0.899506 0.260449 0.161676
H36   H     H_    0.336629 0.038364 0.313870 0.216660
C51   C     C_1   0.733564 0.975589 0.667285 0.308899
N3    N     N_1   0.769781 0.842299 0.661788 -0.345636
C52   C     C_1   0.266413 0.475651 0.332738 0.308939
N4    N     N_1   0.230179 0.342401 0.338247 -0.345583
C53   C     C_1   0.244541 0.979982 0.522279 0.305629
N5    N     N_1   0.232687 0.925261 0.457531 -0.358111
C54   C     C_1   0.755452 0.479834 0.477696 0.305608
N6    N     N_1   0.767305 0.425067 0.542436 -0.358074
C55   C     C_3   0.370677 0.351054 0.874224 -0.355044
C56   C     C_3   0.379982 0.413982 0.961421 -0.321055
C57   C     C_3   0.456704 0.523088 0.984902 -0.782884
H37   H     H_    0.508881 0.438341 0.976330 0.232659
H38   H     H_    0.455714 0.649998 0.948028 0.234371
H39   H     H_    0.462809 0.563740 0.048542 0.218245
H40   H     H_    0.329553 0.504480 0.970456 0.195977
H41   H     H_    0.381660 0.290456 0.000404 0.201671
H42   H     H_    0.421894 0.259788 0.868589 0.169101
H43   H     H_    0.374146 0.475817 0.836706 0.179511
C58   C     C_3   0.629317 0.851070 0.125784 -0.355044
C59   C     C_3   0.620005 0.913988 0.038587 -0.321064
C60   C     C_3   0.543283 0.023107 0.015112 -0.782892
H44   H     H_    0.491109 0.938387 0.023707 0.232666
H45   H     H_    0.544285 0.150043 0.051973 0.234365
H46   H     H_    0.537163 0.063716 0.951465 0.218247
H47   H     H_    0.670432 0.004474 0.029545 0.195978
H48   H     H_    0.618322 0.790457 0.999606 0.201672
H49   H     H_    0.578102 0.759811 0.131423 0.169098
H50   H     H_    0.625849 0.975839 0.163302 0.179514

loop_
_geom_bond_atom_site_label_1
_geom_bond_atom_site_label_2
_ccdc_geom_bond_type
C24   C26   A    
C5    C37   S    
C45   C46   S    
C39   C40   S    
C47   H23   S    
O1    C3    A    
C55   H43   S    
O2    C4    A    
C2    O7    A    
C47   H25   S    
C57   H37   S    
C25   C27   A    
C44   H16   S    
O5    C3    A    
C42   H22   S    
C50   H31   S    
C5    C9    S    
C6    C10   S    
C7    H1    S    
C10   C12   D    
C49   H33   S    
C57   H38   S    
C22   C42   S    
C59   H48   S    
C52   N4    T    
C15   C19   A    
C48   H35   S    
C56   H40   S    
O11   V4    S    
O17   V3    S    
C12   C52   S    
C58   H50   S    
O15   V3    S    
C42   C43   S    
O14   C34   A    
C59   C60   S    
C60   H46   S    
C17   C19   A    
C31   H5    S    
C34   O17   A    
C26   C28   A    
O20   V3    S    
C15   C36   S    
O6    V2    S    
C40   H13   S    
C16   C35   S    
C37   N1    T    
C43   H20   S    
C39   H14   S    
C49   C50   S    
C30   C32   A    
C44   H17   S    
C7    C34   S    
C50   H32   S    
C40   C41   S    
C16   C20   A    
C33   O18   A    
C43   C44   S    
C17   C55   S    
O4    C2    A    
C45   H28   S    
C57   H39   S    
O12   V3    S    
C3    C12   S    
C59   H47   S    
O14   V4    S    
C14   C30   A    
C9    C45   S    
C48   H36   S    
C18   C20   A    
O4    V2    S    
C41   H9    S    
C11   C51   S    
C1    C14   S    
C29   C31   A    
C13   C27   A    
C2    C13   S    
C46   H27   S    
O6    C4    A    
O19   V4    S    
C27   H3    S    
O1    V2    S    
C28   H4    S    
O2    V1    S    
C41   H10   S    
C55   C56   S    
C29   C53   S    
C8    H2    S    
C40   H12   S    
O13   C33   A    
C60   H44   S    
C43   H19   S    
C23   C31   A    
C58   C59   S    
C39   H15   S    
O3    V1    S    
C51   N3    T    
C44   H18   S    
C6    C38   S    
C8    C33   S    
C32   H6    S    
C21   C39   S    
C21   C23   A    
C20   H8    S    
C55   H42   S    
O3    C1    A    
C45   H29   S    
O13   V3    S    
C54   N6    T    
C47   H24   S    
C16   C22   A    
C19   H7    S    
C42   H21   S    
C50   H30   S    
C15   C21   A    
O15   C35   A    
C30   C54   S    
O18   V4    S    
C4    C11   S    
O16   C36   A    
C10   C48   S    
C22   C24   A    
O7    V1    S    
C1    O8    A    
C23   C25   A    
O8    V2    S    
C53   N5    T    
C49   H34   S    
O11   C35   A    
O12   C36   A    
C46   H26   S    
O5    V1    S    
C14   C28   A    
C5    C7    D    
C17   C25   A    
C6    C8    D    
C18   C26   A    
C56   H41   S    
C46   C47   S    
C41   H11   S    
C24   C32   A    
C58   H49   S    
C13   C29   A    
C38   N2    T    
C9    C11   D    
O16   V4    S    
O9    V2    S    
C48   C49   S    
C60   H45   S    
O10   V1    S    
C56   C57   S    
C18   C58   S    
