data_mof_unit_21198.cif
_audit_creation_date              2012-12-11T17:43:19-0500
_audit_creation_method            fapswitch 2.2
_symmetry_space_group_name_H-M    P1
_symmetry_Int_Tables_number       1
_space_group_crystal_system       triclinic
_cell_length_a                    15.069708
_cell_length_b                    15.219038
_cell_length_c                    16.939019
_cell_angle_alpha                 108.606318
_cell_angle_beta                  106.106416
_cell_angle_gamma                 109.485143
_cell_volume                      3134.32668122

loop_
_atom_site_label
_atom_site_type_symbol
_atom_type_description
_atom_site_fract_x
_atom_site_fract_y
_atom_site_fract_z
_atom_type_partial_charge
C1    C     C_R   0.087832 0.289560 0.076055 -0.155579
C2    C     C_R   0.909024 0.721780 0.960673 -0.145446
C3    C     C_R   0.027393 0.570997 0.741231 0.075030
C4    C     C_R   0.972351 0.535502 0.273822 0.054299
C5    C     C_R   0.762110 0.198928 0.726589 0.053498
C6    C     C_R   0.331274 0.786262 0.258508 0.079082
C7    C     C_R   0.297725 0.473180 0.975452 0.052708
C8    C     C_R   0.642062 0.435959 0.945296 0.051942
C9    C     C_R   0.930410 0.944751 0.057998 -0.251848
C10   C     C_R   0.075100 0.081516 0.024798 -0.236446
C11   C     C_R   0.999127 0.917798 0.027333 0.075220
C12   C     C_R   0.004126 0.107101 0.051549 0.077672
C13   C     C_R   0.071998 0.986431 0.010263 -0.008924
C14   C     C_R   0.931024 0.039627 0.069158 0.008575
C15   C     C_R   0.748626 0.009270 0.052309 -0.028983
C16   C     C_R   0.245635 0.000331 0.013238 -0.062127
C17   C     C_R   0.729270 0.131488 0.172115 -0.149481
C18   C     C_R   0.252295 0.912569 0.868630 -0.148383
C19   C     C_R   0.549275 0.696649 0.272188 -0.071022
C20   C     C_R   0.489678 0.257722 0.652940 -0.166696
C21   C     C_R   0.517539 0.640620 0.177883 -0.123463
C22   C     C_R   0.487335 0.289563 0.738975 -0.126975
C23   C     C_R   0.935875 0.514784 0.744658 -0.144844
C24   C     C_R   0.064364 0.548932 0.264712 -0.120846
C25   C     C_R   0.482428 0.532355 0.137936 0.082138
C26   C     C_R   0.461658 0.370621 0.771529 0.141959
C27   C     C_R   0.477751 0.480292 0.192954 -0.169696
C28   C     C_R   0.436622 0.417905 0.715558 -0.295085
C29   C     C_R   0.506869 0.536127 0.287610 -0.006232
C30   C     C_R   0.438196 0.385666 0.628713 0.034506
C31   C     C_R   0.543228 0.644794 0.326865 -0.226322
C32   C     C_R   0.465265 0.305377 0.597906 -0.075407
C33   C     C_R   0.543192 0.456892 0.029219 -0.223113
C34   C     C_R   0.379668 0.422085 0.875984 -0.236942
C35   C     C_R   0.544302 0.426480 0.943025 0.054075
C36   C     C_R   0.382159 0.457716 0.964013 0.067450
C37   C     C_R   0.462179 0.406726 0.864356 0.033103
C38   C     C_R   0.465052 0.476754 0.041495 0.019550
C39   C     C_R   0.685104 0.041522 0.088718 -0.086733
C40   C     C_R   0.302496 0.975713 0.963954 -0.084986
C41   C     C_R   0.964366 0.580433 0.360462 0.124044
C42   C     C_R   0.036288 0.607203 0.672153 0.127124
C43   C     C_R   0.141457 0.676863 0.600786 -0.235964
C44   C     C_R   0.861056 0.562728 0.446567 -0.219155
C45   C     C_R   0.777848 0.204139 0.812946 -0.132428
C46   C     C_R   0.276900 0.786743 0.178239 -0.142942
C47   C     C_R   0.134241 0.655311 0.672967 -0.195108
C48   C     C_R   0.866879 0.549828 0.363380 -0.168987
C49   C     C_R   0.946293 0.587619 0.601274 -0.296294
C50   C     C_R   0.055585 0.639639 0.443040 -0.271173
C51   C     C_R   0.952249 0.601680 0.525506 0.182291
C52   C     C_R   0.050451 0.644124 0.524476 0.189729
C53   C     C_R   0.720850 0.104198 0.640882 0.127789
C54   C     C_R   0.437438 0.863147 0.327847 0.115133
C55   C     C_R   0.585552 0.034212 0.396263 -0.214373
C56   C     C_R   0.611402 0.917198 0.557678 -0.230363
C57   C     C_R   0.492119 0.954535 0.322551 -0.173307
C58   C     C_R   0.684076 0.005682 0.639637 -0.164330
C59   C     C_R   0.482301 0.848323 0.403648 -0.298463
C60   C     C_R   0.700481 0.110604 0.557540 -0.279190
C61   C     C_R   0.574375 0.927893 0.477828 0.184101
C62   C     C_R   0.623455 0.023590 0.476113 0.178515
C63   C     C_R   0.837257 0.190557 0.220539 -0.109729
C64   C     C_R   0.144876 0.872473 0.821451 -0.107778
C65   C     C_R   0.901580 0.159370 0.186218 -0.100547
C66   C     C_R   0.086767 0.893012 0.869396 -0.103476
C67   C     C_R   0.265709 0.541585 0.955079 -0.138573
C68   C     C_R   0.699513 0.403623 0.995567 -0.164751
C69   C     C_R   0.858663 0.068828 0.102472 0.003262
C70   C     C_R   0.136015 0.957090 0.965005 0.017992
C71   C     C_R   0.783161 0.298595 0.735120 -0.123868
C72   C     C_R   0.271921 0.691818 0.254693 -0.133515
C73   C     C_R   0.255464 0.443339 0.030575 -0.106428
C74   C     C_R   0.704704 0.500493 0.920753 -0.108634
C75   C     C_R   0.108800 0.598555 0.821909 -0.136369
C76   C     C_R   0.890421 0.464545 0.187438 -0.125765
C77   C     C_R   0.914720 0.203373 0.998491 -0.126876
C78   C     C_R   0.083753 0.805903 0.041382 -0.100214
C79   C     C_R   0.001121 0.198120 0.046583 0.060897
C80   C     C_R   0.996016 0.819091 0.014947 0.057296
H1    H     H_    0.166520 0.314543 0.123349 0.113157
H2    H     H_    0.829154 0.704578 0.924761 0.103199
H3    H     H_    0.568199 0.689649 0.400018 0.109435
H4    H     H_    0.467461 0.279419 0.531369 0.158242
H5    H     H_    0.580612 0.780770 0.303077 0.132680
H6    H     H_    0.510360 0.195827 0.628803 0.133951
H7    H     H_    0.524295 0.682069 0.136651 0.117338
H8    H     H_    0.505585 0.250903 0.780191 0.116094
H9    H     H_    0.452643 0.396869 0.161979 0.158243
H10   H     H_    0.417344 0.480879 0.740182 0.124137
H11   H     H_    0.609433 0.476144 0.089878 0.136700
H12   H     H_    0.313821 0.406511 0.817226 0.135349
H13   H     H_    0.131512 0.669884 0.443187 0.118790
H14   H     H_    0.870377 0.552914 0.600247 0.124137
H15   H     H_    0.794971 0.508804 0.301218 0.124331
H16   H     H_    0.205312 0.672922 0.727168 0.128274
H17   H     H_    0.217306 0.709921 0.600831 0.134565
H18   H     H_    0.785148 0.532052 0.446875 0.138078
H19   H     H_    0.857452 0.493697 0.700258 0.091851
H20   H     H_    0.143213 0.597514 0.317293 0.095717
H21   H     H_    0.600940 0.997958 0.051994 0.151315
H22   H     H_    0.386102 0.006466 0.998888 0.147412
H23   H     H_    0.733675 0.185005 0.556655 0.122069
H24   H     H_    0.443070 0.778201 0.408947 0.123852
H25   H     H_    0.703300 0.997200 0.702243 0.118201
H26   H     H_    0.460869 0.967517 0.264152 0.145616
H27   H     H_    0.623423 0.106842 0.393590 0.143016
H28   H     H_    0.576702 0.842989 0.558844 0.126098
H29   H     H_    0.679537 0.155780 0.198967 0.142271
H30   H     H_    0.296960 0.895663 0.831119 0.127073
H31   H     H_    0.871252 0.260612 0.284915 0.123156
H32   H     H_    0.106465 0.826774 0.747321 0.136099
H33   H     H_    0.985359 0.205974 0.225103 0.122282
H34   H     H_    0.003464 0.861754 0.831496 0.112988
H35   H     H_    0.767929 0.141432 0.831671 0.094728
H36   H     H_    0.306272 0.840004 0.151423 0.097261
H37   H     H_    0.289329 0.583333 0.917515 0.108560
H38   H     H_    0.671370 0.345738 0.018649 0.106962
H39   H     H_    0.777640 0.323410 0.681867 0.098326
H40   H     H_    0.296305 0.656982 0.297322 0.093379
H41   H     H_    0.268323 0.393794 0.061143 0.101188
H42   H     H_    0.681590 0.533446 0.875655 0.103356
H43   H     H_    0.189111 0.655843 0.849202 0.097015
H44   H     H_    0.808146 0.435945 0.168949 0.096523
H45   H     H_    0.834026 0.148268 0.973351 0.094506
H46   H     H_    0.163924 0.865287 0.081487 0.088659
H47   H     H_    0.876319 0.891781 0.072610 0.135858
H48   H     H_    0.128187 0.132567 0.007890 0.137035
N1    N     N_R   0.055660 0.348550 0.045620 -0.039515
N2    N     N_R   0.944340 0.651450 0.954380 -0.040837
N3    N     N_R   0.960830 0.507850 0.823700 -0.039746
N4    N     N_R   0.039170 0.492150 0.176300 -0.041980
N5    N     N_R   0.811290 0.303410 0.871650 -0.040944
N6    N     N_R   0.188710 0.696590 0.128350 -0.040744
N7    N     N_R   0.205200 0.552990 0.997670 -0.041663
N8    N     N_R   0.794800 0.447010 0.002330 -0.038599
N9    N     N_R   0.814800 0.361830 0.823700 -0.040609
N10   N     N_R   0.185200 0.638170 0.176300 -0.041304
N11   N     N_R   0.201680 0.494570 0.045620 -0.041889
N12   N     N_R   0.798320 0.505430 0.954380 -0.041643
N13   N     N_R   0.068420 0.560530 0.871650 -0.039450
N14   N     N_R   0.931580 0.439470 0.128350 -0.039654
N15   N     N_R   0.948070 0.295860 0.997670 -0.040220
N16   N     N_R   0.051930 0.704140 0.002330 -0.042160
Ni1   Ni    Ni4+2 0.119340 0.493420 0.109960 0.219601
Ni2   Ni    Ni4+2 0.880660 0.506580 0.890040 0.214807
Ni3   Ni    Ni4+2 0.872590 0.372590 0.000000 0.217369
Ni4   Ni    Ni4+2 0.127410 0.627410 0.000000 0.218840
C81   C     C_2   0.699286 0.916812 0.960752 0.438001
H49   H     H_    0.746153 0.897198 0.926800 0.026667
O1    O     O_2   0.604927 0.861482 0.921395 -0.598253
C82   C     C_2   0.300700 0.069872 0.114218 0.469606
H50   H     H_    0.257492 0.087175 0.153383 0.050081
O2    O     O_2   0.395304 0.108527 0.155203 -0.576026
C83   C     C_2   0.502310 0.482816 0.346700 0.518825
H51   H     H_    0.526432 0.527707 0.419841 0.031751
O3    O     O_2   0.471734 0.388476 0.314720 -0.542307
C84   C     C_2   0.411740 0.436864 0.571377 0.469402
H52   H     H_    0.392323 0.499650 0.596898 0.006007
O4    O     O_2   0.411003 0.409593 0.495047 -0.577292

loop_
_geom_bond_atom_site_label_1
_geom_bond_atom_site_label_2
_ccdc_geom_bond_type
C23   H19   S    
C63   C65   A    
C3    C42   S    
N5    N9    A    
C48   H15   S    
C83   O3    D    
C34   C37   A    
C7    C36   S    
C3    C23   A    
N16   Ni4   S    
C19   C31   A    
C21   H7    S    
C77   H45   S    
C7    C73   A    
C26   C37   S    
N7    N11   A    
C9    H47   S    
C75   H43   S    
N4    Ni1   S    
C5    C53   S    
C35   C37   A    
C1    N1    A    
C81   O1    D    
C6    C46   A    
C4    C24   A    
C78   C80   A    
C43   C52   A    
C64   H32   S    
N2    Ni2   S    
C13   C70   S    
N10   Ni1   S    
C1    H1    S    
C55   C62   A    
C31   H3    S    
C27   C29   A    
N3    Ni2   S    
C60   C62   A    
C17   C39   A    
C18   C40   A    
C56   H28   S    
C75   N13   A    
N13   Ni4   S    
C68   H38   S    
C44   H18   S    
C49   C51   A    
C20   H6    S    
C50   C52   A    
C47   H16   S    
N5    Ni3   S    
C22   H8    S    
C49   H14   S    
C60   H23   S    
N2    N16   A    
N1    Ni1   S    
N3    N13   A    
N8    N12   A    
C29   C83   S    
C72   N10   A    
C57   H26   S    
C4    C41   S    
C84   O4    D    
C6    C54   S    
C10   H48   S    
C26   C28   A    
C53   C60   A    
C39   H21   S    
C54   C59   A    
C77   C79   A    
N4    N14   A    
C15   C69   A    
C59   C61   A    
C51   C52   A    
C76   H44   S    
C43   H17   S    
N9    Ni2   S    
C68   N8    A    
C16   C70   A    
C71   N9    A    
N12   Ni2   S    
C2    N2    A    
C73   N11   A    
C40   H22   S    
C6    C72   A    
C5    C45   A    
C55   H27   S    
C8    C35   S    
C64   C66   A    
C67   N7    A    
C9    C14   A    
C77   N15   A    
C78   N16   A    
C25   C38   S    
C46   N6    A    
C9    C11   A    
C45   H35   S    
C72   H40   S    
C8    C74   A    
C23   N3    A    
C16   C82   S    
C67   H37   S    
C15   C39   A    
C10   C12   A    
C16   C40   A    
C44   C51   A    
C74   H42   S    
C82   O2    D    
C8    C68   A    
C73   H41   S    
C55   C57   A    
C84   H52   S    
C1    C79   A    
C14   C69   S    
C2    H2    S    
C59   H24   S    
C78   H46   S    
C41   C50   A    
C15   C81   S    
C3    C75   A    
C20   C32   A    
C30   C84   S    
C33   H11   S    
C21   C25   A    
N11   Ni1   S    
C66   H34   S    
C19   C21   A    
C24   H20   S    
C65   H33   S    
N14   Ni3   S    
C18   H30   S    
C32   H4    S    
C20   C22   A    
C19   H5    S    
C10   C13   A    
C17   H29   S    
N6    N10   A    
C53   C58   A    
C50   H13   S    
N1    N15   A    
C71   H39   S    
C25   C27   A    
N6    Ni4   S    
C45   N5    A    
C33   C38   A    
C46   H36   S    
C58   H25   S    
C28   C30   A    
C12   C14   A    
N15   Ni3   S    
C5    C71   A    
C81   H49   S    
C17   C63   A    
C30   C32   A    
C24   N4    A    
C11   C13   A    
C18   C64   A    
C66   C70   A    
C74   N12   A    
C65   C69   A    
C36   C38   A    
C33   C35   A    
C41   C48   A    
C56   C58   A    
C27   H9    S    
C34   C36   A    
C42   C47   A    
C63   H31   S    
C61   C62   A    
C34   H12   S    
C4    C76   A    
N8    Ni3   S    
C2    C80   A    
C11   C80   S    
C42   C49   A    
C7    C67   A    
C82   H50   S    
C29   C31   A    
N7    Ni4   S    
C22   C26   A    
C83   H51   S    
C56   C61   A    
C28   H10   S    
C43   C47   A    
C44   C48   A    
C12   C79   S    
C54   C57   A    
C76   N14   A    
