data_mof_unit_42049.cif
_audit_creation_date              2012-12-10T20:51:25-0500
_audit_creation_method            fapswitch 2.2
_symmetry_space_group_name_H-M    P1
_symmetry_Int_Tables_number       1
_space_group_crystal_system       triclinic
_cell_length_a                    17.683557
_cell_length_b                    8.924482
_cell_length_c                    8.162805
_cell_angle_alpha                 89.999533
_cell_angle_beta                  90.017356
_cell_angle_gamma                 90.001417
_cell_volume                      1288.22595891

loop_
_atom_site_label
_atom_site_type_symbol
_atom_type_description
_atom_site_fract_x
_atom_site_fract_y
_atom_site_fract_z
_atom_type_partial_charge
Br1   Br    Br    0.728716 0.381197 0.835051 -0.409931
Br2   Br    Br    0.271275 0.381241 0.164937 -0.409916
Br3   Br    Br    0.277439 0.634209 0.836828 -0.406543
Br4   Br    Br    0.722572 0.634169 0.163157 -0.406536
C1    C     C_R   0.500000 0.218242 0.500000 0.922824
C2    C     C_R   0.847844 0.538254 0.353064 0.429389
C3    C     C_R   0.771198 0.477054 0.644562 0.190462
C4    C     C_R   0.228797 0.477054 0.355452 0.190411
C5    C     C_R   0.230610 0.549447 0.644665 0.185497
C6    C     C_R   0.769395 0.549450 0.355348 0.185440
C7    C     C_R   0.729724 0.508462 0.499736 -0.365085
C8    C     C_R   0.270276 0.508467 0.500270 -0.365090
C9    C     C_R   0.886735 0.527173 0.500660 -0.239451
C10   C     C_R   0.113264 0.527130 0.499384 -0.239453
C11   C     C_1   0.966504 0.531063 0.500280 0.110916
C12   C     C_R   0.500000 0.781758 0.499999 0.921575
C13   C     C_1   0.033496 0.531049 0.499772 0.110915
C14   C     C_3   0.896388 0.657789 0.843603 -0.151085
C15   C     C_3   0.103635 0.657777 0.156423 -0.151053
C16   C     C_3   0.100489 0.391060 0.841283 -0.152180
C17   C     C_3   0.899490 0.391079 0.158743 -0.152139
C18   C     C_1   0.500000 0.065261 0.500001 -0.144103
C19   C     C_1   0.500000 0.934735 0.499999 -0.142629
C20   C     C_R   0.353089 0.501302 0.500044 0.976974
C21   C     C_R   0.646911 0.501298 0.499957 0.976975
C22   C     C_R   0.848503 0.506506 0.647944 0.427287
C23   C     C_R   0.151489 0.506476 0.352092 0.427292
C24   C     C_R   0.152161 0.538220 0.646971 0.429380
H1    H     H_    0.841346 0.705405 0.883912 0.212274
H2    H     H_    0.845571 0.336517 0.121842 0.210464
H3    H     H_    0.927747 0.323917 0.256141 0.120869
H4    H     H_    0.937967 0.389814 0.052145 0.212460
H5    H     H_    0.921468 0.729392 0.745944 0.119358
H6    H     H_    0.936062 0.662333 0.948239 0.210913
H7    H     H_    0.158688 0.705342 0.116106 0.212298
H8    H     H_    0.078573 0.729408 0.254074 0.119354
H9    H     H_    0.063962 0.662346 0.051787 0.210904
H10   H     H_    0.154397 0.336441 0.878148 0.210417
H11   H     H_    0.072204 0.323940 0.743889 0.120885
H12   H     H_    0.062022 0.389815 0.947899 0.212478
N1    N     N_1   0.500000 0.500000 0.073640 0.026512
N2    N     N_1   0.500000 0.500000 0.926360 0.026513
O1    O     O_R   0.500000 0.285350 0.636850 -0.610733
O2    O     O_3   0.112449 0.506966 0.205746 -0.594010
O3    O     O_3   0.113203 0.541143 0.793305 -0.593373
O4    O     O_3   0.886811 0.541166 0.206741 -0.593380
O5    O     O_R   0.500000 0.714650 0.363150 -0.610012
O6    O     O_R   0.500000 0.714650 0.636850 -0.610008
O7    O     O_R   0.500000 0.285350 0.363150 -0.610736
O8    O     O_R   0.389120 0.500000 0.636930 -0.580952
O9    O     O_R   0.610880 0.500000 0.363070 -0.580949
O10   O     O_R   0.610880 0.500000 0.636930 -0.580855
O11   O     O_R   0.389120 0.500000 0.363070 -0.580852
O12   O     O_3   0.887537 0.506980 0.794299 -0.594009
Zn1   Zn    Zn3+2 0.500000 0.500000 0.682780 1.082015
Zn2   Zn    Zn3+2 0.500000 0.500000 0.317220 1.082014

loop_
_geom_bond_atom_site_label_1
_geom_bond_atom_site_label_2
_ccdc_geom_bond_type
C2    C6    A    
O6    Zn1   S    
C21   O9    A    
N1    Zn2   S    
C9    C22   A    
Br3   C5    S    
N2    Zn1   S    
O7    Zn2   S    
C17   H3    S    
N1    N2    T    
C8    C20   S    
O8    Zn1   S    
O10   Zn1   S    
C4    C8    A    
C12   O6    A    
C1    O1    A    
C21   O10   A    
C14   H1    S    
C15   H7    S    
C2    C9    A    
C3    C7    A    
C14   H6    S    
C10   C13   S    
C1    O7    A    
C3    C22   A    
C16   H12   S    
C22   O12   S    
C12   O5    A    
O1    Zn1   S    
C17   H4    S    
C17   O4    S    
C12   C19   S    
C15   H8    S    
C9    C11   S    
C20   O8    A    
C10   C23   A    
C14   H5    S    
C24   O3    S    
C15   H9    S    
C6    C7    A    
C14   O12   S    
Br4   C6    S    
C16   H10   S    
C15   O2    S    
O9    Zn2   S    
C17   H2    S    
O11   Zn2   S    
C11   C13   T    
C16   H11   S    
C7    C21   S    
C18   C19   T    
C4    C23   A    
Br1   C3    S    
C2    O4    S    
C10   C24   A    
C20   O11   A    
C5    C8    A    
C23   O2    S    
Br2   C4    S    
C1    C18   S    
C16   O3    S    
C5    C24   A    
O5    Zn2   S    
