data_mof_unit_6535.cif
_audit_creation_date              2012-12-10T16:48:49-0500
_audit_creation_method            fapswitch 2.2
_symmetry_space_group_name_H-M    P1
_symmetry_Int_Tables_number       1
_space_group_crystal_system       triclinic
_cell_length_a                    17.350614
_cell_length_b                    8.692921
_cell_length_c                    7.604755
_cell_angle_alpha                 102.529738
_cell_angle_beta                  91.966187
_cell_angle_gamma                 96.033325
_cell_volume                      1111.55800491

loop_
_atom_site_label
_atom_site_type_symbol
_atom_type_description
_atom_site_fract_x
_atom_site_fract_y
_atom_site_fract_z
_atom_type_partial_charge
C1    C     C_R   0.496803 0.200288 0.454208 0.871071
C2    C     C_R   0.503197 0.799712 0.545791 0.871068
C3    C     C_2   0.492822 0.031753 0.429928 -0.366163
C4    C     C_2   0.507178 0.968247 0.570072 -0.366172
C5    C     C_R   0.351743 0.503616 0.523467 0.772569
C6    C     C_R   0.648257 0.496382 0.476533 0.772567
C7    C     C_R   0.268455 0.512681 0.536510 -0.017702
C8    C     C_R   0.731544 0.487309 0.463489 -0.017699
C9    C     C_R   0.223697 0.531448 0.387175 -0.203843
C10   C     C_R   0.776300 0.468535 0.612823 -0.203846
C11   C     C_R   0.144605 0.539936 0.398166 -0.148035
C12   C     C_R   0.855392 0.460034 0.601831 -0.148038
C13   C     C_R   0.108942 0.527971 0.558327 0.193762
C14   C     C_R   0.891055 0.471994 0.441671 0.193762
C15   C     C_R   0.153866 0.514505 0.709473 -0.169422
C16   C     C_R   0.846133 0.485467 0.290525 -0.169423
C17   C     C_R   0.233251 0.506352 0.698640 -0.196853
C18   C     C_R   0.766749 0.493632 0.301359 -0.196839
C19   C     C_2   0.025019 0.529591 0.571406 -0.229333
C20   C     C_2   0.974978 0.470368 0.428592 -0.229333
Cu1   Cu    Cu3+1 0.508700 0.517250 0.683000 0.916726
Cu2   Cu    Cu3+1 0.491300 0.482750 0.317000 0.916725
H1    H     H_    0.249741 0.541343 0.262187 0.145469
H2    H     H_    0.750256 0.458644 0.737812 0.145472
H3    H     H_    0.733233 0.506117 0.183631 0.150280
H4    H     H_    0.266768 0.493871 0.816369 0.150284
H5    H     H_    0.888087 0.442349 0.718166 0.120059
H6    H     H_    0.111908 0.557617 0.281831 0.120058
N1    N     N_2   0.478180 0.456750 0.041980 -0.109412
N2    N     N_2   0.521820 0.543250 0.958020 -0.109413
O1    O     O_R   0.505650 0.286040 0.618880 -0.607322
O2    O     O_R   0.494350 0.713960 0.381120 -0.607322
O3    O     O_R   0.490960 0.256910 0.309800 -0.599625
O4    O     O_R   0.509040 0.743090 0.690200 -0.599625
O5    O     O_R   0.394600 0.516230 0.672450 -0.606626
O6    O     O_R   0.605400 0.483770 0.327550 -0.606627
O7    O     O_R   0.379910 0.487100 0.363380 -0.603010
O8    O     O_R   0.620090 0.512900 0.636620 -0.603011
H7    H     H_    0.995751 0.422978 0.296957 0.143273
H8    H     H_    0.004246 0.576981 0.703041 0.143273
H9    H     H_    0.127239 0.507229 0.834700 0.119037
H10   H     H_    0.872760 0.492740 0.165298 0.119036
H11   H     H_    0.476926 0.959611 0.295795 0.165336
H12   H     H_    0.523074 0.040389 0.704205 0.165336
C21   C     C_3   0.434180 0.310288 0.940673 -0.057340
C22   C     C_3   0.357751 0.267013 0.023704 -0.388250
C23   C     C_3   0.308475 0.127255 0.898342 -0.936033
H13   H     H_    0.292070 0.158689 0.769130 0.258178
H14   H     H_    0.341063 0.021992 0.869903 0.267153
H15   H     H_    0.254505 0.096323 0.963709 0.262634
H16   H     H_    0.368329 0.231313 0.152343 0.260821
H17   H     H_    0.323806 0.370181 0.046760 0.221371
H18   H     H_    0.414369 0.321719 0.808494 0.220278
H19   H     H_    0.470685 0.211809 0.930636 0.150951
C24   C     C_3   0.565819 0.689713 0.059327 -0.057331
C25   C     C_3   0.642247 0.732992 0.976297 -0.388254
C26   C     C_3   0.691514 0.872774 0.101643 -0.936041
H20   H     H_    0.658929 0.978041 0.129998 0.267153
H21   H     H_    0.707897 0.841390 0.230895 0.258182
H22   H     H_    0.745496 0.903675 0.036305 0.262634
H23   H     H_    0.676199 0.629833 0.953265 0.221359
H24   H     H_    0.631670 0.768671 0.847646 0.260833
H25   H     H_    0.529312 0.788191 0.069364 0.150959
H26   H     H_    0.585630 0.678282 0.191505 0.220270

loop_
_geom_bond_atom_site_label_1
_geom_bond_atom_site_label_2
_ccdc_geom_bond_type
C2    C4    S    
C24   C25   S    
C6    O8    A    
C7    C9    A    
N1    N2    D    
Cu1   O5    S    
Cu2   N1    S    
C5    O7    A    
Cu2   O6    S    
Cu1   N2    S    
C23   H13   S    
C1    O1    A    
C9    C11   A    
C24   H26   S    
C2    O4    A    
Cu2   O7    S    
C20   H7    S    
C1    O3    A    
C23   H14   S    
C16   C18   A    
C24   H25   S    
C21   C22   S    
C22   H17   S    
Cu1   O1    S    
C3    H11   S    
C26   H20   S    
C18   H3    S    
Cu2   O2    S    
C11   H6    S    
C17   H4    S    
C10   C12   A    
C2    O2    A    
C6    O6    A    
C21   H19   S    
C23   H15   S    
C25   H24   S    
C13   C15   A    
C14   C16   A    
C26   H21   S    
C19   H8    S    
C13   C19   S    
C12   H5    S    
C21   H18   S    
C3    C4    D    
C5    O5    A    
C11   C13   A    
C25   C26   S    
C15   H9    S    
C14   C20   S    
C15   C17   A    
N2    C24   S    
N1    C21   S    
C5    C7    S    
Cu2   O3    S    
C22   C23   S    
C9    H1    S    
C26   H22   S    
C6    C8    S    
Cu1   O4    S    
C4    H12   S    
C10   H2    S    
Cu1   Cu2   S    
C25   H23   S    
C16   H10   S    
C22   H16   S    
C8    C10   A    
C8    C18   A    
Cu1   O8    S    
C19   C20   D    
C12   C14   A    
C1    C3    S    
C7    C17   A    
