data_mof_unit_6589.cif
_audit_creation_date              2012-12-11T15:29:36-0500
_audit_creation_method            fapswitch 2.2
_symmetry_space_group_name_H-M    P1
_symmetry_Int_Tables_number       1
_space_group_crystal_system       triclinic
_cell_length_a                    21.410198
_cell_length_b                    7.27297
_cell_length_c                    14.870143
_cell_angle_alpha                 89.999949
_cell_angle_beta                  74.054794
_cell_angle_gamma                 90.000553
_cell_volume                      2226.42536546

loop_
_atom_site_label
_atom_site_type_symbol
_atom_type_description
_atom_site_fract_x
_atom_site_fract_y
_atom_site_fract_z
_atom_type_partial_charge
O1    O     O_R   0.464160 0.506670 0.130070 -0.538068
O2    O     O_R   0.535840 0.006670 0.869930 -0.538072
O3    O     O_R   0.589710 0.179080 0.006710 -0.550312
O4    O     O_R   0.410290 0.679080 0.993290 -0.550311
C1    C     C_R   0.615839 0.344811 0.004053 0.680193
C2    C     C_R   0.384161 0.844811 0.995947 0.680200
O5    O     O_R   0.467940 0.177220 0.138010 -0.533049
O6    O     O_R   0.532060 0.677220 0.861990 -0.533049
O7    O     O_R   0.413200 0.002810 0.002170 -0.526604
O8    O     O_R   0.586800 0.502810 0.997830 -0.526605
C3    C     C_R   0.456227 0.345693 0.174217 0.735763
C4    C     C_R   0.543774 0.845694 0.825784 0.735762
O9    O     O_3   0.482180 0.337850 0.955280 -0.377458
O10   O     O_3   0.517820 0.837850 0.044720 -0.377458
V1    V     V_3+5 0.503310 0.064600 0.008300 1.430327
V2    V     V_3+5 0.496690 0.564600 0.991700 1.430330
C5    C     C_R   0.573062 0.855518 0.724502 -0.051917
C6    C     C_R   0.426941 0.355509 0.275500 -0.051915
C7    C     C_R   0.929252 0.855784 0.275232 -0.033328
C8    C     C_R   0.070752 0.355794 0.724769 -0.033309
C9    C     C_R   0.561547 0.939237 0.572729 -0.165179
C10   C     C_R   0.438462 0.439179 0.427275 -0.165179
C11   C     C_R   0.533914 0.904863 0.667254 -0.214880
C12   C     C_R   0.466093 0.404831 0.332747 -0.214881
C13   C     C_R   0.640582 0.832130 0.686254 0.040878
C14   C     C_R   0.359421 0.332121 0.313751 0.040883
C15   C     C_R   0.668176 0.845799 0.587431 0.050824
C16   C     C_R   0.331830 0.345766 0.412575 0.050825
C17   C     C_R   0.628384 0.915154 0.533004 0.119194
C18   C     C_R   0.371626 0.415095 0.467004 0.119196
C19   C     C_R   0.734114 0.801484 0.540848 0.071502
C20   C     C_R   0.265891 0.301458 0.459160 0.071499
C21   C     C_R   0.763074 0.866485 0.448159 0.055660
C22   C     C_R   0.236935 0.366441 0.551853 0.055661
C23   C     C_R   0.722373 0.949337 0.399406 -0.192518
C24   C     C_R   0.277641 0.449259 0.600610 -0.192516
C25   C     C_R   0.655869 0.965071 0.439889 -0.196190
C26   C     C_R   0.344145 0.464987 0.560124 -0.196191
C27   C     C_R   0.770060 0.679808 0.580566 -0.155295
C28   C     C_R   0.229938 0.179813 0.419434 -0.155297
C29   C     C_R   0.835798 0.651688 0.540848 -0.194867
C30   C     C_R   0.164198 0.151726 0.459146 -0.194862
C31   C     C_R   0.867070 0.732823 0.455655 0.134930
C32   C     C_R   0.132929 0.232855 0.544343 0.134930
C33   C     C_R   0.830990 0.837246 0.406312 0.080239
C34   C     C_R   0.169016 0.337228 0.593696 0.080241
C35   C     C_R   0.933452 0.699292 0.416528 -0.164730
C36   C     C_R   0.066543 0.199370 0.583461 -0.164728
C37   C     C_R   0.964079 0.758301 0.326400 -0.166782
C38   C     C_R   0.035918 0.258370 0.673590 -0.166791
C39   C     C_R   0.864007 0.900831 0.315694 -0.219563
C40   C     C_R   0.136003 0.400795 0.684317 -0.219560
H1    H     H_    0.625920 0.022251 0.398662 0.120405
H2    H     H_    0.374097 0.522142 0.601353 0.120405
H3    H     H_    0.839770 0.976138 0.272648 0.096239
H4    H     H_    0.160245 0.476054 0.727372 0.096228
H5    H     H_    0.014263 0.720289 0.294712 0.110073
H6    H     H_    0.985728 0.220399 0.705270 0.110062
H7    H     H_    0.861884 0.560982 0.575757 0.127137
H8    H     H_    0.138105 0.061056 0.424230 0.127139
H9    H     H_    0.530688 0.987450 0.530776 0.122319
H10   H     H_    0.469325 0.487370 0.469229 0.122317
H11   H     H_    0.482218 0.925867 0.696892 0.107006
H12   H     H_    0.517788 0.425834 0.303107 0.107002
H13   H     H_    0.739785 0.996046 0.328172 0.118514
H14   H     H_    0.260232 0.495950 0.671848 0.118513
H15   H     H_    0.747074 0.597984 0.640750 0.160962
H16   H     H_    0.252920 0.097992 0.359248 0.160962
H17   H     H_    0.960952 0.619220 0.453944 0.120009
H18   H     H_    0.039036 0.119346 0.546035 0.120009
C41   C     C_3   0.227809 0.745902 0.915673 -0.333400
C42   C     C_3   0.772189 0.245921 0.084335 -0.333406
H19   H     H_    0.207273 0.604692 0.919062 0.146034
H20   H     H_    0.792724 0.104712 0.080959 0.146030
H21   H     H_    0.224953 0.807824 0.848484 0.138953
H22   H     H_    0.775043 0.307865 0.151520 0.138954
C43   C     C_3   0.300063 0.733383 0.917003 -0.410175
C44   C     C_3   0.699935 0.233393 0.083002 -0.410171
H23   H     H_    0.332021 0.779113 0.848297 0.138148
H24   H     H_    0.667976 0.279126 0.151707 0.138143
H25   H     H_    0.312290 0.587209 0.926461 0.154480
H26   H     H_    0.687709 0.087216 0.073547 0.154480
H27   H     H_    0.178041 0.633036 0.096143 0.139506
H28   H     H_    0.821952 0.133007 0.903876 0.139511
H29   H     H_    0.282424 0.635657 0.100015 0.142478
H30   H     H_    0.717571 0.135645 0.899992 0.142475
C45   C     C_3   0.195580 0.777831 0.090513 -0.364863
C46   C     C_3   0.804418 0.277807 0.909492 -0.364860
C47   C     C_3   0.218127 0.059858 0.988664 -0.318633
C48   C     C_3   0.781876 0.559860 0.011321 -0.318624
C49   C     C_3   0.187691 0.863560 0.998844 0.087702
C50   C     C_3   0.812309 0.363559 0.001156 0.087699
H31   H     H_    0.193136 0.145607 0.050042 0.161174
H32   H     H_    0.806867 0.645590 0.949934 0.161178
H33   H     H_    0.211304 0.128405 0.925093 0.137114
H34   H     H_    0.788702 0.628428 0.074885 0.137117
C51   C     C_3   0.312759 0.853199 0.996966 0.090087
C52   C     C_3   0.687241 0.353199 0.003034 0.090087
C53   C     C_3   0.268443 0.780198 0.092008 0.187439
C54   C     C_3   0.731556 0.280185 0.907995 0.187444
C55   C     C_3   0.291385 0.052549 0.981667 -0.301280
C56   C     C_3   0.708617 0.552550 0.018326 -0.301279
H35   H     H_    0.319685 0.102926 0.911631 0.127017
H36   H     H_    0.680320 0.602931 0.088362 0.127018
H37   H     H_    0.301665 0.147869 0.034066 0.201099
H38   H     H_    0.698335 0.647867 0.965927 0.201103
H39   H     H_    0.163551 0.851281 0.151489 0.122583
H40   H     H_    0.836450 0.351234 0.848510 0.122579
O11   O     O_R   0.913210 0.208550 0.002110 -0.539518
O12   O     O_R   0.086790 0.708550 0.997890 -0.539520
O13   O     O_R   0.032060 0.539960 0.861980 -0.540599
O14   O     O_R   0.967940 0.039960 0.138020 -0.540600
C57   C     C_R   0.043689 0.372008 0.825784 0.687268
C58   C     C_R   0.956311 0.872007 0.174216 0.687267
O15   O     O_R   0.910290 0.538020 0.993280 -0.544852
O16   O     O_R   0.089710 0.038020 0.006720 -0.544853
O17   O     O_R   0.964160 0.712340 0.130090 -0.534878
O18   O     O_R   0.035840 0.212340 0.869910 -0.534875
C59   C     C_R   0.883822 0.370245 0.999354 0.655944
C60   C     C_R   0.116178 0.870246 0.000646 0.655944
O19   O     O_3   0.017820 0.379210 0.044690 -0.377071
O20   O     O_3   0.982180 0.879210 0.955310 -0.377068
V3    V     V_3+5 0.996690 0.652500 0.991710 1.399403
V4    V     V_3+5 0.003310 0.152500 0.008290 1.399401
N1    N     N_2   0.277432 0.890910 0.169490 -0.518230
H41   H     H_    0.238928 0.969694 0.206477 0.282085
C61   C     C_3   0.317618 0.817570 0.224997 -0.493524
H42   H     H_    0.338986 0.932019 0.255840 0.208760
H43   H     H_    0.358465 0.735340 0.181650 0.222596
H44   H     H_    0.287605 0.732249 0.282683 0.213866
N2    N     N_2   0.722571 0.390893 0.830509 -0.518226
H45   H     H_    0.761078 0.469665 0.793518 0.282083
C62   C     C_3   0.682382 0.317557 0.775005 -0.493523
H46   H     H_    0.661014 0.432007 0.744163 0.208759
H47   H     H_    0.641534 0.235331 0.818355 0.222595
H48   H     H_    0.712392 0.232233 0.717320 0.213864
I1    I     I_    0.698027 0.836157 0.784199 -0.568158
I2    I     I_    0.301975 0.336174 0.215807 -0.568160

loop_
_geom_bond_atom_site_label_1
_geom_bond_atom_site_label_2
_ccdc_geom_bond_type
H27   C45   S    
C3    C6    S    
O4    V2    S    
C45   C49   S    
C15   C17   A    
C21   C33   A    
O1    C3    A    
C42   H22   S    
O2    C4    A    
C2    O7    A    
O14   C58   A    
C54   N2    S    
C53   N1    S    
O5    C3    A    
C5    C11   A    
C6    C12   A    
C23   C25   A    
C50   C59   S    
O14   V4    S    
C8    C57   S    
C46   H40   S    
C24   H14   S    
C11   H11   S    
C23   H13   S    
C34   C40   A    
C37   H5    S    
C18   C26   A    
C7    C37   A    
C35   H17   S    
O19   V4    S    
C8    C38   A    
C48   C56   S    
C46   C50   S    
C16   C18   A    
C6    C14   A    
C4    C5    S    
C44   C52   S    
C62   H48   S    
C42   C44   S    
C19   C21   A    
C43   C51   S    
C22   C34   A    
C47   C49   S    
H30   C54   S    
C9    H9    S    
C14   I2    S    
C25   H1    S    
C36   C38   A    
O6    V2    S    
C47   H31   S    
C29   C31   A    
C30   C32   A    
C51   C53   S    
C32   C34   A    
C48   H32   S    
C45   C53   S    
C43   H23   S    
C55   H37   S    
C12   H12   S    
O15   V3    S    
C15   C19   A    
C38   H6    S    
C2    C51   S    
C16   C20   A    
C29   H7    S    
C42   H20   S    
O12   C60   A    
C41   H19   S    
C39   H3    S    
N2    C62   S    
C52   C56   S    
C9    C17   A    
O16   C60   A    
C20   C22   A    
C47   H33   S    
C13   I1    S    
C61   H43   S    
H29   C53   S    
C7    C39   A    
O12   V3    S    
C10   H10   S    
C44   H26   S    
C48   C50   S    
C26   H2    S    
C43   H25   S    
O6    C4    A    
C41   C49   S    
O13   C57   A    
O1    V2    S    
O18   V4    S    
C56   H36   S    
O2    V1    S    
C31   C33   A    
C46   C54   S    
O4    C2    A    
O15   C59   A    
C9    C11   A    
C62   H46   S    
C10   C12   A    
C13   C15   A    
C30   H8    S    
N2    H45   S    
C41   C43   S    
O3    V1    S    
O11   C59   A    
N1    C61   S    
O13   V3    S    
C10   C18   A    
C47   C55   S    
O10   V1    S    
C27   H15   S    
H28   C46   S    
C36   H18   S    
C28   C30   A    
O3    C1    A    
O11   V4    S    
C48   H34   S    
C35   C37   A    
C14   C16   A    
C7    C58   S    
C5    C13   A    
C24   C26   A    
O7    V1    S    
C61   H44   S    
C1    O8    A    
C8    C40   A    
C32   C36   A    
O8    V2    S    
C41   H21   S    
N1    H41   S    
C42   C50   S    
O5    V1    S    
C21   C23   A    
C22   C24   A    
C19   C27   A    
C56   H38   S    
C44   H24   S    
C20   C28   A    
O17   V3    S    
C52   C54   S    
C58   O17   A    
C57   O18   A    
C40   H4    S    
C45   H39   S    
C1    C52   S    
C27   C29   A    
C55   H35   S    
C28   H16   S    
O9    V2    S    
C17   C25   A    
C62   H47   S    
C33   C39   A    
C49   C60   S    
O20   V3    S    
O16   V4    S    
C31   C35   A    
C51   C55   S    
C61   H42   S    
