data_mof_unit_27225.cif
_audit_creation_date              2012-12-10T20:37:34-0500
_audit_creation_method            fapswitch 2.2
_symmetry_space_group_name_H-M    P1
_symmetry_Int_Tables_number       1
_space_group_crystal_system       triclinic
_cell_length_a                    15.709012
_cell_length_b                    10.752736
_cell_length_c                    9.870636
_cell_angle_alpha                 88.713591
_cell_angle_beta                  90.213151
_cell_angle_gamma                 89.896012
_cell_volume                      1666.86232594

loop_
_atom_site_label
_atom_site_type_symbol
_atom_type_description
_atom_site_fract_x
_atom_site_fract_y
_atom_site_fract_z
_atom_type_partial_charge
C1    C     C_R   0.503795 0.260352 0.501002 0.994136
C2    C     C_R   0.504204 0.128339 0.499281 -0.343858
C3    C     C_R   0.543692 0.067532 0.390894 0.422483
C4    C     C_R   0.337986 0.499719 0.499823 0.906628
C5    C     C_R   0.533724 0.938681 0.380378 0.457757
C6    C     C_R   0.492410 0.872659 0.487274 -0.325512
C7    C     C_R   0.444034 0.937322 0.580513 -0.071706
C8    C     C_3   0.433774 0.921028 0.730426 0.281939
C9    C     C_3   0.447444 0.061209 0.738798 0.365980
C10   C     C_R   0.439806 0.435122 0.072261 0.052463
C11   C     C_R   0.562680 0.557390 0.071336 -0.264596
C12   C     C_3   0.083141 0.501388 0.501950 -0.019276
C13   C     C_R   0.563403 0.557464 0.926245 0.538434
C14   C     C_R   0.441217 0.431815 0.930015 0.004854
C15   C     C_3   0.346644 0.443360 0.919688 -0.501330
C16   C     C_R   0.498512 0.740164 0.497508 0.960861
C17   C     C_3   0.345507 0.455946 0.072572 0.672012
C18   C     C_R   0.662045 0.500225 0.500210 0.913064
C19   C     C_3   0.972296 0.480322 0.626363 0.440633
C20   C     C_3   0.028598 0.389394 0.547236 -0.187275
C21   C     C_1   0.249173 0.500322 0.499826 -0.088716
C22   C     C_1   0.750910 0.500714 0.500480 -0.131945
C23   C     C_3   0.972345 0.612379 0.455583 0.314706
C24   C     C_3   0.028493 0.592023 0.583094 -0.310904
C25   C     C_3   0.374601 0.116847 0.929403 -0.176911
C26   C     C_3   0.706120 0.593813 0.892953 -0.223842
C27   C     C_3   0.002486 0.533060 0.146246 -0.086182
C28   C     C_3   0.575272 0.161661 0.184768 -0.178264
C29   C     C_3   0.521923 0.870165 0.163752 -0.245357
C30   C     C_3   0.337718 0.760751 0.761004 -0.147777
C31   C     C_3   0.917042 0.501303 0.499960 -0.053978
C32   C     C_3   0.027695 0.522212 0.376181 0.538717
C33   C     C_3   0.972059 0.410076 0.419106 -0.364545
C34   C     C_1   0.173920 0.500895 0.500731 0.107974
C35   C     C_1   0.826192 0.501090 0.500254 0.094955
C36   C     C_R   0.450615 0.063819 0.587129 0.016655
Cl1   Cl    Cl    0.314526 0.608747 0.121742 -0.574829
Cl2   Cl    Cl    0.288719 0.335602 0.160381 -0.589377
Cl3   Cl    Cl    0.932767 0.452026 0.793063 -0.657076
Cl4   Cl    Cl    0.933332 0.759287 0.395531 -0.539695
H1    H     H_    0.053808 0.299013 0.586557 0.205363
H2    H     H_    0.382983 0.019938 0.968901 0.167761
H3    H     H_    0.311610 0.148328 0.965189 0.234261
H4    H     H_    0.714646 0.491338 0.906624 0.166463
H5    H     H_    0.724535 0.642734 0.986479 0.162717
H6    H     H_    0.750499 0.624929 0.811896 0.226016
H7    H     H_    0.943760 0.587652 0.166032 0.160737
H8    H     H_    0.986818 0.433147 0.134338 0.168271
H9    H     H_    0.029201 0.567800 0.048682 0.224505
H10   H     H_    0.601911 0.253764 0.155091 0.179219
H11   H     H_    0.504643 0.169992 0.178074 0.126057
H12   H     H_    0.484712 0.866548 0.783906 0.060300
H13   H     H_    0.598921 0.094181 0.110358 0.170516
H14   H     H_    0.480565 0.953212 0.147455 0.102601
H15   H     H_    0.561953 0.860681 0.072179 0.175783
H16   H     H_    0.480327 0.787250 0.170458 0.223317
H17   H     H_    0.387603 0.710386 0.820771 0.158203
H18   H     H_    0.336238 0.730653 0.654287 0.156441
H19   H     H_    0.275108 0.737540 0.806469 0.196184
H20   H     H_    0.509181 0.089478 0.785129 0.012558
H21   H     H_    0.610417 0.608078 0.126490 0.187338
H22   H     H_    0.324699 0.527039 0.863123 0.197430
H23   H     H_    0.316590 0.357171 0.883142 0.235180
H24   H     H_    0.946949 0.336372 0.352986 0.199828
H25   H     H_    0.053231 0.665113 0.650397 0.204880
H26   H     H_    0.424587 0.177017 0.972553 0.115433
N1    N     N_R   0.499430 0.499140 0.142800 -0.123021
N2    N     N_R   0.499430 0.499180 0.857150 -0.132675
O1    O     O_R   0.500010 0.316790 0.614690 -0.611825
O2    O     O_3   0.622492 0.626268 0.852715 -0.595936
O3    O     O_3   0.064318 0.547784 0.248235 -0.553331
O4    O     O_3   0.605850 0.129093 0.315594 -0.568913
O5    O     O_3   0.576032 0.877307 0.278596 -0.562410
O6    O     O_3   0.349065 0.889782 0.765542 -0.548511
O7    O     O_R   0.500000 0.316760 0.385350 -0.598234
O8    O     O_R   0.376780 0.500010 0.614650 -0.656733
O9    O     O_R   0.376770 0.499970 0.385310 -0.537241
O10   O     O_R   0.500000 0.683240 0.614650 -0.623580
O11   O     O_R   0.499990 0.683210 0.385310 -0.582403
O12   O     O_R   0.623230 0.500030 0.614690 -0.576006
O13   O     O_R   0.623220 0.499990 0.385350 -0.618802
O14   O     O_3   0.375512 0.125559 0.786505 -0.537983
Zn1   Zn    Zn3+2 0.500010 0.500020 0.653130 0.990402
Zn2   Zn    Zn3+2 0.499990 0.499980 0.346870 1.018541

loop_
_geom_bond_atom_site_label_1
_geom_bond_atom_site_label_2
_ccdc_geom_bond_type
C27   H8    S    
C7    C36   A    
C19   C20   S    
C19   C31   S    
C25   H3    S    
C20   H1    S    
C26   H4    S    
C7    C8    S    
C10   N1    A    
C22   C35   T    
C2    C3    A    
C5    C6    A    
C30   O6    S    
C28   H11   S    
O7    Zn2   S    
C29   O5    S    
C13   O2    S    
C10   C17   S    
C27   H7    S    
C23   Cl4   S    
C30   H17   S    
C18   O13   A    
C1    C2    S    
C26   H5    S    
C28   H10   S    
O10   Zn1   S    
C8    C9    S    
C9    C36   S    
C23   C24   S    
C31   C33   S    
C8    H12   S    
C9    O14   S    
N1    Zn2   S    
C12   C32   S    
C28   O4    S    
O12   Zn1   S    
O8    Zn1   S    
C11   N1    A    
C32   O3    S    
C1    O7    A    
C10   C14   A    
C21   C34   T    
C29   H15   S    
O9    Zn2   S    
C11   H21   S    
C1    O1    A    
C23   C31   S    
O1    Zn1   S    
C30   H19   S    
C12   C20   S    
C8    O6    S    
C17   Cl1   S    
C19   Cl3   S    
C24   H25   S    
C20   C33   S    
C25   O14   S    
C26   O2    S    
C31   C35   S    
C12   C34   S    
O13   Zn2   S    
C27   O3    S    
C2    C36   A    
C15   C17   S    
C15   H23   S    
C18   C22   S    
N2    Zn1   S    
C25   H26   S    
C3    C5    A    
C25   H2    S    
C28   H13   S    
C6    C7    A    
C29   H16   S    
C12   C24   S    
C9    H20   S    
C23   C32   S    
C16   O11   A    
C3    O4    S    
C4    O9    A    
C32   C33   S    
C4    C21   S    
C11   C13   A    
O11   Zn2   S    
C33   H24   S    
C30   H18   S    
C15   H22   S    
C19   C24   S    
C16   O10   A    
C17   Cl2   S    
C5    O5    S    
C4    O8    A    
C26   H6    S    
C6    C16   S    
C18   O12   A    
C29   H14   S    
C14   N2    A    
C14   C15   S    
C27   H9    S    
C13   N2    A    
