data_mof_unit_5238.cif
_audit_creation_date              2012-12-10T19:47:58-0500
_audit_creation_method            fapswitch 2.2
_symmetry_space_group_name_H-M    P1
_symmetry_Int_Tables_number       1
_space_group_crystal_system       triclinic
_cell_length_a                    15.012729
_cell_length_b                    14.078894
_cell_length_c                    10.704917
_cell_angle_alpha                 90.001439
_cell_angle_beta                  90.004743
_cell_angle_gamma                 90.000131
_cell_volume                      2262.61929812

loop_
_atom_site_label
_atom_site_type_symbol
_atom_type_description
_atom_site_fract_x
_atom_site_fract_y
_atom_site_fract_z
_atom_type_partial_charge
C1    C     C_R   0.327626 0.499996 0.500069 0.864811
C2    C     C_R   0.672373 0.499996 0.499969 0.864827
C3    C     C_R   0.048095 0.499979 0.500410 0.118227
C4    C     C_R   0.951901 0.499944 0.500517 0.118222
C5    C     C_R   0.422404 0.104562 0.471155 -0.282261
C6    C     C_R   0.571230 0.895212 0.448048 -0.306756
C7    C     C_R   0.577595 0.104562 0.528834 -0.282263
C8    C     C_R   0.428767 0.895215 0.551942 -0.306777
C9    C     C_R   0.424051 0.204269 0.470614 -0.008826
C10   C     C_R   0.569641 0.795544 0.448315 0.000374
C11   C     C_R   0.575948 0.204270 0.529382 -0.008819
C12   C     C_R   0.430357 0.795547 0.551681 0.000329
C13   C     C_R   0.499999 0.053074 0.499993 0.137870
C14   C     C_R   0.499998 0.946674 0.499994 0.133441
C15   C     C_R   0.487346 0.499885 0.260004 0.891743
C16   C     C_R   0.512653 0.499888 0.739996 0.891722
C17   C     C_R   0.451913 0.673930 0.110346 -0.214587
C18   C     C_R   0.545662 0.324083 0.887716 -0.215395
C19   C     C_R   0.548055 0.673941 0.889670 -0.214564
C20   C     C_R   0.454368 0.324073 0.112271 -0.215396
C21   C     C_R   0.474293 0.761140 0.055320 0.193249
C22   C     C_R   0.522890 0.237000 0.942512 0.195558
C23   C     C_R   0.525664 0.761145 0.944707 0.193292
C24   C     C_R   0.477160 0.236994 0.057473 0.195552
C25   C     C_R   0.518921 0.586572 0.940597 0.047672
C26   C     C_R   0.481523 0.411797 0.059796 0.050753
C27   C     C_R   0.481059 0.586568 0.059409 0.047688
C28   C     C_R   0.518489 0.411801 0.940197 0.050760
C29   C     C_R   0.525817 0.499367 0.875521 -0.211292
C30   C     C_R   0.474180 0.499360 0.124479 -0.211309
C31   C     C_R   0.094048 0.579867 0.456888 -0.178976
C32   C     C_R   0.905923 0.420071 0.456996 -0.182909
C33   C     C_R   0.905888 0.579795 0.544032 -0.179056
C34   C     C_R   0.094133 0.420073 0.543690 -0.183006
C35   C     C_R   0.185997 0.580105 0.457438 -0.206417
C36   C     C_R   0.813983 0.419830 0.457629 -0.200286
C37   C     C_R   0.813940 0.580050 0.543170 -0.206407
C38   C     C_R   0.186071 0.419816 0.542747 -0.200213
C39   C     C_R   0.231937 0.499970 0.500051 -0.022141
C40   C     C_R   0.768060 0.499966 0.500256 -0.022142
H1    H     H_    0.409859 0.674897 0.192509 0.165499
H2    H     H_    0.585754 0.322414 0.803795 0.159244
H3    H     H_    0.590110 0.674917 0.807509 0.165511
H4    H     H_    0.414275 0.322393 0.196192 0.159248
H5    H     H_    0.058849 0.641430 0.421526 0.129269
H6    H     H_    0.941094 0.358531 0.421516 0.128557
H7    H     H_    0.941040 0.641334 0.579565 0.129263
H8    H     H_    0.059008 0.358499 0.579159 0.128547
H9    H     H_    0.221045 0.642132 0.423139 0.146911
H10   H     H_    0.778929 0.357818 0.423288 0.148327
H11   H     H_    0.778842 0.642053 0.577449 0.146906
H12   H     H_    0.221171 0.357769 0.576883 0.148356
H13   H     H_    0.361367 0.068052 0.446771 0.136778
H14   H     H_    0.627044 0.931718 0.405660 0.138491
H15   H     H_    0.638630 0.068053 0.553218 0.136787
H16   H     H_    0.372951 0.931725 0.594327 0.138508
H17   H     H_    0.364322 0.242930 0.446380 0.123896
H18   H     H_    0.624178 0.756522 0.406838 0.136824
H19   H     H_    0.635677 0.242931 0.553618 0.123909
H20   H     H_    0.375820 0.756529 0.593160 0.136819
N1    N     N_R   0.500000 0.252470 0.500000 -0.086899
N2    N     N_R   0.500000 0.747530 0.500000 -0.096616
O1    O     O_R   0.369060 0.579480 0.500010 -0.633864
O2    O     O_R   0.630940 0.420520 0.499990 -0.637789
O3    O     O_R   0.630940 0.579480 0.499990 -0.633865
O4    O     O_R   0.369060 0.420520 0.500010 -0.637808
O5    O     O_R   0.499990 0.579480 0.316780 -0.618452
O6    O     O_R   0.500010 0.420520 0.683220 -0.613218
O7    O     O_R   0.500010 0.579480 0.683220 -0.618468
O8    O     O_R   0.499990 0.420520 0.316780 -0.613218
Zn1   Zn    Zn3+2 0.500000 0.606140 0.500000 0.929109
Zn2   Zn    Zn3+2 0.500000 0.393860 0.500000 0.931483
C41   C     C_3   0.459395 0.146399 0.129472 -0.433050
C42   C     C_3   0.543302 0.114390 0.198244 -0.850104
H21   H     H_    0.599979 0.103594 0.133522 0.239371
H22   H     H_    0.563017 0.168792 0.267828 0.279718
H23   H     H_    0.530172 0.046152 0.246388 0.253184
H24   H     H_    0.405503 0.157472 0.199103 0.198841
H25   H     H_    0.436079 0.088663 0.067511 0.218453
C43   C     C_3   0.555633 0.851556 0.880677 -0.425459
C44   C     C_3   0.646623 0.883038 0.928648 -0.905131
H26   H     H_    0.643901 0.898105 0.030385 0.255924
H27   H     H_    0.696991 0.826813 0.911000 0.264030
H28   H     H_    0.667558 0.948614 0.879076 0.249509
H29   H     H_    0.560181 0.840051 0.778082 0.218052
H30   H     H_    0.506567 0.909509 0.893573 0.219523
C45   C     C_3   0.540691 0.146406 0.870522 -0.433041
C46   C     C_3   0.456794 0.114342 0.801766 -0.850147
H31   H     H_    0.400126 0.103517 0.866497 0.239368
H32   H     H_    0.437044 0.168726 0.732181 0.279726
H33   H     H_    0.469954 0.046108 0.753625 0.253198
H34   H     H_    0.594571 0.157500 0.800879 0.198834
H35   H     H_    0.564040 0.088692 0.932489 0.218441
C47   C     C_3   0.444328 0.851546 0.119370 -0.425391
C48   C     C_3   0.353380 0.883095 0.071312 -0.905159
H36   H     H_    0.356161 0.898183 0.969586 0.255898
H37   H     H_    0.302974 0.826895 0.088880 0.264048
H38   H     H_    0.332453 0.948671 0.120892 0.249503
H39   H     H_    0.439708 0.840014 0.221953 0.218045
H40   H     H_    0.493438 0.909472 0.106572 0.219483

loop_
_geom_bond_atom_site_label_1
_geom_bond_atom_site_label_2
_ccdc_geom_bond_type
C45   C46   S    
C41   C42   S    
C19   C23   A    
C48   H36   S    
C7    H15   S    
C2    O3    A    
C8    H16   S    
C44   H26   S    
C48   H38   S    
C7    C11   A    
C42   H22   S    
C9    N1    A    
C32   C36   A    
C5    H13   S    
C28   C29   A    
C10   H18   S    
C37   C40   A    
C18   H2    S    
C38   C39   A    
C37   H11   S    
C24   C41   S    
O5    Zn1   S    
C38   H12   S    
C21   C47   S    
O7    Zn1   S    
C43   H30   S    
C20   H4    S    
O4    Zn2   S    
C20   C24   A    
C19   H3    S    
C42   H23   S    
C35   H9    S    
C41   H24   S    
C16   O6    A    
C23   C43   S    
C5    C13   A    
O6    Zn2   S    
C34   C38   A    
C45   H34   S    
C27   C30   A    
C10   N2    A    
C6    H14   S    
C11   H19   S    
C1    O1    A    
C44   H27   S    
C2    O2    A    
C25   C29   A    
C42   H21   S    
C17   C27   A    
C36   C40   A    
C18   C28   A    
C3    C34   A    
C16   C29   S    
O3    Zn1   S    
C33   C37   A    
C35   C39   A    
C5    C9    A    
C43   H29   S    
C6    C14   A    
C12   N2    A    
C46   H33   S    
C47   H40   S    
C8    C12   A    
C15   O5    A    
C1    O4    A    
C41   H25   S    
C22   C45   S    
C3    C31   A    
C4    C32   A    
N1    Zn2   S    
C46   H32   S    
C26   C30   A    
C21   C23   A    
C33   H7    S    
C22   C24   A    
C34   H8    S    
C3    C4    S    
C44   H28   S    
C36   H10   S    
C15   C30   S    
C15   O8    A    
C4    C33   A    
C8    C14   A    
C18   C22   A    
C32   H6    S    
C16   O7    A    
O1    Zn1   S    
C43   C44   S    
C11   N1    A    
C6    C10   A    
C48   H37   S    
C25   C27   A    
C26   C28   A    
C20   C26   A    
C47   H39   S    
C45   H35   S    
C31   C35   A    
N2    Zn1   S    
C9    H17   S    
O2    Zn2   S    
C47   C48   S    
C19   C25   A    
C17   H1    S    
C1    C39   S    
C12   H20   S    
C2    C40   S    
C7    C13   A    
C46   H31   S    
C31   H5    S    
O8    Zn2   S    
C13   C14   S    
C17   C21   A    
