data_mof_unit_41097.cif
_audit_creation_date              2012-12-11T15:17:57-0500
_audit_creation_method            fapswitch 2.2
_symmetry_space_group_name_H-M    P1
_symmetry_Int_Tables_number       1
_space_group_crystal_system       triclinic
_cell_length_a                    15.729817
_cell_length_b                    15.72698
_cell_length_c                    34.419423
_cell_angle_alpha                 90.155014
_cell_angle_beta                  89.95987
_cell_angle_gamma                 120.036111
_cell_volume                      7371.28772053

loop_
_atom_site_label
_atom_site_type_symbol
_atom_type_description
_atom_site_fract_x
_atom_site_fract_y
_atom_site_fract_z
_atom_type_partial_charge
C1    C     C_R   0.579140 0.441166 0.555420 0.547882
C2    C     C_R   0.559030 0.138262 0.555441 0.549193
C3    C     C_R   0.862273 0.421294 0.555286 0.548001
C4    C     C_R   0.441921 0.578216 0.054716 0.552755
C5    C     C_R   0.136304 0.558267 0.054714 0.543143
C6    C     C_R   0.421859 0.863825 0.054681 0.547767
C7    C     C_R   0.944567 0.497892 0.716106 0.330344
C8    C     C_R   0.509247 0.464042 0.716243 0.327329
C9    C     C_R   0.542127 0.053555 0.716796 0.332227
C10   C     C_R   0.526322 0.041929 0.204094 0.335732
C11   C     C_R   0.506915 0.478267 0.206085 0.332621
C12   C     C_R   0.976707 0.499381 0.206782 0.327556
C13   C     C_R   0.006486 0.443487 0.849428 0.219085
C14   C     C_R   0.568345 0.565913 0.854970 0.221092
C15   C     C_R   0.432064 0.998406 0.853683 0.206156
C16   C     C_R   0.451935 0.036338 0.345915 0.244819
C17   C     C_R   0.569522 0.553937 0.349227 0.231011
C18   C     C_R   0.982347 0.429293 0.348756 0.227829
C19   C     C_R   0.046267 0.451162 0.886575 -0.004253
C20   C     C_R   0.561710 0.584056 0.894758 -0.011954
C21   C     C_R   0.409301 0.968498 0.892553 0.005801
C22   C     C_R   0.453878 0.047477 0.386623 0.023046
C23   C     C_R   0.587424 0.549662 0.389082 0.025456
C24   C     C_R   0.962580 0.412946 0.388825 0.021150
C25   C     C_R   0.045704 0.604690 0.897067 0.206632
C26   C     C_R   0.396649 0.442059 0.896821 0.213435
C27   C     C_R   0.559633 0.959975 0.897963 0.211912
C28   C     C_R   0.630197 0.106750 0.385545 0.195894
C29   C     C_R   0.460559 0.376748 0.389356 0.202830
C30   C     C_R   0.912992 0.537520 0.389135 0.202305
C31   C     C_R   0.003438 0.595774 0.860032 0.004365
C32   C     C_R   0.408075 0.415499 0.858889 0.009305
C33   C     C_R   0.586887 0.997837 0.860033 0.005339
C34   C     C_R   0.630640 0.111943 0.344810 -0.015285
C35   C     C_R   0.448476 0.379298 0.349038 0.002945
C36   C     C_R   0.925787 0.548092 0.348795 0.001282
C37   C     C_R   0.986385 0.516096 0.835776 -0.049682
C38   C     C_R   0.491592 0.481100 0.836982 -0.049650
C39   C     C_R   0.520729 0.012906 0.837115 -0.060811
C40   C     C_R   0.540464 0.074899 0.324865 -0.041192
C41   C     C_R   0.507641 0.467091 0.328155 -0.061751
C42   C     C_R   0.956606 0.490726 0.328154 -0.059252
C43   C     C_R   0.073343 0.535970 0.909663 -0.089600
C44   C     C_R   0.468929 0.532176 0.913079 -0.079061
C45   C     C_R   0.465801 0.935232 0.912605 -0.083408
C46   C     C_R   0.545087 0.089160 0.406340 -0.066924
C47   C     C_R   0.538517 0.458295 0.408490 -0.061772
C48   C     C_R   0.919294 0.461260 0.408387 -0.062695
C49   C     C_R   0.577182 0.442020 0.445435 0.598503
C50   C     C_R   0.558174 0.135781 0.445144 0.598889
C51   C     C_R   0.864964 0.422821 0.445468 0.600347
C52   C     C_R   0.443701 0.576224 0.946370 0.589600
C53   C     C_R   0.135769 0.557687 0.945091 0.562455
C54   C     C_R   0.423128 0.866660 0.946097 0.569752
C55   C     C_R   0.907895 0.450931 0.593880 0.027404
C56   C     C_R   0.550424 0.459111 0.593969 0.026471
C57   C     C_R   0.542288 0.093395 0.594214 0.026875
C58   C     C_R   0.459987 0.927052 0.089144 0.022449
C59   C     C_R   0.466274 0.541024 0.089598 0.024345
C60   C     C_R   0.075603 0.535179 0.089799 0.021775
C61   C     C_R   0.909275 0.380002 0.618128 -0.122986
C62   C     C_R   0.620837 0.536229 0.616949 -0.121527
C63   C     C_R   0.466078 0.087841 0.617367 -0.122872
C64   C     C_R   0.405834 0.966328 0.106112 -0.127072
C65   C     C_R   0.557566 0.597998 0.107908 -0.125734
C66   C     C_R   0.040122 0.444013 0.108196 -0.131471
C67   C     C_R   0.924553 0.397127 0.657843 -0.119940
C68   C     C_R   0.605487 0.539297 0.656598 -0.119658
C69   C     C_R   0.464827 0.072006 0.657151 -0.119899
C70   C     C_R   0.431685 0.010625 0.142569 -0.120650
C71   C     C_R   0.573819 0.573392 0.144904 -0.118161
C72   C     C_R   0.000624 0.429375 0.145448 -0.120047
C73   C     C_R   0.940971 0.486191 0.673815 0.039763
C74   C     C_R   0.518546 0.466879 0.673814 0.040621
C75   C     C_R   0.538306 0.059120 0.674352 0.039701
C76   C     C_R   0.511884 0.015963 0.162604 0.035380
C77   C     C_R   0.499012 0.491410 0.164147 0.036217
C78   C     C_R   0.996536 0.505902 0.164825 0.036711
C79   C     C_R   0.949055 0.560846 0.649263 -0.116183
C80   C     C_R   0.444206 0.394788 0.650460 -0.114839
C81   C     C_R   0.609560 0.055852 0.650873 -0.116641
C82   C     C_R   0.571073 0.984577 0.144052 -0.117117
C83   C     C_R   0.411249 0.429297 0.144244 -0.119022
C84   C     C_R   0.023521 0.593686 0.144934 -0.117223
C85   C     C_R   0.931658 0.542977 0.609474 -0.131997
C86   C     C_R   0.460454 0.390277 0.610752 -0.133271
C87   C     C_R   0.612126 0.073840 0.611031 -0.132867
C88   C     C_R   0.545302 0.940436 0.107572 -0.137784
C89   C     C_R   0.394955 0.454018 0.107253 -0.136432
C90   C     C_R   0.062603 0.608156 0.107656 -0.135944
C91   C     C_R   0.960732 0.513271 0.794413 0.394720
C92   C     C_R   0.496158 0.466730 0.794689 0.389445
C93   C     C_R   0.538568 0.036063 0.795180 0.387650
C94   C     C_R   0.537036 0.066334 0.282198 0.393454
C95   C     C_R   0.508053 0.469675 0.284900 0.364280
C96   C     C_R   0.962192 0.493522 0.285303 0.370368
Cr1   Cr    Cr6+3 0.522350 0.263930 0.500020 1.059685
Cr2   Cr    Cr6+3 0.736070 0.258420 0.500020 1.062311
Cr3   Cr    Cr6+3 0.741580 0.477650 0.500020 1.060920
Cr4   Cr    Cr6+3 0.263930 0.522350 0.000020 1.048860
Cr5   Cr    Cr6+3 0.258420 0.736070 0.000020 1.055416
Cr6   Cr    Cr6+3 0.477650 0.741580 0.000020 1.059655
H1    H     H_    0.891115 0.308373 0.606984 0.131302
H2    H     H_    0.690913 0.590389 0.604920 0.132902
H3    H     H_    0.411233 0.102668 0.605308 0.131538
H4    H     H_    0.340436 0.958210 0.092183 0.135422
H5    H     H_    0.614462 0.664771 0.094647 0.136007
H6    H     H_    0.048133 0.386023 0.094791 0.129888
H7    H     H_    0.931007 0.598838 0.591342 0.117469
H8    H     H_    0.405054 0.330037 0.593687 0.117661
H9    H     H_    0.671751 0.077904 0.593842 0.119242
H10   H     H_    0.589040 0.911935 0.094845 0.125791
H11   H     H_    0.324418 0.408073 0.093503 0.124901
H12   H     H_    0.088063 0.678649 0.093846 0.126446
H13   H     H_    0.920223 0.339371 0.676295 0.126724
H14   H     H_    0.663026 0.596573 0.674075 0.128242
H15   H     H_    0.407967 0.072760 0.674681 0.127523
H16   H     H_    0.385319 0.035149 0.155937 0.141384
H17   H     H_    0.642788 0.621897 0.159241 0.141889
H18   H     H_    0.979432 0.360539 0.159918 0.140131
H19   H     H_    0.962646 0.630431 0.661115 0.129052
H20   H     H_    0.376314 0.338581 0.663290 0.128864
H21   H     H_    0.666462 0.045195 0.663631 0.130013
H22   H     H_    0.634345 0.989194 0.158540 0.141485
H23   H     H_    0.352620 0.364769 0.158086 0.141118
H24   H     H_    0.019504 0.653341 0.158922 0.141868
N1    N     N_R   0.896890 0.426557 0.777366 -0.122780
N2    N     N_R   0.582885 0.491402 0.777327 -0.122046
N3    N     N_R   0.509140 0.094539 0.777966 -0.128971
N4    N     N_R   0.594023 0.036964 0.263646 -0.231468
N5    N     N_R   0.585889 0.541431 0.265374 -0.144558
N6    N     N_R   0.936867 0.410553 0.264644 -0.123144
N7    N     N_R   0.889030 0.419009 0.738934 -0.211429
N8    N     N_R   0.589329 0.490286 0.738839 -0.212403
N9    N     N_R   0.510651 0.102920 0.739519 -0.214390
N10   N     N_R   0.588791 0.024993 0.225373 -0.225466
N11   N     N_R   0.585120 0.546051 0.226798 -0.226881
N12   N     N_R   0.944456 0.413497 0.226112 -0.222604
N13   N     N_R   0.005637 0.585699 0.733071 -0.241878
N14   N     N_R   0.421839 0.436865 0.733505 -0.242478
N15   N     N_R   0.574767 0.997727 0.733938 -0.242946
N16   N     N_R   0.469677 0.072074 0.222623 -0.227654
N17   N     N_R   0.430490 0.404924 0.225457 -0.230843
N18   N     N_R   0.000966 0.581958 0.227458 -0.231446
N19   N     N_R   0.014254 0.592947 0.771583 -0.245386
N20   N     N_R   0.415703 0.439099 0.772035 -0.241714
N21   N     N_R   0.572130 0.988538 0.772412 -0.241027
N22   N     N_R   0.475173 0.084419 0.260988 -0.135041
N23   N     N_R   0.431407 0.400668 0.263974 -0.200085
N24   N     N_R   0.993806 0.579007 0.265926 -0.210947
O1    O     O_R   0.498680 0.159540 0.541860 -0.517640
O2    O     O_R   0.840460 0.339140 0.541860 -0.515918
O3    O     O_R   0.660860 0.501320 0.541860 -0.516612
O4    O     O_R   0.159540 0.498680 0.041860 -0.527486
O5    O     O_R   0.339140 0.840460 0.041860 -0.516396
O6    O     O_R   0.501320 0.660860 0.041860 -0.512064
O7    O     O_R   0.532760 0.358060 0.540030 -0.519167
O8    O     O_R   0.641940 0.174700 0.540030 -0.517110
O9    O     O_R   0.825300 0.467240 0.540030 -0.519141
O10   O     O_R   0.358060 0.532760 0.040030 -0.517027
O11   O     O_R   0.174700 0.641940 0.040030 -0.515416
O12   O     O_R   0.467240 0.825300 0.040030 -0.517927
O13   O     O_R   0.498590 0.161190 0.456930 -0.457357
O14   O     O_R   0.838810 0.337400 0.456930 -0.454843
O15   O     O_R   0.662600 0.501410 0.456930 -0.456248
O16   O     O_R   0.161190 0.498590 0.956930 -0.482278
O17   O     O_R   0.337400 0.838810 0.956930 -0.472504
O18   O     O_R   0.501410 0.662600 0.956930 -0.473661
O19   O     O_R   0.532680 0.359580 0.461300 -0.462023
O20   O     O_R   0.640420 0.173100 0.461300 -0.463310
O21   O     O_R   0.826900 0.467320 0.461300 -0.461821
O22   O     O_R   0.359580 0.532680 0.961300 -0.451524
O23   O     O_R   0.173100 0.640420 0.961300 -0.455073
O24   O     O_R   0.467320 0.826900 0.961300 -0.469481
O25   O     O_3   0.666667 0.333333 0.499990 -0.268282
O26   O     O_3   0.333333 0.666667 0.999990 -0.264127
C97   C     C_2   0.061339 0.369753 0.899077 0.632563
O27   O     O_2   0.143918 0.380933 0.899650 -0.435058
O28   O     O_R   0.980106 0.278124 0.907333 -0.691152
H25   H     H_    0.999358 0.227612 0.914639 0.327085
C98   C     C_2   0.652340 0.649857 0.917579 0.626196
O29   O     O_2   0.655386 0.635012 0.952290 -0.532959
O30   O     O_R   0.735971 0.724697 0.899538 -0.654760
H26   H     H_    0.792543 0.761933 0.918286 0.330602
C99   C     C_2   0.329937 0.977631 0.912343 0.648609
O31   O     O_2   0.343585 0.011815 0.945212 -0.540139
O32   O     O_R   0.241001 0.949578 0.893511 -0.640270
H27   H     H_    0.193751 0.959869 0.910204 0.335404
C100  C     C_2   0.360194 0.013976 0.407925 0.612652
O33   O     O_2   0.347450 0.974099 0.439553 -0.557721
O34   O     O_R   0.286110 0.027031 0.391628 -0.631107
H28   H     H_    0.225863 0.000846 0.408826 0.317957
C101  C     C_2   0.655971 0.642020 0.409871 0.625134
O35   O     O_2   0.635967 0.657285 0.442559 -0.554184
O36   O     O_R   0.742399 0.712329 0.391795 -0.629861
H29   H     H_    0.782356 0.772208 0.408757 0.314259
C102  C     C_2   0.990329 0.347814 0.409813 0.619842
O37   O     O_2   0.023039 0.368515 0.442866 -0.554883
O38   O     O_R   0.981255 0.264101 0.391576 -0.626546
H30   H     H_    0.003457 0.226596 0.408757 0.317156
O39   O     O_3   0.988624 0.364359 0.825935 -0.503375
C103  C     C_3   0.074250 0.388363 0.804285 0.025314
H31   H     H_    0.136746 0.403735 0.823810 0.175946
H32   H     H_    0.095853 0.453934 0.785699 0.127627
C104  C     C_3   0.053685 0.301617 0.778063 -0.239778
H33   H     H_    0.032057 0.235525 0.796225 0.195584
H34   H     H_    0.991886 0.285961 0.758139 0.194151
C105  C     C_3   0.143795 0.322940 0.754045 -0.469454
H35   H     H_    0.165902 0.387943 0.735200 0.158380
H36   H     H_    0.126441 0.258646 0.735321 0.151661
H37   H     H_    0.205904 0.336956 0.773421 0.206426
O40   O     O_3   0.650496 0.629540 0.833496 -0.488088
C106  C     C_3   0.648164 0.716664 0.824969 0.064203
H38   H     H_    0.725431 0.777355 0.822463 0.200443
H39   H     H_    0.613956 0.738827 0.848393 0.167368
C107  C     C_3   0.596276 0.707590 0.786262 -0.306672
H40   H     H_    0.632231 0.688330 0.762778 0.197627
H41   H     H_    0.518096 0.649134 0.788345 0.164931
C108  C     C_3   0.599641 0.803302 0.775932 -0.441188
H42   H     H_    0.561689 0.822052 0.798736 0.179943
H43   H     H_    0.561743 0.794736 0.747768 0.171290
H44   H     H_    0.676862 0.863966 0.773290 0.181310
O41   O     O_3   0.368224 0.016199 0.832167 -0.496944
C109  C     C_3   0.302846 0.929599 0.811665 0.049792
H45   H     H_    0.260279 0.867378 0.831989 0.183368
H46   H     H_    0.343268 0.907962 0.791017 0.117757
C110  C     C_3   0.231172 0.948581 0.788541 -0.232751
H47   H     H_    0.188170 0.967513 0.808878 0.205402
H48   H     H_    0.273018 0.011735 0.768667 0.195516
C111  C     C_3   0.160738 0.858794 0.764630 -0.465829
H49   H     H_    0.202069 0.840177 0.743340 0.157018
H50   H     H_    0.109037 0.874564 0.748548 0.156430
H51   H     H_    0.117746 0.794969 0.783947 0.207324
O42   O     O_3   0.363377 0.988901 0.326127 -0.517857
C112  C     C_3   0.320975 0.885882 0.330049 0.016953
H52   H     H_    0.259078 0.859000 0.351009 0.169921
H53   H     H_    0.373014 0.862260 0.340792 0.090064
C113  C     C_3   0.281298 0.837217 0.290641 -0.237822
H54   H     H_    0.227391 0.857578 0.279722 0.211863
H55   H     H_    0.342910 0.863760 0.269553 0.177412
C114  C     C_3   0.231588 0.725726 0.293611 -0.471999
H56   H     H_    0.284144 0.704160 0.304938 0.119172
H57   H     H_    0.206279 0.692326 0.264419 0.182670
H58   H     H_    0.167214 0.697262 0.313353 0.168632
O43   O     O_3   0.615119 0.643943 0.330683 -0.510972
C115  C     C_3   0.553184 0.684853 0.332989 0.013445
H59   H     H_    0.522210 0.678167 0.362776 0.112536
H60   H     H_    0.491736 0.647428 0.311849 0.128072
C116  C     C_3   0.612853 0.793809 0.322996 -0.224979
H61   H     H_    0.676695 0.830625 0.343043 0.190578
H62   H     H_    0.640927 0.802453 0.292771 0.197141
C117  C     C_3   0.551080 0.843303 0.326704 -0.494320
H63   H     H_    0.488590 0.810270 0.305951 0.155040
H64   H     H_    0.597639 0.922391 0.320055 0.173105
H65   H     H_    0.522725 0.836167 0.356800 0.127203
O44   O     O_3   0.024658 0.382796 0.329184 -0.514307
C118  C     C_3   0.127321 0.446989 0.327324 0.011301
H66   H     H_    0.161772 0.441818 0.354776 0.144327
H67   H     H_    0.147386 0.525098 0.322824 0.102265
C119  C     C_3   0.168390 0.416492 0.293239 -0.226233
H68   H     H_    0.153251 0.340179 0.297702 0.221276
H69   H     H_    0.131403 0.418423 0.266014 0.186881
C120  C     C_3   0.278749 0.485053 0.288911 -0.464171
H70   H     H_    0.296013 0.562190 0.285436 0.126810
H71   H     H_    0.304617 0.464192 0.262554 0.196256
H72   H     H_    0.318115 0.479604 0.314717 0.151607
O45   O     O_3   0.064190 0.684073 0.920325 -0.493599
C121  C     C_3   0.983525 0.655882 0.945492 0.039482
H73   H     H_    0.971516 0.592683 0.963978 0.115599
H74   H     H_    0.915465 0.635199 0.928553 0.153171
C122  C     C_3   0.004911 0.742545 0.971917 -0.244953
H75   H     H_    0.073152 0.764374 0.988749 0.177615
H76   H     H_    0.016530 0.806002 0.953859 0.183252
C123  C     C_3   0.920509 0.716500 0.000114 -0.486159
H77   H     H_    0.851764 0.695718 0.983895 0.190189
H78   H     H_    0.938198 0.781027 0.018751 0.148283
H79   H     H_    0.909054 0.654524 0.019041 0.152618
O46   O     O_3   0.312844 0.380595 0.917609 -0.465916
C124  C     C_3   0.333320 0.321672 0.942376 0.042397
H80   H     H_    0.393294 0.368007 0.963176 0.121301
H81   H     H_    0.355029 0.275479 0.925105 0.148973
C125  C     C_3   0.240832 0.254296 0.965507 -0.239507
H82   H     H_    0.218468 0.299639 0.982836 0.174871
H83   H     H_    0.180222 0.207906 0.945101 0.190509
C126  C     C_3   0.257892 0.188027 0.992827 -0.488163
H84   H     H_    0.278604 0.140759 0.976011 0.196636
H85   H     H_    0.189413 0.140139 0.009160 0.144951
H86   H     H_    0.317105 0.232954 0.013942 0.152891
O47   O     O_3   0.624431 0.943934 0.919824 -0.502869
C127  C     C_3   0.661749 0.011081 0.951379 0.027751
H87   H     H_    0.687572 0.978525 0.973817 0.151556
H88   H     H_    0.605007 0.023037 0.965714 0.118115
C128  C     C_3   0.748911 0.109809 0.938813 -0.247196
H89   H     H_    0.806128 0.097487 0.925386 0.214521
H90   H     H_    0.724294 0.144815 0.916972 0.187115
C129  C     C_3   0.792911 0.179235 0.973470 -0.469830
H91   H     H_    0.736257 0.191208 0.987634 0.148492
H92   H     H_    0.853559 0.251349 0.963568 0.198728
H93   H     H_    0.822534 0.148224 0.994997 0.141940
O48   O     O_3   0.716834 0.132573 0.405091 -0.494194
C130  C     C_3   0.727717 0.048680 0.408567 0.052754
H94   H     H_    0.807445 0.074916 0.411309 0.190447
H95   H     H_    0.701988 0.000439 0.382298 0.135678
C131  C     C_3   0.675841 0.989030 0.444927 -0.298704
H96   H     H_    0.705940 0.036396 0.471113 0.178951
H97   H     H_    0.595912 0.962445 0.443158 0.157190
C132  C     C_3   0.689933 0.900241 0.448935 -0.467271
H98   H     H_    0.658293 0.850922 0.423356 0.171813
H99   H     H_    0.651960 0.858546 0.475493 0.179109
H100  H     H_    0.769233 0.924232 0.451330 0.146374
O49   O     O_3   0.402822 0.289641 0.409168 -0.503664
C133  C     C_3   0.310807 0.280725 0.418265 0.030220
H101  H     H_    0.254993 0.201262 0.417821 0.177827
H102  H     H_    0.285899 0.316546 0.396655 0.129226
C134  C     C_3   0.312888 0.321193 0.458994 -0.283110
H103  H     H_    0.333197 0.281915 0.480574 0.181663
H104  H     H_    0.368733 0.400602 0.460099 0.159274
C135  C     C_3   0.213117 0.308579 0.469786 -0.471571
H105  H     H_    0.192464 0.349083 0.448988 0.186535
H106  H     H_    0.216781 0.338306 0.499421 0.162187
H107  H     H_    0.155888 0.229594 0.469446 0.147630
O50   O     O_3   0.882287 0.594426 0.408873 -0.503666
C136  C     C_3   0.964294 0.688040 0.417104 0.032039
H108  H     H_    0.938367 0.742026 0.417114 0.176666
H109  H     H_    0.023509 0.713784 0.394734 0.129553
C137  C     C_3   0.006429 0.688913 0.457307 -0.283258
H110  H     H_    0.948156 0.667716 0.479621 0.181250
H111  H     H_    0.032354 0.634930 0.457980 0.159512
C138  C     C_3   0.092438 0.790379 0.467164 -0.473048
H112  H     H_    0.152300 0.812094 0.445576 0.184687
H113  H     H_    0.121367 0.788810 0.496408 0.163690
H114  H     H_    0.068301 0.845767 0.467302 0.145826
C139  C     C_2   0.976958 0.670113 0.847308 0.595756
O51   O     O_2   0.903559 0.645177 0.827535 -0.468520
O52   O     O_R   0.035251 0.768514 0.858341 -0.653636
H115  H     H_    0.009517 0.811657 0.847982 0.332934
C140  C     C_2   0.332158 0.319049 0.842722 0.603341
O53   O     O_2   0.356650 0.270819 0.822524 -0.483517
O54   O     O_R   0.232822 0.282632 0.851026 -0.642885
H116  H     H_    0.188618 0.216485 0.838419 0.325857
C141  C     C_2   0.685583 0.022715 0.845168 0.603519
O55   O     O_2   0.733430 0.096842 0.825775 -0.472760
O56   O     O_R   0.724565 0.962257 0.853899 -0.672688
H117  H     H_    0.792126 0.987062 0.842244 0.329404
C142  C     C_2   0.726292 0.164505 0.323849 0.635090
O57   O     O_2   0.737622 0.222700 0.298088 -0.458247
O58   O     O_R   0.803724 0.149200 0.333750 -0.654687
H118  H     H_    0.864389 0.189490 0.317322 0.383723
C143  C     C_2   0.377410 0.286424 0.329731 0.642597
O59   O     O_2   0.297972 0.274168 0.318952 -0.528714
O60   O     O_R   0.400438 0.212014 0.325049 -0.608727
H119  H     H_    0.345971 0.151916 0.311657 0.382803
C144  C     C_2   0.896723 0.612805 0.328810 0.645243
O61   O     O_2   0.959377 0.695194 0.318699 -0.511397
O62   O     O_R   0.797235 0.580178 0.322766 -0.619165
H120  H     H_    0.786187 0.631033 0.309250 0.380406

loop_
_geom_bond_atom_site_label_1
_geom_bond_atom_site_label_2
_ccdc_geom_bond_type
C127  C128  S    
C6    C58   S    
C36   C42   A    
O41   C109  S    
C107  C108  S    
C26   O46   S    
C54   O17   A    
C140  O53   D    
C7    C73   S    
Cr2   O2    S    
C139  O51   D    
C79   H19   S    
C125  H82   S    
C91   N1    A    
C86   H8    S    
C1    C56   S    
C7    N7    A    
Cr5   O5    S    
C122  H75   S    
C38   C92   S    
C123  H77   S    
C102  O38   S    
C80   C86   A    
C131  C132  S    
C66   C72   A    
C137  H110  S    
C63   H3    S    
C21   C45   A    
C6    O5    A    
C138  H112  S    
C104  H34   S    
O38   H30   S    
O43   C115  S    
C94   N22   A    
C82   H22   S    
C25   O45   S    
C98   O30   S    
C84   H24   S    
C113  H55   S    
C116  H62   S    
C103  H31   S    
O34   H28   S    
C18   O44   S    
C98   O29   D    
C92   N20   A    
C31   C37   A    
C5    O11   A    
O30   H26   S    
C14   C38   A    
C56   C86   A    
C110  H47   S    
C96   N24   A    
C137  C138  S    
C8    C74   S    
C51   O14   A    
C111  H50   S    
C15   C39   A    
C16   C40   A    
C129  H91   S    
C121  H74   S    
C56   C62   A    
C79   C85   A    
O48   C130  S    
C130  C131  S    
C120  H71   S    
Cr6   O18   S    
C135  H107  S    
C58   C88   A    
C64   H4    S    
C60   C90   A    
C29   C35   A    
C30   C36   A    
C8    N14   A    
C54   O24   A    
C126  H85   S    
Cr2   O25   S    
C35   C143  S    
N15   N21   A    
O36   H29   S    
C57   C87   A    
C53   O16   A    
N17   N23   A    
O40   C106  S    
C101  O35   D    
C114  H57   S    
C11   N17   A    
C117  H63   S    
Cr3   O15   S    
C25   C31   A    
C26   C32   A    
C143  O59   D    
Cr1   O25   S    
Cr3   O9    S    
Cr4   O22   S    
Cr5   O23   S    
O60   H119  S    
C25   C43   A    
C2    C57   S    
C53   O23   A    
C27   C33   A    
C90   H12   S    
C28   C46   A    
C116  H61   S    
C94   N4    A    
C29   C47   A    
C18   C24   A    
C30   C48   A    
C107  H41   S    
C18   C42   A    
C99   O32   S    
C68   C74   A    
C133  H101  S    
C114  H56   S    
C59   C89   A    
C100  O34   S    
C135  H106  S    
C11   C77   S    
N3    N9    A    
C3    C55   S    
C129  H93   S    
C63   C69   A    
C97   O28   S    
C69   C75   A    
C19   C97   S    
C44   C52   S    
C124  H81   S    
C3    O9    A    
C138  H113  S    
C100  O33   D    
C84   C90   A    
C20   C44   A    
C57   C63   A    
C62   H2    S    
C141  O56   S    
C58   C64   A    
C83   C89   A    
C23   C47   A    
C8    N8    A    
C24   C48   A    
C76   C82   A    
O52   H115  S    
C136  H109  S    
C128  H89   S    
N2    N8    A    
C61   C67   A    
C17   O43   S    
C124  H80   S    
C72   H18   S    
O47   C127  S    
C73   C79   A    
C117  H65   S    
C9    N9    A    
C110  H48   S    
C112  C113  S    
C12   N12   A    
Cr6   O6    S    
C91   N19   A    
Cr4   O4    S    
O62   H120  S    
C115  H59   S    
C134  C135  S    
C5    C60   S    
C40   C94   S    
C119  H68   S    
O45   C121  S    
C36   C144  S    
C125  H83   S    
C133  C134  S    
C114  H58   S    
C106  H39   S    
C59   C65   A    
C108  H44   S    
C70   H16   S    
C82   C88   A    
C55   C61   A    
C129  H92   S    
C123  H78   S    
C62   C68   A    
C102  O37   D    
C35   C41   A    
C28   C34   A    
Cr2   O20   S    
Cr3   O25   S    
C125  C126  S    
O46   C124  S    
C137  H111  S    
C65   H5    S    
C20   C98   S    
C115  C116  S    
C122  C123  S    
C123  H79   S    
C71   C77   A    
O49   C133  S    
C109  H45   S    
C144  O61   D    
C120  H70   S    
C80   H20   S    
C106  H38   S    
C113  C114  S    
C3    O2    A    
C30   O50   S    
C103  H32   S    
C42   C96   S    
C61   H1    S    
C128  C129  S    
C85   H7    S    
C87   H9    S    
N6    N12   A    
C5    O4    A    
C127  H87   S    
C10   N16   A    
C39   C93   S    
C144  O62   S    
C43   C53   S    
Cr2   O8    S    
C105  H35   S    
Cr1   O13   S    
C103  C104  S    
Cr4   O26   S    
C112  H52   S    
C67   C73   A    
C142  O58   S    
C27   C45   A    
C130  H95   S    
O50   C136  S    
C60   C66   A    
C134  H103  S    
C74   C80   A    
C95   N5    A    
C52   O22   A    
C83   H23   S    
C119  C120  S    
C93   N3    A    
C140  O54   S    
C19   C43   A    
C89   H11   S    
C139  O52   S    
C13   C19   A    
C26   C44   A    
C132  H98   S    
C14   C20   A    
N14   N20   A    
C108  H42   S    
C141  O55   D    
C136  H108  S    
C55   C85   A    
C49   O15   A    
C126  H84   S    
N5    N11   A    
O54   H116  S    
C16   O42   S    
C2    O8    A    
C23   C101  S    
Cr1   O1    S    
C50   O20   A    
C17   C23   A    
C27   O47   S    
C22   C100  S    
C1    O3    A    
C32   C140  S    
C81   C87   A    
C22   C46   A    
C81   H21   S    
C24   C102  S    
O42   C112  S    
C109  C110  S    
O58   H118  S    
C117  H64   S    
C106  C107  S    
C2    O1    A    
C33   C141  S    
C113  H54   S    
C16   C22   A    
C50   O13   A    
C130  H94   S    
N1    N7    A    
C66   H6    S    
C21   C99   S    
C14   O40   S    
C118  C119  S    
C11   N11   A    
O32   H27   S    
C49   O19   A    
C99   O31   D    
C41   C95   S    
C105  H37   S    
Cr3   O3    S    
C51   O21   A    
C133  H102  S    
C31   C139  S    
C15   O41   S    
C111  H49   S    
O28   H25   S    
C88   H10   S    
C121  H73   S    
C97   O27   D    
C29   O49   S    
C120  H72   S    
O56   H117  S    
O39   C103  S    
C47   C49   S    
C104  H33   S    
C132  H100  S    
C33   C39   A    
C34   C40   A    
C10   N10   A    
C118  H66   S    
C126  H86   S    
Cr3   O21   S    
C77   C83   A    
Cr6   O26   S    
Cr1   O19   S    
C111  H51   S    
Cr4   O16   S    
C124  C125  S    
C69   H15   S    
Cr5   O17   S    
C67   H13   S    
C10   C76   S    
C48   C51   S    
C6    O12   A    
C13   O39   S    
C101  O36   S    
C12   C78   S    
N18   N24   A    
C95   N23   A    
C64   C70   A    
C13   C37   A    
Cr6   O12   S    
C96   N6    A    
C34   C142  S    
Cr5   O11   S    
C143  O60   S    
C112  H53   S    
C92   N2    A    
C115  H60   S    
C134  H104  S    
C37   C91   S    
N16   N22   A    
C107  H40   S    
C119  H69   S    
C9    N15   A    
C75   C81   A    
C65   C71   A    
C12   N18   A    
C118  H67   S    
Cr1   O7    S    
C135  H105  S    
C108  H43   S    
Cr4   O10   S    
C121  C122  S    
O44   C118  S    
C131  H96   S    
C68   H14   S    
C45   C54   S    
C32   C38   A    
C71   H17   S    
C70   C76   A    
C138  H114  S    
C104  C105  S    
C122  H76   S    
N13   N19   A    
C4    O6    A    
N4    N10   A    
C109  H46   S    
Cr2   O14   S    
Cr6   O24   S    
C46   C50   S    
C136  C137  S    
C1    O7    A    
C132  H99   S    
C128  H90   S    
C52   O18   A    
C7    N13   A    
C4    O10   A    
C4    C59   S    
C131  H97   S    
C28   O48   S    
C93   N21   A    
C127  H88   S    
C17   C41   A    
C116  C117  S    
C78   C84   A    
C15   C21   A    
C110  C111  S    
C105  H36   S    
C72   C78   A    
Cr5   O26   S    
C9    C75   S    
C142  O57   D    
