data_mof_unit_52915.cif
_audit_creation_date              2012-12-11T16:28:32-0500
_audit_creation_method            fapswitch 2.2
_symmetry_space_group_name_H-M    P1
_symmetry_Int_Tables_number       1
_space_group_crystal_system       triclinic
_cell_length_a                    16.578709
_cell_length_b                    7.254507
_cell_length_c                    15.209661
_cell_angle_alpha                 90.05274
_cell_angle_beta                  94.75248
_cell_angle_gamma                 89.940032
_cell_volume                      1822.98058847

loop_
_atom_site_label
_atom_site_type_symbol
_atom_type_description
_atom_site_fract_x
_atom_site_fract_y
_atom_site_fract_z
_atom_type_partial_charge
O1    O     O_R   0.663460 0.361760 0.165970 -0.533682
O2    O     O_R   0.336540 0.638240 0.834030 -0.533682
O3    O     O_R   0.836540 0.861760 0.334030 -0.532268
O4    O     O_R   0.163460 0.138240 0.665970 -0.532268
O5    O     O_R   0.827100 0.689870 0.163730 -0.532714
O6    O     O_R   0.172900 0.310130 0.836270 -0.532713
O7    O     O_R   0.672900 0.189870 0.336270 -0.532806
O8    O     O_R   0.327100 0.810130 0.663730 -0.532806
H1    H     H_    0.211158 0.055929 0.499118 0.114513
H2    H     H_    0.788842 0.944070 0.500882 0.114513
H3    H     H_    0.293465 0.622477 0.992657 0.124541
H4    H     H_    0.706535 0.377523 0.007343 0.124541
C1    C     C_R   0.853251 0.522833 0.143554 0.708823
C2    C     C_R   0.146749 0.477167 0.856446 0.708823
C3    C     C_R   0.646711 0.023016 0.356419 0.706142
C4    C     C_R   0.353289 0.976984 0.643581 0.706141
O9    O     O_R   0.663490 0.691370 0.155500 -0.536164
O10   O     O_R   0.336510 0.308630 0.844500 -0.536164
O11   O     O_R   0.836510 0.191370 0.344500 -0.535361
O12   O     O_R   0.163490 0.808630 0.655500 -0.535361
O13   O     O_R   0.671770 0.863320 0.325740 -0.534952
O14   O     O_R   0.328230 0.136680 0.674260 -0.534952
O15   O     O_R   0.828230 0.363320 0.174260 -0.534189
O16   O     O_R   0.171770 0.636680 0.825740 -0.534188
C5    C     C_R   0.636196 0.522897 0.133714 0.671039
C6    C     C_R   0.363804 0.477103 0.866286 0.671039
C7    C     C_R   0.863829 0.022883 0.366237 0.673336
C8    C     C_R   0.136171 0.977117 0.633763 0.673335
H5    H     H_    0.115956 0.157701 0.233665 0.128877
H6    H     H_    0.884044 0.842299 0.766335 0.128878
H7    H     H_    0.393876 0.783882 0.248864 0.132090
H8    H     H_    0.606124 0.216117 0.751136 0.132090
O17   O     O_3   0.752910 0.528800 0.305860 -0.372912
O18   O     O_3   0.247090 0.471200 0.694140 -0.372912
O19   O     O_3   0.747090 0.028800 0.194140 -0.372724
O20   O     O_3   0.252910 0.971200 0.805860 -0.372724
V1    V     V_3+5 0.749460 0.803010 0.239640 1.446147
V2    V     V_3+5 0.250540 0.196990 0.760360 1.446147
V3    V     V_3+5 0.750540 0.303010 0.260360 1.446441
V4    V     V_3+5 0.249460 0.696990 0.739640 1.446441
C9    C     C_1   0.468824 0.994692 0.530114 0.031380
C10   C     C_1   0.531176 0.005308 0.469886 0.031380
C11   C     C_1   0.031188 0.494905 0.969890 0.026463
C12   C     C_1   0.968812 0.505095 0.030110 0.026463
C13   C     C_R   0.028200 0.092367 0.324384 -0.186077
C14   C     C_R   0.971800 0.907633 0.675616 -0.186077
C15   C     C_R   0.477018 0.659263 0.166230 -0.188690
C16   C     C_R   0.522981 0.340737 0.833770 -0.188690
C17   C     C_R   0.106654 0.123588 0.301391 -0.204004
C18   C     C_R   0.893346 0.876412 0.698609 -0.204004
C19   C     C_R   0.401174 0.724406 0.184655 -0.209947
C20   C     C_R   0.598826 0.275594 0.815345 -0.209947
C21   C     C_R   0.172557 0.110326 0.365001 0.400310
C22   C     C_R   0.827443 0.889674 0.634999 0.400310
C23   C     C_R   0.335181 0.711531 0.121252 0.403882
C24   C     C_R   0.664819 0.288469 0.878748 0.403882
C25   C     C_R   0.158860 0.065927 0.451806 -0.131741
C26   C     C_R   0.841140 0.934073 0.548194 -0.131741
C27   C     C_R   0.346185 0.632969 0.039293 -0.135584
C28   C     C_R   0.653815 0.367031 0.960707 -0.135585
C29   C     C_R   0.079811 0.033769 0.476953 -0.008295
C30   C     C_R   0.920189 0.966231 0.523047 -0.008295
C31   C     C_R   0.422845 0.567783 0.018369 -0.008221
C32   C     C_R   0.577155 0.432217 0.981631 -0.008221
C33   C     C_R   0.013123 0.047046 0.411902 0.069014
C34   C     C_R   0.986877 0.952954 0.588098 0.069013
C35   C     C_R   0.489651 0.581060 0.083223 0.072031
C36   C     C_R   0.510349 0.418940 0.916777 0.072031
C37   C     C_R   0.066760 0.986853 0.565162 -0.133702
C38   C     C_R   0.933240 0.013147 0.434838 -0.133702
C39   C     C_R   0.433119 0.486844 0.935009 -0.136987
C40   C     C_R   0.566881 0.513156 0.064991 -0.136987
C41   C     C_1   0.416004 0.986025 0.581461 -0.167814
C42   C     C_1   0.583996 0.013975 0.418539 -0.167814
C43   C     C_1   0.084026 0.486458 0.918551 -0.168202
C44   C     C_1   0.915974 0.513541 0.081449 -0.168202
H9    H     H_    0.979595 0.103568 0.272597 0.125673
H10   H     H_    0.020405 0.896432 0.727403 0.125673
H11   H     H_    0.525334 0.670069 0.218277 0.132496
H12   H     H_    0.474666 0.329931 0.781724 0.132496
O21   O     O_3   0.748941 0.860665 0.655504 -0.649086
H13   H     H_    0.749389 0.831216 0.719217 0.286905
O22   O     O_3   0.251059 0.139335 0.344496 -0.649086
H14   H     H_    0.250611 0.168784 0.280783 0.286905
O23   O     O_3   0.740946 0.226841 0.862546 -0.646562
H15   H     H_    0.738754 0.175397 0.801945 0.292579
O24   O     O_3   0.259054 0.773159 0.137454 -0.646561
H16   H     H_    0.261246 0.824603 0.198055 0.292578

loop_
_geom_bond_atom_site_label_1
_geom_bond_atom_site_label_2
_ccdc_geom_bond_type
C26   C30   A    
O24   H16   S    
C23   C27   A    
C9    C10   S    
C8    C37   S    
O10   C6    A    
C15   H11   S    
O21   H13   S    
H5    C17   S    
O23   H15   S    
C30   C38   A    
C18   C22   A    
O18   V4    S    
C32   C36   A    
O19   V1    S    
C14   C34   A    
O5    V1    S    
O12   V4    S    
C17   C21   A    
C34   C37   A    
C33   C38   A    
O14   V2    S    
C1    O15   A    
C35   C40   A    
C2    O16   A    
C12   C44   T    
H8    C20   S    
O17   V3    S    
O6    V2    S    
O11   C7    A    
O5    C1    A    
O7    C3    A    
H6    C18   S    
O8    C4    A    
O1    C5    A    
C6    C39   S    
H3    C27   S    
C15   C35   A    
O4    C8    A    
C11   C43   T    
C31   C35   A    
C10   C42   T    
C30   C34   A    
C4    C41   S    
H7    C19   S    
C14   H10   S    
C21   C25   A    
C15   C19   A    
O12   C8    A    
C19   C23   A    
C24   C28   A    
C11   C12   S    
O2    V4    S    
O6    C2    A    
O22   H14   S    
C1    C44   S    
C13   C17   A    
O2    C6    A    
C5    C40   S    
O9    V1    S    
C16   C36   A    
C7    C38   S    
O11   V3    S    
O4    V2    S    
C13   C33   A    
C22   C26   A    
C29   C37   A    
C4    O14   A    
H2    C26   S    
C31   C39   A    
C25   C29   A    
C14   C18   A    
C27   C31   A    
C28   C32   A    
C21   O22   S    
O9    C5    A    
C2    C43   S    
C16   H12   S    
O20   V2    S    
O10   V2    S    
C24   O23   S    
C3    O13   A    
C36   C39   A    
O15   V3    S    
O3    C7    A    
O16   V4    S    
H1    C25   S    
C32   C40   A    
C23   O24   S    
O1    V3    S    
C9    C41   T    
H4    C28   S    
C29   C33   A    
C16   C20   A    
C3    C42   S    
O13   V1    S    
O3    V1    S    
O7    V3    S    
C13   H9    S    
O8    V4    S    
C22   O21   S    
C20   C24   A    
