data_mof_unit_60108.cif
_audit_creation_date              2012-12-10T17:55:20-0500
_audit_creation_method            fapswitch 2.2
_symmetry_space_group_name_H-M    P1
_symmetry_Int_Tables_number       1
_space_group_crystal_system       triclinic
_cell_length_a                    19.068466
_cell_length_b                    18.665318
_cell_length_c                    18.887456
_cell_angle_alpha                 109.353206
_cell_angle_beta                  109.796473
_cell_angle_gamma                 109.586675
_cell_volume                      5154.13944984

loop_
_atom_site_label
_atom_site_type_symbol
_atom_type_description
_atom_site_fract_x
_atom_site_fract_y
_atom_site_fract_z
_atom_type_partial_charge
C1    C     C_R   0.379305 0.380900 0.497636 0.810214
C2    C     C_R   0.750452 0.579909 0.767919 0.067919
C3    C     C_R   0.817852 0.502328 0.815783 -0.140468
C4    C     C_R   0.764234 0.427739 0.732389 0.049603
C5    C     C_R   0.690340 0.421255 0.673002 0.027935
C6    C     C_R   0.685894 0.499565 0.687858 -0.181857
C7    C     C_R   0.781562 0.358102 0.707844 -0.145169
C8    C     C_R   0.722881 0.280660 0.628585 -0.163366
C9    C     C_R   0.642911 0.268081 0.577560 -0.121605
C10   C     C_R   0.624344 0.335653 0.602312 0.178590
C11   C     C_R   0.248974 0.234371 0.423999 0.081591
C12   C     C_R   0.618473 0.499339 0.619371 0.804972
C13   C     C_R   0.313781 0.314291 0.498612 -0.082731
C14   C     C_R   0.313648 0.328895 0.576988 -0.151175
C15   C     C_R   0.249965 0.263968 0.577891 -0.188749
C16   C     C_R   0.183871 0.185247 0.499922 -0.045671
C17   C     C_R   0.185538 0.174108 0.424360 0.078811
C18   C     C_3   0.139754 0.112182 0.329238 -0.494790
C19   C     C_3   0.211833 0.180875 0.328338 0.031613
C20   C     C_R   0.284188 0.452017 0.227200 0.053824
C21   C     C_R   0.312614 0.498826 0.315221 -0.118326
C22   C     C_R   0.272745 0.547060 0.338490 -0.190822
C23   C     C_R   0.620264 0.620010 0.502205 0.813977
C24   C     C_R   0.207876 0.547523 0.274488 0.127768
C25   C     C_R   0.183214 0.500592 0.186102 -0.092210
C26   C     C_R   0.223794 0.454340 0.166097 -0.000927
C27   C     C_3   0.226679 0.395499 0.092758 -0.080321
C28   C     C_3   0.295705 0.392619 0.162327 -0.007420
C29   C     C_R   0.686522 0.675370 0.426283 0.084076
C30   C     C_R   0.685266 0.690212 0.503205 -0.176500
C31   C     C_R   0.743882 0.775914 0.577638 0.167494
C32   C     C_R   0.809284 0.837298 0.575913 -0.204835
C33   C     C_R   0.814879 0.816200 0.500561 -0.095558
C34   C     C_R   0.380574 0.499412 0.381125 0.812899
C35   C     C_R   0.748989 0.737837 0.424486 0.103628
C36   C     C_3   0.754449 0.669899 0.360994 -0.537051
C37   C     C_3   0.685457 0.601075 0.362774 0.033111
C38   C     C_R   0.999919 0.380781 0.881585 0.784161
C39   C     C_R   0.882309 0.501098 0.882420 0.781711
C40   C     C_R   0.000821 0.619606 0.118836 0.823774
C41   C     C_R   0.118079 0.499663 0.118441 0.839683
C42   C     C_R   0.999043 0.117277 0.618530 0.788280
C43   C     C_R   0.118174 0.118288 0.499519 0.794911
C44   C     C_R   0.001143 0.882720 0.381069 0.809608
C45   C     C_R   0.758150 0.662700 0.783543 -0.124479
C46   C     C_R   0.881603 0.880283 0.498987 0.802249
C47   C     C_R   0.933913 0.227401 0.765256 0.062116
C48   C     C_R   0.000682 0.314194 0.815605 -0.087270
C49   C     C_R   0.069822 0.335824 0.799050 -0.155405
C50   C     C_R   0.069882 0.270802 0.734512 -0.188520
C51   C     C_R   0.000154 0.184003 0.684816 -0.062203
C52   C     C_R   0.933227 0.165471 0.702170 0.067195
C53   C     C_3   0.850059 0.093739 0.678983 -0.026148
C54   C     C_3   0.850193 0.164771 0.750241 -0.438879
C55   C     C_R   0.925595 0.686027 0.174920 0.060099
C56   C     C_R   0.814479 0.737476 0.865838 -0.111298
C57   C     C_R   0.002132 0.689548 0.183433 -0.141465
C58   C     C_R   0.080665 0.766638 0.250463 -0.173805
C59   C     C_R   0.082186 0.831974 0.315949 0.133965
C60   C     C_R   0.003866 0.820415 0.312858 -0.131671
C61   C     C_R   0.926451 0.750679 0.238022 0.071985
C62   C     C_3   0.847310 0.685801 0.228570 -0.494282
C63   C     C_3   0.846184 0.614705 0.158396 0.025499
C64   C     C_R   0.866216 0.732512 0.934100 -0.117902
C65   C     C_R   0.865514 0.654071 0.918954 -0.114489
C66   C     C_R   0.810799 0.578223 0.834958 0.077186
Cu1   Cu    Cu3+1 0.500020 0.438210 0.438210 1.059714
Cu2   Cu    Cu3+1 0.499980 0.561790 0.561790 1.017699
Cu3   Cu    Cu3+1 0.938170 0.438220 0.000040 1.012001
Cu4   Cu    Cu3+1 0.061780 0.561790 0.000020 1.015383
Cu5   Cu    Cu3+1 0.061800 0.000020 0.561820 1.025927
Cu6   Cu    Cu3+1 0.938200 0.000080 0.438280 1.014823
H1    H     H_    0.592932 0.203240 0.522772 0.179822
H2    H     H_    0.251538 0.275766 0.638719 0.153196
H3    H     H_    0.291361 0.584150 0.405926 0.191966
H4    H     H_    0.723386 0.672266 0.732798 0.180989
H5    H     H_    0.856382 0.901123 0.633666 0.158614
H6    H     H_    0.732429 0.668269 0.297748 0.231887
H7    H     H_    0.817985 0.673801 0.389537 0.177428
H8    H     H_    0.709038 0.564929 0.391681 0.152315
H9    H     H_    0.123928 0.402343 0.836034 0.190108
H10   H     H_    0.818028 0.799584 0.876594 0.168890
H11   H     H_    0.798961 0.180530 0.725390 0.212176
H12   H     H_    0.857895 0.155241 0.806890 0.201090
H13   H     H_    0.861459 0.679940 0.287731 0.174484
H14   H     H_    0.792354 0.696887 0.204245 0.230194
H15   H     H_    0.857918 0.567267 0.176687 0.167733
H16   H     H_    0.909099 0.790282 0.998282 0.149556
H17   H     H_    0.909085 0.654002 0.973372 0.135868
H18   H     H_    0.840518 0.363114 0.749369 0.129375
O1    O     O_R   0.409840 0.357650 0.447820 -0.538958
O2    O     O_R   0.052170 0.462000 0.909870 -0.579987
O3    O     O_R   0.857610 0.447830 0.909870 -0.561529
O4    O     O_R   0.962000 0.552180 0.909850 -0.591035
O5    O     O_R   0.947780 0.538010 0.090190 -0.569814
O6    O     O_R   0.052160 0.642360 0.090170 -0.588674
O7    O     O_R   0.037950 0.447840 0.090220 -0.578143
O8    O     O_R   0.142340 0.552190 0.090190 -0.553417
O9    O     O_R   0.052210 0.090180 0.642410 -0.583958
O10   O     O_R   0.947830 0.090230 0.538080 -0.559021
O11   O     O_R   0.142360 0.090200 0.552220 -0.562158
O12   O     O_R   0.409810 0.462010 0.552170 -0.592995
O13   O     O_R   0.037990 0.090250 0.447890 -0.589841
O14   O     O_R   0.052170 0.909870 0.462020 -0.556809
O15   O     O_R   0.947790 0.909920 0.357690 -0.584561
O16   O     O_R   0.962010 0.909850 0.552210 -0.586752
O17   O     O_R   0.857640 0.909910 0.447880 -0.558905
O18   O     O_R   0.590190 0.447820 0.538000 -0.568656
O19   O     O_R   0.590150 0.552180 0.642350 -0.586273
O20   O     O_R   0.590190 0.537990 0.447830 -0.580935
O21   O     O_R   0.590160 0.642350 0.552180 -0.555032
O22   O     O_R   0.409850 0.447820 0.357650 -0.557264
O23   O     O_R   0.409810 0.552180 0.462000 -0.589811
O24   O     O_R   0.947790 0.357650 0.909890 -0.589249
H19   H     H_    0.140002 0.049520 0.314653 0.230945
H20   H     H_    0.075431 0.104783 0.294458 0.192409
I1    I     I_    0.292723 0.135222 0.297943 -0.217397
H21   H     H_    0.188912 0.212692 0.292722 0.146123
I2    I     I_    0.150920 0.620330 0.315488 -0.347928
H22   H     H_    0.164761 0.332127 0.047046 0.166460
I3    I     I_    0.276615 0.462815 0.033632 -0.306463
I4    I     I_    0.252657 0.265885 0.151818 -0.299358
H23   H     H_    0.361257 0.424887 0.171663 0.199304
I5    I     I_    0.745496 0.820743 0.697566 -0.385078
I6    I     I_    0.564794 0.520867 0.242699 -0.282225
H24   H     H_    0.123562 0.288303 0.723058 0.145964
I7    I     I_    0.749735 0.042100 0.549908 -0.315248
H25   H     H_    0.858335 0.044007 0.695204 0.148938
H26   H     H_    0.140927 0.774154 0.254361 0.195171
I8    I     I_    0.203938 0.944860 0.415812 -0.267617
I9    I     I_    0.740989 0.557471 0.030240 -0.303343
H27   H     H_    0.736586 0.227741 0.610339 0.177880
I10   I     I_    0.493633 0.288304 0.565482 -0.283176
H28   H     H_    0.363261 0.389495 0.637460 0.174102

loop_
_geom_bond_atom_site_label_1
_geom_bond_atom_site_label_2
_ccdc_geom_bond_type
Cu5   O14   S    
C59   I8    S    
C34   O22   A    
C35   C36   S    
C10   I10   S    
C54   H12   S    
C44   O14   A    
C28   H23   S    
C7    C8    A    
C44   O15   A    
C34   O23   A    
C65   H17   S    
C62   H14   S    
C11   C19   S    
C26   C27   S    
C62   C63   S    
C45   H4    S    
C36   C37   S    
Cu4   O4    S    
Cu2   O12   S    
C31   I5    S    
Cu3   O3    S    
C6    C12   S    
C5    C6    A    
C38   O24   A    
C28   I4    S    
Cu1   O18   S    
C58   H26   S    
C15   C16   A    
C38   O2    A    
C18   C19   S    
C49   H9    S    
C54   H11   S    
C53   I7    S    
C32   H5    S    
C39   O3    A    
C47   C48   A    
C45   C56   A    
C8    C9    A    
C55   C63   S    
C8    H27   S    
C56   C64   A    
C50   H24   S    
C63   I9    S    
C9    C10   A    
C38   C48   S    
C61   C62   S    
Cu2   O23   S    
Cu5   O11   S    
C3    C39   S    
C59   C60   A    
C1    O1    A    
C21   C22   A    
C33   C46   S    
C2    C6    A    
C9    H1    S    
C22   H3    S    
C40   O6    A    
C4    C7    A    
C12   O19   A    
C62   H13   S    
C17   C18   S    
C37   I6    S    
C2    C45   A    
C27   I3    S    
C37   H8    S    
Cu3   O24   S    
Cu1   Cu2   S    
C23   C30   S    
C24   C25   A    
C19   H21   S    
C25   C41   S    
C12   O18   A    
C16   C17   A    
C21   C34   S    
C14   H28   S    
C2    C66   A    
C58   C59   A    
C27   H22   S    
C7    H18   S    
Cu5   O9    S    
C51   C52   A    
C60   C61   A    
Cu2   O21   S    
Cu4   O6    S    
C43   O11   A    
C39   O4    A    
C29   C30   A    
C53   H25   S    
C42   O10   A    
Cu1   O20   S    
C31   C32   A    
C42   C51   S    
Cu6   O17   S    
C46   O17   A    
Cu1   O1    S    
C50   C51   A    
C20   C21   A    
C56   H10   S    
C16   C43   S    
C47   C54   S    
C48   C49   A    
C49   C50   A    
C55   C57   A    
C41   O7    A    
C3    C66   A    
C1    C13   S    
C40   O5    A    
C18   H20   S    
C3    C4    A    
C23   O21   A    
C52   C53   S    
Cu6   O10   S    
C23   O20   A    
C11   C17   A    
C24   I2    S    
C40   C57   S    
C63   H15   S    
C14   C15   A    
Cu4   O2    S    
C4    C5    A    
Cu3   O5    S    
C36   H7    S    
C18   H19   S    
C53   C54   S    
C47   C52   A    
Cu6   O13   S    
C20   C28   S    
C29   C35   A    
C64   C65   A    
C25   C26   A    
Cu5   Cu6   S    
C36   H6    S    
C42   O9    A    
C32   C33   A    
C11   C13   A    
C57   C58   A    
C30   C31   A    
C20   C26   A    
C44   C60   S    
C55   C61   A    
C33   C35   A    
C22   C24   A    
Cu2   O19   S    
Cu3   Cu4   S    
C43   O13   A    
C46   O16   A    
Cu1   O22   S    
C5    C10   A    
C15   H2    S    
Cu6   O15   S    
C19   I1    S    
C65   C66   A    
Cu5   O16   S    
C29   C37   S    
C27   C28   S    
C41   O8    A    
C13   C14   A    
C1    O12   A    
C64   H16   S    
Cu4   O8    S    
Cu3   O7    S    
