data_mof_unit_42552.cif
_audit_creation_date              2012-12-10T20:39:04-0500
_audit_creation_method            fapswitch 2.2
_symmetry_space_group_name_H-M    P1
_symmetry_Int_Tables_number       1
_space_group_crystal_system       triclinic
_cell_length_a                    18.44852
_cell_length_b                    10.668049
_cell_length_c                    9.837442
_cell_angle_alpha                 89.644995
_cell_angle_beta                  90.450957
_cell_angle_gamma                 91.436594
_cell_volume                      1935.40081022

loop_
_atom_site_label
_atom_site_type_symbol
_atom_type_description
_atom_site_fract_x
_atom_site_fract_y
_atom_site_fract_z
_atom_type_partial_charge
C1    C     C_R   0.503141 0.259526 0.500053 0.915153
C2    C     C_R   0.288925 0.541636 0.500521 -0.262856
C3    C     C_R   0.931306 0.674297 0.529251 0.379193
C4    C     C_R   0.077316 0.685798 0.512062 0.393901
C5    C     C_R   0.831397 0.530268 0.607555 0.334727
C6    C     C_R   0.759461 0.486355 0.597117 0.414704
C7    C     C_R   0.712291 0.540874 0.503278 -0.420922
C8    C     C_R   0.735516 0.644525 0.425324 0.438807
C9    C     C_R   0.805009 0.696373 0.443673 0.367171
C10   C     C_R   0.854264 0.637023 0.531811 -0.318894
C11   C     C_R   0.528076 0.062257 0.619444 -0.074016
C12   C     C_R   0.363885 0.500934 0.499775 0.982104
C13   C     C_R   0.518050 0.128589 0.498209 -0.212382
C14   C     C_R   0.528730 0.065668 0.373431 0.451138
C15   C     C_R   0.528156 0.935211 0.374164 -0.301549
C16   C     C_R   0.521293 0.870586 0.497964 -0.088144
C17   C     C_R   0.532142 0.935284 0.618624 -0.131563
C18   C     C_3   0.501724 0.920401 0.757869 0.374763
C19   C     C_3   0.497814 0.063144 0.760776 0.900781
C20   C     C_R   0.446924 0.436732 0.070874 0.074510
C21   C     C_R   0.553885 0.559334 0.072926 -0.301030
C22   C     C_R   0.554811 0.559328 0.926917 0.583979
C23   C     C_R   0.504581 0.739959 0.499533 0.941451
C24   C     C_R   0.446222 0.438867 0.928069 -0.082626
C25   C     C_3   0.367833 0.469909 0.922987 0.373155
C26   C     C_3   0.368243 0.463038 0.076516 0.360942
C27   C     C_R   0.635845 0.503979 0.500571 1.016839
C28   C     C_R   0.276038 0.652406 0.571185 -0.306441
C29   C     C_R   0.208439 0.706436 0.567817 0.450527
C30   C     C_R   0.151774 0.645660 0.497528 -0.194065
C31   C     C_R   0.163276 0.532983 0.428009 0.432693
C32   C     C_R   0.232880 0.477986 0.428678 0.364262
H1    H     H_    0.319418 0.698294 0.628452 0.258294
H2    H     H_    0.527351 0.886227 0.277958 0.185258
H3    H     H_    0.540486 0.880304 0.832327 0.087315
H4    H     H_    0.594500 0.610404 0.131167 0.207750
H5    H     H_    0.332903 0.397996 0.871841 0.099936
H6    H     H_    0.355400 0.552024 0.128356 0.135861
N1    N     N_R   0.035672 0.700636 0.399324 -0.128372
N2    N     N_R   0.963855 0.695668 0.407930 -0.120386
N3    N     N_R   0.972955 0.666346 0.643053 -0.127384
N4    N     N_R   0.044847 0.671756 0.634519 -0.140210
N5    N     N_R   0.499530 0.499140 0.142800 -0.133983
N6    N     N_R   0.499530 0.499180 0.857150 -0.083634
O1    O     O_R   0.500010 0.316790 0.614690 -0.588717
O2    O     O_R   0.500000 0.316760 0.385350 -0.564010
O3    O     O_R   0.398140 0.500000 0.614710 -0.583501
O4    O     O_R   0.398130 0.499970 0.385370 -0.592058
O5    O     O_R   0.500000 0.683240 0.614650 -0.538838
O6    O     O_R   0.499990 0.683210 0.385310 -0.635533
O7    O     O_R   0.601870 0.500030 0.614630 -0.553510
O8    O     O_R   0.601860 0.500000 0.385290 -0.608993
Zn1   Zn    Zn3+2 0.500000 0.500020 0.653130 1.080087
Zn2   Zn    Zn3+2 0.500000 0.499980 0.346870 0.990625
F1    F     F_    0.434324 0.860207 0.754979 -0.656473
O9    O     O_3   0.425886 0.106665 0.766315 -0.663238
C33   C     C_3   0.404068 0.130298 0.901694 0.120331
H7    H     H_    0.353431 0.183890 0.894900 0.161025
H8    H     H_    0.444117 0.190256 0.957423 0.193728
C34   C     C_3   0.387468 0.010325 0.984118 -0.312299
H9    H     H_    0.349365 0.948167 0.926235 0.275547
H10   H     H_    0.438393 0.959962 0.004707 0.233761
C35   C     C_3   0.353073 0.040488 0.120314 -0.887203
H11   H     H_    0.388320 0.106821 0.178987 0.319427
H12   H     H_    0.345470 0.952965 0.180809 0.254766
H13   H     H_    0.299294 0.082625 0.103643 0.263863
F2    F     F_    0.546990 0.119502 0.849920 -0.751216
O10   O     O_3   0.604044 0.631057 0.850800 -0.626924
C36   C     C_3   0.673940 0.643894 0.910154 0.083279
H14   H     H_    0.713932 0.631836 0.827806 0.189804
H15   H     H_    0.686447 0.570300 0.987096 0.134798
C37   C     C_3   0.685138 0.776464 0.967164 -0.428236
H16   H     H_    0.677604 0.846170 0.884064 0.224739
H17   H     H_    0.644411 0.794615 0.046677 0.233830
C38   C     C_3   0.760989 0.794965 0.027751 -0.780041
H18   H     H_    0.770458 0.724806 0.109393 0.311804
H19   H     H_    0.766622 0.890341 0.071851 0.261940
H20   H     H_    0.802542 0.784975 0.947677 0.246701
F3    F     F_    0.357243 0.590854 0.876175 -0.632290
O11   O     O_3   0.196861 0.814169 0.641243 -0.600229
C39   C     C_3   0.212170 0.920944 0.559031 0.027009
H21   H     H_    0.177027 0.996945 0.594712 0.173650
H22   H     H_    0.198446 0.906335 0.449353 0.120071
C40   C     C_3   0.291717 0.964509 0.575400 -0.321175
H23   H     H_    0.305444 0.970653 0.685246 0.289194
H24   H     H_    0.327833 0.896220 0.527378 0.221741
C41   C     C_3   0.306017 0.092143 0.509028 -0.848954
H25   H     H_    0.293503 0.087829 0.398634 0.259857
H26   H     H_    0.363971 0.119614 0.521221 0.283453
H27   H     H_    0.272824 0.164447 0.557811 0.273326
F4    F     F_    0.330074 0.359412 0.123974 -0.708885
F5    F     F_    0.104389 0.476482 0.369070 -0.694280
O12   O     O_3   0.248874 0.359440 0.377430 -0.637100
C42   C     C_3   0.198159 0.307015 0.283691 0.271539
H28   H     H_    0.228051 0.244860 0.215194 0.177969
H29   H     H_    0.174659 0.378226 0.214294 0.190118
C43   C     C_3   0.141703 0.222004 0.355620 -0.387769
H30   H     H_    0.167447 0.134005 0.388200 0.190149
H31   H     H_    0.121209 0.266988 0.448628 0.267869
C44   C     C_3   0.078304 0.188293 0.261068 -0.892613
H32   H     H_    0.048887 0.273875 0.231224 0.304224
H33   H     H_    0.039992 0.122893 0.313881 0.255611
H34   H     H_    0.098164 0.141679 0.168306 0.254278
O13   O     O_3   0.879181 0.469369 0.692926 -0.584958
C45   C     C_3   0.903457 0.361278 0.626442 0.128811
H35   H     H_    0.929325 0.386662 0.527548 0.142852
H36   H     H_    0.857501 0.293771 0.607906 0.172509
C46   C     C_3   0.959559 0.297265 0.716327 -0.292004
H37   H     H_    0.007789 0.360830 0.729043 0.237751
H38   H     H_    0.936053 0.277813 0.818234 0.238904
C47   C     C_3   0.983045 0.174035 0.654322 -0.989523
H39   H     H_    0.936095 0.107102 0.646408 0.262817
H40   H     H_    0.025311 0.131559 0.719670 0.276671
H41   H     H_    0.005783 0.190842 0.551579 0.273168
F6    F     F_    0.736152 0.389061 0.676647 -0.655113
F7    F     F_    0.689041 0.701145 0.337928 -0.679356
O14   O     O_3   0.825267 0.801797 0.369025 -0.597982
C48   C     C_3   0.822576 0.909584 0.452142 0.097801
H42   H     H_    0.857138 0.983728 0.403645 0.167092
H43   H     H_    0.845738 0.894217 0.555834 0.113674
C49   C     C_3   0.744850 0.956812 0.461754 -0.358077
H44   H     H_    0.720351 0.959360 0.358415 0.252486
H45   H     H_    0.711715 0.891519 0.525789 0.229649
C50   C     C_3   0.743183 0.087482 0.523759 -0.919749
H46   H     H_    0.768057 0.087034 0.626966 0.280392
H47   H     H_    0.686157 0.117224 0.532094 0.281552
H48   H     H_    0.772996 0.156184 0.458309 0.252592
O15   O     O_3   0.530015 0.129664 0.250479 -0.623867
C51   C     C_3   0.598943 0.120308 0.189922 0.087235
H49   H     H_    0.597314 0.040807 0.117241 0.170253
H50   H     H_    0.643418 0.105559 0.265332 0.117487
C52   C     C_3   0.616977 0.242466 0.114040 -0.284995
H51   H     H_    0.572090 0.265179 0.043082 0.265002
H52   H     H_    0.622764 0.320027 0.188475 0.224402
C53   C     C_3   0.687325 0.233691 0.034448 -0.852321
H53   H     H_    0.733401 0.215752 0.104705 0.238032
H54   H     H_    0.698274 0.323420 0.979670 0.284692
H55   H     H_    0.682978 0.156941 0.958798 0.299335

loop_
_geom_bond_atom_site_label_1
_geom_bond_atom_site_label_2
_ccdc_geom_bond_type
C19   O9    S    
C8    C9    A    
C53   H55   S    
C41   H25   S    
C35   H12   S    
O12   C42   S    
C9    O14   S    
N3    N4    A    
C47   H39   S    
C40   C41   S    
C12   O4    A    
C2    C12   S    
O15   C51   S    
C43   C44   S    
C39   H21   S    
C7    C27   S    
C7    C8    A    
C21   H4    S    
O9    C33   S    
O4    Zn2   S    
C45   H36   S    
C11   C19   S    
O6    Zn2   S    
C20   C26   S    
C34   C35   S    
C2    C32   A    
C28   C29   A    
C40   H24   S    
C37   C38   S    
C30   C31   A    
O11   C39   S    
C1    O2    A    
C23   O5    A    
C15   C16   A    
C14   O15   S    
C46   H37   S    
C34   H10   S    
C18   C19   S    
C36   H15   S    
C48   H42   S    
C49   C50   S    
C43   H31   S    
C21   N5    A    
N6    Zn1   S    
C22   N6    A    
C20   C24   A    
O8    Zn2   S    
C16   C17   A    
C19   F2    S    
C18   H3    S    
C15   H2    S    
O3    Zn1   S    
C51   C52   S    
C25   H5    S    
C32   O12   S    
C5    O13   S    
O1    Zn1   S    
C35   H13   S    
C21   C22   A    
C36   H14   S    
C12   O3    A    
O13   C45   S    
C39   H22   S    
C27   O7    A    
C43   H30   S    
C6    F6    S    
C45   C46   S    
C53   H53   S    
C40   H23   S    
C37   H17   S    
N1    N2    A    
O10   C36   S    
C23   O6    A    
C42   C43   S    
C26   F4    S    
C44   H34   S    
C34   H9    S    
O7    Zn1   S    
C48   C49   S    
C36   C37   S    
C38   H18   S    
C29   C30   A    
N5    Zn2   S    
C31   C32   A    
C4    N1    A    
O2    Zn2   S    
C44   H33   S    
C17   C18   S    
C47   H40   S    
C24   C25   S    
C42   H29   S    
C38   H19   S    
C22   O10   S    
C49   H44   S    
C18   F1    S    
C50   H48   S    
C28   H1    S    
C16   C23   S    
C41   H26   S    
C24   N6    A    
C1    C13   S    
C39   C40   S    
C27   O8    A    
C50   H47   S    
C51   H49   S    
C9    C10   A    
C53   H54   S    
C3    N3    A    
C25   F3    S    
C26   H6    S    
C37   H16   S    
C33   C34   S    
C11   C17   A    
C3    N2    A    
C6    C7    A    
C45   H35   S    
C46   C47   S    
C25   C26   S    
C5    C10   A    
C3    C10   S    
O14   C48   S    
C11   C13   A    
C1    O1    A    
C33   H7    S    
C5    C6    A    
C29   O11   S    
C4    N4    A    
C52   C53   S    
O5    Zn1   S    
C44   H32   S    
C46   H38   S    
C52   H51   S    
C47   H41   S    
C42   H28   S    
C38   H20   S    
C48   H43   S    
C20   N5    A    
C49   H45   S    
C33   H8    S    
C8    F7    S    
C35   H11   S    
C52   H52   S    
C31   F5    S    
C41   H27   S    
C14   C15   A    
C2    C28   A    
C13   C14   A    
C4    C30   S    
C50   H46   S    
C51   H50   S    
