data_mof_unit_32966.cif
_audit_creation_date              2012-12-11T14:30:56-0500
_audit_creation_method            fapswitch 2.2
_symmetry_space_group_name_H-M    P1
_symmetry_Int_Tables_number       1
_space_group_crystal_system       triclinic
_cell_length_a                    17.462825
_cell_length_b                    24.418834
_cell_length_c                    14.924951
_cell_angle_alpha                 90.056361
_cell_angle_beta                  125.495723
_cell_angle_gamma                 89.980366
_cell_volume                      5181.56877338

loop_
_atom_site_label
_atom_site_type_symbol
_atom_type_description
_atom_site_fract_x
_atom_site_fract_y
_atom_site_fract_z
_atom_type_partial_charge
C1    C     C_R   0.853043 0.652732 0.905763 -0.099096
C2    C     C_R   0.146636 0.652894 0.093689 -0.104999
C3    C     C_R   0.325578 0.141456 0.906145 -0.105412
C4    C     C_R   0.672019 0.142986 0.091695 -0.110355
C5    C     C_R   0.887471 0.318191 0.001161 0.138882
C6    C     C_R   0.112283 0.318404 0.997022 0.137808
C7    C     C_R   0.333113 0.845214 0.000067 0.126386
C8    C     C_R   0.666610 0.846669 0.995922 0.123619
C9    C     C_R   0.948332 0.501089 0.270039 0.136748
C10   C     C_R   0.960574 0.501289 0.647092 0.130718
C11   C     C_R   0.486937 0.001356 0.311721 0.133641
C12   C     C_R   0.428609 0.001387 0.631186 0.137331
C13   C     C_R   0.677532 0.500561 0.670912 0.122913
C14   C     C_R   0.324857 0.500628 0.285855 0.123036
C15   C     C_R   0.182966 0.000888 0.658542 0.126338
C16   C     C_R   0.824633 0.000662 0.291838 0.126414
C17   C     C_3   0.511392 0.455972 0.530300 0.541124
C18   C     C_3   0.495159 0.455494 0.418213 0.542729
C19   C     C_3   0.016689 0.957854 0.530098 0.545092
C20   C     C_3   0.993016 0.954343 0.414590 0.545072
C21   C     C_3   0.437832 0.501035 0.494317 -0.346206
C22   C     C_3   0.570477 0.500024 0.454504 -0.349753
C23   C     C_3   0.946070 0.004191 0.497550 -0.348306
C24   C     C_3   0.068187 0.997383 0.441429 -0.346899
C25   C     C_3   0.421312 0.500323 0.380692 0.000789
C26   C     C_3   0.586129 0.500160 0.567483 -0.004798
C27   C     C_3   0.921901 0.000444 0.380635 -0.005792
C28   C     C_3   0.091346 0.000596 0.557800 -0.012910
C29   C     C_3   0.495075 0.545380 0.416448 -0.147343
C30   C     C_3   0.513181 0.545736 0.531165 -0.147430
C31   C     C_3   0.995327 0.044026 0.406567 -0.140984
C32   C     C_3   0.021103 0.047422 0.524735 -0.143623
C33   C     C_2   0.117616 0.765674 0.910832 -0.289281
C34   C     C_2   0.880930 0.765386 0.088059 -0.292473
C35   C     C_2   0.743011 0.195908 0.925868 -0.319771
C36   C     C_2   0.255437 0.195919 0.070065 -0.317028
C37   C     C_2   0.131164 0.744124 0.001614 0.649106
C38   C     C_2   0.870333 0.744633 0.998283 0.646140
C39   C     C_2   0.717094 0.205145 0.993870 0.611033
C40   C     C_2   0.281811 0.205605 0.002662 0.612771
C41   C     C_2   0.798143 0.235940 0.913880 -0.093885
C42   C     C_2   0.200413 0.235750 0.082686 -0.092974
C43   C     C_2   0.176428 0.810748 0.920939 -0.025027
C44   C     C_2   0.823173 0.811188 0.077744 -0.023890
C45   C     C_R   0.947635 0.349624 0.092542 -0.145457
C46   C     C_R   0.053043 0.350255 0.906147 -0.124882
C47   C     C_R   0.417541 0.863342 0.092590 -0.136704
C48   C     C_R   0.583844 0.866756 0.904355 -0.134402
C49   C     C_2   0.870556 0.260290 0.003404 -0.115267
C50   C     C_2   0.128463 0.260507 0.993572 -0.115209
C51   C     C_2   0.269293 0.807400 0.998085 -0.205412
C52   C     C_2   0.731223 0.810373 0.995721 -0.200250
C53   C     C_2   0.889756 0.457740 0.365652 -0.113764
C54   C     C_2   0.892728 0.461413 0.465562 -0.124252
C55   C     C_2   0.401132 0.961471 0.377355 -0.103379
C56   C     C_2   0.383691 0.957664 0.461631 -0.116554
C57   C     C_2   0.898035 0.502651 0.320676 -0.194378
C58   C     C_2   0.939200 0.502430 0.537713 -0.196567
C59   C     C_2   0.455133 0.001911 0.381571 -0.201006
C60   C     C_2   0.386175 0.002753 0.514096 -0.207721
C61   C     C_R   0.979107 0.546901 0.245120 -0.153039
C62   C     C_R   0.967211 0.547071 0.705785 -0.147795
C63   C     C_R   0.504821 0.047116 0.272805 -0.141369
C64   C     C_R   0.448018 0.046776 0.695802 -0.150359
C65   C     C_R   0.733438 0.454833 0.718105 -0.107833
C66   C     C_R   0.268059 0.454989 0.254947 -0.125725
C67   C     C_R   0.236738 0.955210 0.709089 -0.100042
C68   C     C_R   0.768673 0.955287 0.262838 -0.123741
C69   C     C_R   0.981536 0.455307 0.247437 -0.117900
C70   C     C_R   0.964087 0.455475 0.703787 -0.119322
C71   C     C_R   0.505890 0.955545 0.273609 -0.123465
C72   C     C_R   0.446648 0.955815 0.694926 -0.120212
C73   C     C_R   0.731898 0.546932 0.717029 -0.154999
C74   C     C_R   0.269499 0.546844 0.255742 -0.149106
C75   C     C_R   0.235040 0.047035 0.709349 -0.152988
C76   C     C_R   0.769953 0.046755 0.261037 -0.147581
C77   C     C_R   0.854215 0.350412 0.909790 -0.111181
C78   C     C_R   0.144952 0.350116 0.089127 -0.115617
C79   C     C_R   0.322630 0.866730 0.908596 -0.123887
C80   C     C_R   0.674963 0.864886 0.088596 -0.120498
C81   C     C_R   0.944155 0.653130 0.088269 -0.158142
C82   C     C_R   0.057127 0.652491 0.910982 -0.143567
C83   C     C_R   0.419548 0.141890 0.090658 -0.176035
C84   C     C_R   0.581605 0.139607 0.907198 -0.177280
C85   C     C_R   0.885267 0.685413 0.996501 -0.074432
C86   C     C_R   0.115715 0.684997 0.002700 -0.078222
C87   C     C_R   0.340119 0.164683 0.999289 -0.061218
C88   C     C_R   0.659261 0.164116 0.997859 -0.055867
H1    H     H_    0.817500 0.665345 0.821372 0.087408
H2    H     H_    0.180587 0.666389 0.177454 0.094300
H3    H     H_    0.273397 0.152782 0.821485 0.102920
H4    H     H_    0.720626 0.157562 0.174913 0.103534
H5    H     H_    0.485340 0.581898 0.366593 0.125105
H6    H     H_    0.523154 0.582630 0.580413 0.124743
H7    H     H_    0.982633 0.079202 0.352473 0.132407
H8    H     H_    0.035402 0.085548 0.572681 0.130373
H9    H     H_    0.084889 0.742562 0.834939 0.090322
H10   H     H_    0.910419 0.741406 0.162387 0.088464
H11   H     H_    0.714874 0.161285 0.869587 0.118805
H12   H     H_    0.283374 0.161079 0.125708 0.118700
H13   H     H_    0.766755 0.252299 0.832027 0.116330
H14   H     H_    0.231746 0.251741 0.164852 0.115270
H15   H     H_    0.146622 0.841584 0.856620 0.144702
H16   H     H_    0.851500 0.839536 0.146206 0.160459
H17   H     H_    0.965348 0.589177 0.252688 0.099835
H18   H     H_    0.955362 0.589168 0.678240 0.092597
H19   H     H_    0.503664 0.089093 0.294331 0.089878
H20   H     H_    0.428851 0.088539 0.667002 0.088075
H21   H     H_    0.715504 0.412702 0.691451 0.119039
H22   H     H_    0.289652 0.412668 0.274603 0.124701
H23   H     H_    0.220575 0.913564 0.678997 0.106456
H24   H     H_    0.791685 0.914141 0.292169 0.113457
H25   H     H_    0.970348 0.412843 0.256661 0.097446
H26   H     H_    0.951082 0.413372 0.676172 0.086893
H27   H     H_    0.508097 0.913761 0.298077 0.085389
H28   H     H_    0.425881 0.914159 0.666355 0.077066
H29   H     H_    0.712556 0.588880 0.689734 0.096199
H30   H     H_    0.292323 0.589005 0.275740 0.098819
H31   H     H_    0.217454 0.088837 0.680603 0.095089
H32   H     H_    0.793937 0.088315 0.285767 0.101072
H33   H     H_    0.816194 0.336863 0.825281 0.078223
H34   H     H_    0.181913 0.335966 0.173102 0.076411
H35   H     H_    0.268267 0.857418 0.823538 0.103051
H36   H     H_    0.725588 0.851156 0.171730 0.091685
H37   H     H_    0.993076 0.667647 0.171671 0.093117
H38   H     H_    0.009200 0.666445 0.827063 0.089994
H39   H     H_    0.455014 0.155344 0.174766 0.092749
H40   H     H_    0.548337 0.149246 0.821392 0.098332
H41   H     H_    0.381524 0.501910 0.507617 0.150062
H42   H     H_    0.627576 0.500010 0.442560 0.150722
H43   H     H_    0.893756 0.007383 0.517025 0.151747
H44   H     H_    0.121525 0.995043 0.423479 0.154805
N1    N     N_R   0.892320 0.603520 0.941090 -0.034263
N2    N     N_R   0.107680 0.603520 0.058910 -0.035219
N3    N     N_R   0.392320 0.103520 0.941090 -0.037156
N4    N     N_R   0.607680 0.103520 0.058910 -0.036946
N5    N     N_R   0.953790 0.399020 0.058440 -0.041895
N6    N     N_R   0.046210 0.399020 0.941560 -0.042847
N7    N     N_R   0.453790 0.899020 0.058440 -0.040596
N8    N     N_R   0.546210 0.899020 0.941560 -0.042882
N9    N     N_R   0.026760 0.529450 0.205590 -0.043028
N10   N     N_R   0.973240 0.529450 0.794410 -0.040522
N11   N     N_R   0.526760 0.029450 0.205590 -0.040292
N12   N     N_R   0.473240 0.029450 0.794410 -0.037357
N13   N     N_R   0.819350 0.473090 0.793940 -0.050159
N14   N     N_R   0.180650 0.473090 0.206060 -0.050837
N15   N     N_R   0.319350 0.973090 0.793940 -0.048395
N16   N     N_R   0.680650 0.973090 0.206060 -0.049091
N17   N     N_R   0.027860 0.473090 0.206590 -0.047288
N18   N     N_R   0.972140 0.473090 0.793410 -0.044042
N19   N     N_R   0.527860 0.973090 0.206590 -0.043566
N20   N     N_R   0.472140 0.973090 0.793410 -0.042116
N21   N     N_R   0.818250 0.529450 0.792940 -0.042898
N22   N     N_R   0.181750 0.529450 0.207060 -0.045153
N23   N     N_R   0.318250 0.029450 0.792940 -0.041311
N24   N     N_R   0.681750 0.029450 0.207060 -0.044412
N25   N     N_R   0.896320 0.399020 0.944720 -0.042203
N26   N     N_R   0.103680 0.399020 0.055280 -0.041962
N27   N     N_R   0.396320 0.899020 0.944720 -0.044483
N28   N     N_R   0.603680 0.899020 0.055280 -0.042889
N29   N     N_R   0.949790 0.603520 0.054810 -0.028906
N30   N     N_R   0.050210 0.603520 0.945190 -0.029218
N31   N     N_R   0.449790 0.103520 0.054810 -0.027255
N32   N     N_R   0.550210 0.103520 0.945190 -0.027994
Ni1   Ni    Ni4+2 0.934100 0.565890 0.869590 0.212088
Ni2   Ni    Ni4+2 0.065900 0.565890 0.130410 0.211187
Ni3   Ni    Ni4+2 0.434100 0.065890 0.869590 0.212155
Ni4   Ni    Ni4+2 0.565900 0.065890 0.130410 0.213406
Ni5   Ni    Ni4+2 0.068420 0.436630 0.132700 0.200813
Ni6   Ni    Ni4+2 0.931580 0.436630 0.867300 0.201461
Ni7   Ni    Ni4+2 0.568420 0.936630 0.132700 0.206850
Ni8   Ni    Ni4+2 0.431580 0.936630 0.867300 0.205796
O1    O     O_3   0.527113 0.410268 0.596786 -0.626302
C89   C     C_3   0.443623 0.379526 0.547078 -0.278668
H45   H     H_    0.418870 0.365061 0.463672 0.160176
H46   H     H_    0.387456 0.403262 0.543236 0.139829
H47   H     H_    0.458098 0.342737 0.598194 0.169737
O2    O     O_3   0.478049 0.409351 0.352036 -0.624399
C90   C     C_3   0.561456 0.378674 0.400350 -0.279636
H48   H     H_    0.589604 0.366117 0.485874 0.156742
H49   H     H_    0.615588 0.401708 0.398835 0.140400
H50   H     H_    0.545515 0.340762 0.351440 0.169684
O3    O     O_3   0.035859 0.913836 0.601563 -0.631482
C91   C     C_3   0.952594 0.884132 0.560675 -0.279004
H51   H     H_    0.922837 0.867389 0.477246 0.158614
H52   H     H_    0.899469 0.909571 0.560018 0.145340
H53   H     H_    0.969488 0.848870 0.616100 0.171119
O4    O     O_3   0.969737 0.906838 0.349682 -0.636556
C92   C     C_3   0.051074 0.874806 0.392760 -0.281992
H54   H     H_    0.084465 0.863955 0.480439 0.156046
H55   H     H_    0.102421 0.895884 0.383339 0.153070
H56   H     H_    0.030607 0.835997 0.345424 0.171626
O5    O     O_3   0.154504 0.778861 0.088363 -0.577295
C93   C     C_3   0.241799 0.765617 0.187497 -0.274166
H57   H     H_    0.281942 0.732454 0.180614 0.091756
H58   H     H_    0.230035 0.754129 0.250532 0.152008
H59   H     H_    0.286727 0.802788 0.217916 0.165679
O6    O     O_3   0.852159 0.780421 0.915173 -0.577121
C94   C     C_3   0.769332 0.767146 0.811338 -0.267579
H60   H     H_    0.723482 0.736203 0.813296 0.089773
H61   H     H_    0.788297 0.753117 0.755839 0.150342
H62   H     H_    0.726906 0.804978 0.774841 0.171270
O7    O     O_3   0.750592 0.250113 0.064288 -0.618602
C95   C     C_3   0.674858 0.279175 0.051213 -0.246562
H63   H     H_    0.645344 0.256901 0.089635 0.134636
H64   H     H_    0.618734 0.287899 0.962987 0.132637
H65   H     H_    0.701509 0.319133 0.094014 0.171782
O8    O     O_3   0.248951 0.251039 0.933454 -0.617813
C96   C     C_3   0.323713 0.277618 0.939797 -0.235526
H66   H     H_    0.345343 0.254506 0.893754 0.133572
H67   H     H_    0.385032 0.284342 0.026652 0.129941
H68   H     H_    0.298960 0.318457 0.900637 0.173190
H69   H     H_    0.902916 0.241436 0.083764 0.158363
H70   H     H_    0.096196 0.242030 0.912835 0.158332
H71   H     H_    0.300174 0.774656 0.058005 0.126231
H72   H     H_    0.701054 0.780139 0.930689 0.128686
H73   H     H_    0.897641 0.417161 0.342409 0.121658
H74   H     H_    0.868258 0.426280 0.486830 0.115863
H75   H     H_    0.380787 0.927083 0.321542 0.124825
H76   H     H_    0.388646 0.917103 0.494105 0.112941
H77   H     H_    0.883567 0.542863 0.338806 0.129417
H78   H     H_    0.966318 0.537227 0.519134 0.132291
H79   H     H_    0.478773 0.035956 0.438618 0.132211
H80   H     H_    0.374925 0.042888 0.476950 0.132829
H81   H     H_    0.995103 0.334656 0.175860 0.089498
H82   H     H_    0.006415 0.335956 0.822149 0.087284
H83   H     H_    0.450175 0.849551 0.175904 0.083526
H84   H     H_    0.553821 0.858311 0.818840 0.093619

loop_
_geom_bond_atom_site_label_1
_geom_bond_atom_site_label_2
_ccdc_geom_bond_type
C84   H40   S    
C93   H58   S    
C55   C56   S    
C40   O8    S    
C22   C29   S    
C55   C59   D    
N6    Ni6   S    
C36   C42   S    
C19   C20   S    
C70   N18   A    
O7    C95   S    
C96   H68   S    
O2    C90   S    
C44   H16   S    
N9    N17   A    
C30   H6    S    
C13   C65   A    
O1    C89   S    
C70   H26   S    
C69   H25   S    
N9    Ni2   S    
C2    N2    A    
C9    C61   A    
C17   C26   S    
C14   C74   A    
C40   C87   S    
C10   C58   S    
C9    C69   A    
C39   O7    S    
C12   C64   A    
C79   N27   A    
N20   Ni8   S    
C11   C71   A    
C80   N28   A    
C93   H59   S    
C50   H70   S    
C49   H69   S    
C52   H72   S    
N16   Ni7   S    
N19   Ni7   S    
C91   H51   S    
C74   N22   A    
C6    C78   A    
C3    H3    S    
C68   H24   S    
C2    H2    S    
C24   H44   S    
C89   H45   S    
C82   H38   S    
C21   C25   S    
C77   N25   A    
C96   H67   S    
C78   N26   A    
C71   N19   A    
N12   Ni3   S    
C20   C24   S    
N23   Ni3   S    
O8    C96   S    
C72   N20   A    
C17   C18   S    
C94   H62   S    
N2    Ni2   S    
C54   H74   S    
O6    C94   S    
C16   C68   A    
C23   C27   S    
C61   H17   S    
C8    C52   S    
C9    C57   S    
N29   Ni2   S    
C68   N16   A    
C81   C85   A    
C4    N4    A    
C90   H50   S    
N13   N21   A    
N4    N32   A    
C44   C52   D    
C16   C27   S    
N11   N19   A    
C93   H57   S    
C12   C72   A    
N7    N27   A    
C94   H60   S    
N8    Ni8   S    
C18   C22   S    
C22   H42   S    
C25   C29   S    
C5    C49   S    
C10   C62   A    
C18   C25   S    
N3    N31   A    
C39   C88   S    
C62   N10   A    
C35   H11   S    
C60   H80   S    
C41   C49   D    
C17   O1    S    
N3    Ni3   S    
C64   H20   S    
C89   H46   S    
C53   H73   S    
C74   H30   S    
C1    N1    A    
C3    N3    A    
C73   H29   S    
N27   Ni8   S    
C48   N8    A    
C38   C85   S    
C3    C87   A    
C58   H78   S    
C84   C88   A    
C37   C86   S    
C28   C32   S    
C79   H35   S    
C75   H31   S    
C19   O3    S    
C53   C57   D    
C19   C23   S    
C34   C38   D    
C55   H75   S    
C64   N12   A    
C53   C54   S    
C27   C31   S    
C76   N24   A    
C66   H22   S    
C56   C60   D    
O4    C92   S    
C37   O5    S    
C92   H56   S    
C35   C39   D    
O3    C91   S    
C8    C48   A    
C29   C30   S    
N1    Ni1   S    
N25   Ni6   S    
C20   O4    S    
N30   Ni1   S    
N6    N26   A    
C31   C32   S    
N14   N22   A    
C95   H65   S    
C36   C40   D    
C15   C67   A    
C38   O6    S    
C96   H66   S    
C14   C66   A    
C71   H27   S    
C36   H12   S    
C76   H32   S    
C6    C50   S    
N7    Ni7   S    
C19   C28   S    
C89   H47   S    
C21   H41   S    
C35   C41   S    
C59   H79   S    
C42   C50   D    
C62   H18   S    
C10   C70   A    
C12   C60   S    
C67   H23   S    
C32   H8    S    
C13   C73   A    
C26   C30   S    
N4    Ni4   S    
C4    H4    S    
C67   N15   A    
C5    C77   A    
N17   Ni5   S    
C13   C26   S    
C1    C85   A    
C47   N7    A    
N18   Ni6   S    
C63   H19   S    
N21   Ni1   S    
C94   H61   S    
C56   H76   S    
N15   N23   A    
N15   Ni8   S    
C7    C79   A    
C45   N5    A    
C54   C58   D    
C83   H39   S    
C51   H71   S    
C34   C44   S    
C83   N31   A    
N13   Ni6   S    
C75   N23   A    
C1    H1    S    
C6    C46   A    
C81   H37   S    
C16   C76   A    
C81   N29   A    
N5    Ni5   S    
N32   Ni3   S    
C11   C59   S    
C24   C28   S    
C61   N9    A    
C95   H64   S    
N1    N29   A    
C83   C87   A    
N26   Ni5   S    
C4    C88   A    
C20   C27   S    
C82   N30   A    
C21   C30   S    
C72   H28   S    
C11   C63   A    
C91   H52   S    
C91   H53   S    
N5    N25   A    
C33   C37   D    
C15   C75   A    
C69   N17   A    
C23   C32   S    
N10   N18   A    
N31   Ni4   S    
C45   H81   S    
C24   C31   S    
C7    C51   S    
N12   N20   A    
C82   C86   A    
C42   H14   S    
N10   Ni1   S    
C29   H5    S    
C43   C51   D    
C84   N32   A    
C65   H21   S    
C5    C45   A    
C48   H84   S    
C34   H10   S    
N28   Ni7   S    
C41   H13   S    
C57   H77   S    
C2    C86   A    
C33   H9    S    
C14   C25   S    
C92   H54   S    
C78   H34   S    
C43   H15   S    
N11   Ni4   S    
C66   N14   A    
C77   H33   S    
C31   H7    S    
C90   H48   S    
C15   C28   S    
N24   Ni4   S    
N2    N30   A    
C47   H83   S    
C95   H63   S    
C18   O2    S    
C46   H82   S    
O5    C93   S    
C22   C26   S    
N14   Ni5   S    
C73   N21   A    
C23   H43   S    
C8    C80   A    
C63   N11   A    
C46   N6    A    
N22   Ni2   S    
N16   N24   A    
C80   H36   S    
C92   H55   S    
C33   C43   S    
C65   N13   A    
N8    N28   A    
C7    C47   A    
C90   H49   S    
C17   C21   S    
