data_mof_unit_60790.cif
_audit_creation_date              2012-12-10T19:58:48-0500
_audit_creation_method            fapswitch 2.2
_symmetry_space_group_name_H-M    P1
_symmetry_Int_Tables_number       1
_space_group_crystal_system       triclinic
_cell_length_a                    38.905667
_cell_length_b                    32.082069
_cell_length_c                    21.643564
_cell_angle_alpha                 90.363469
_cell_angle_beta                  124.454567
_cell_angle_gamma                 89.734225
_cell_volume                      22275.3797825

loop_
_atom_site_label
_atom_site_type_symbol
_atom_type_description
_atom_site_fract_x
_atom_site_fract_y
_atom_site_fract_z
_atom_type_partial_charge
C1    C     C_R   0.919311 0.000037 0.419347 0.902395
C2    C     C_R   0.975933 0.024065 0.257505 -0.205052
C3    C     C_1   0.500220 0.337729 0.000854 -0.067487
C4    C     C_1   0.000120 0.875040 0.000484 -0.182239
C5    C     C_1   0.500120 0.375040 0.000493 -0.182267
C6    C     C_1   0.500088 0.124865 0.000668 -0.171988
C7    C     C_1   0.000088 0.624866 0.000665 -0.172013
C8    C     C_R   0.483291 0.771586 0.931842 -0.176743
C9    C     C_R   0.516582 0.772019 0.066501 -0.178677
C10   C     C_R   0.982508 0.271591 0.931628 -0.176747
C11   C     C_R   0.017381 0.272015 0.066714 -0.178718
C12   C     C_R   0.936570 0.050558 0.621838 -0.183639
C13   C     C_R   0.523985 0.475844 0.742411 -0.204773
C14   C     C_R   0.063495 0.949535 0.378262 -0.184198
C15   C     C_R   0.436570 0.550558 0.621838 -0.183628
C16   C     C_R   0.563503 0.449545 0.378272 -0.184197
C17   C     C_R   0.499951 0.793442 0.999160 0.165032
C18   C     C_R   0.999958 0.293442 0.999159 0.165050
C19   C     C_R   0.017350 0.228580 0.066751 -0.178049
C20   C     C_R   0.982478 0.228146 0.931665 -0.180706
C21   C     C_R   0.516552 0.728585 0.066539 -0.178067
C22   C     C_R   0.483261 0.728141 0.931879 -0.180739
C23   C     C_R   0.999896 0.206727 0.999232 0.167506
C24   C     C_R   0.475928 0.524060 0.257500 -0.205070
C25   C     C_R   0.499890 0.706727 0.999233 0.167554
C26   C     C_1   0.499950 0.837886 0.999187 -0.066185
C27   C     C_1   0.999954 0.337886 0.999188 -0.066188
C28   C     C_1   0.999875 0.162288 0.999338 -0.067168
C29   C     C_1   0.499872 0.662288 0.999339 -0.067162
C30   C     C_R   0.910908 0.078302 0.627827 -0.122358
C31   C     C_R   0.089233 0.921858 0.372357 -0.122661
C32   C     C_R   0.410908 0.578302 0.627827 -0.122381
C33   C     C_R   0.589247 0.421874 0.372374 -0.122620
C34   C     C_R   0.915716 0.083629 0.696125 -0.125753
C35   C     C_R   0.025469 0.977520 0.807299 -0.202271
C36   C     C_R   0.084458 0.916532 0.304088 -0.123089
C37   C     C_R   0.415716 0.583629 0.696125 -0.125762
C38   C     C_R   0.584473 0.416547 0.304106 -0.122888
C39   C     C_R   0.945179 0.060133 0.758024 -0.178721
C40   C     C_R   0.054947 0.939960 0.242127 -0.178848
C41   C     C_R   0.445179 0.560134 0.758024 -0.178764
C42   C     C_R   0.554958 0.439969 0.242140 -0.178708
C43   C     C_R   0.970392 0.030557 0.752309 0.099941
C44   C     C_R   0.029658 0.969477 0.247756 0.099094
C45   C     C_R   0.470392 0.530557 0.752309 0.099926
C46   C     C_R   0.974463 0.022392 0.192633 -0.202354
C47   C     C_R   0.529663 0.469481 0.247762 0.099058
C48   C     C_R   0.967593 0.027423 0.684674 0.101058
C49   C     C_R   0.032434 0.972608 0.315370 0.100989
C50   C     C_R   0.467593 0.527423 0.684674 0.101067
C51   C     C_R   0.532438 0.472613 0.315375 0.100993
C52   C     C_2   0.794323 0.036162 0.403656 0.390534
C53   C     C_2   0.205655 0.965230 0.595308 0.390388
C54   C     C_2   0.294324 0.536156 0.403663 0.390562
C55   C     C_2   0.705655 0.465040 0.595439 0.390379
C56   C     C_R   0.525469 0.477520 0.807299 -0.202176
C57   C     C_R   0.474458 0.522387 0.192628 -0.202388
C58   C     C_R   0.998858 0.004306 0.812434 -0.108195
C59   C     C_R   0.001142 0.995672 0.187570 -0.108767
C60   C     C_R   0.498858 0.504306 0.812434 -0.108223
C61   C     C_R   0.080688 0.999967 0.580653 0.902408
C62   C     C_R   0.501142 0.495671 0.187571 -0.108756
C63   C     C_R   0.728188 0.983737 0.181381 -0.179286
C64   C     C_R   0.271822 0.015488 0.819145 -0.179346
C65   C     C_R   0.228188 0.483740 0.181379 -0.179280
C66   C     C_R   0.771822 0.515578 0.819080 -0.179281
C67   C     C_R   0.706544 0.000532 0.209593 0.113437
C68   C     C_R   0.293457 0.999384 0.790425 0.113666
C69   C     C_R   0.206543 0.500532 0.209594 0.113452
C70   C     C_R   0.793457 0.499383 0.790424 0.113664
C71   C     C_R   0.727997 0.017549 0.281803 -0.150327
C72   C     C_R   0.419311 0.500037 0.419347 0.902381
C73   C     C_R   0.271993 0.983070 0.717709 -0.150264
C74   C     C_R   0.227997 0.517546 0.281807 -0.150299
C75   C     C_R   0.771994 0.482977 0.717771 -0.150305
C76   C     C_R   0.771747 0.017977 0.326943 -0.005373
C77   C     C_R   0.228243 0.982668 0.672559 -0.005445
C78   C     C_R   0.271747 0.517974 0.326947 -0.005375
C79   C     C_R   0.728243 0.482575 0.672623 -0.005399
C80   C     C_R   0.793334 0.000903 0.297726 0.070627
C81   C     C_R   0.206666 0.999051 0.702285 0.070661
C82   C     C_R   0.293334 0.500903 0.297727 0.070636
C83   C     C_R   0.580688 0.499966 0.580653 0.902386
C84   C     C_R   0.706666 0.499050 0.702284 0.070649
C85   C     C_R   0.771510 0.983929 0.225390 -0.167931
C86   C     C_R   0.228501 0.015316 0.775132 -0.167901
C87   C     C_R   0.271509 0.483932 0.225388 -0.167922
C88   C     C_R   0.728501 0.515406 0.775068 -0.167898
C89   C     C_R   0.998196 0.000148 0.618376 0.871846
C90   C     C_R   0.001788 0.999848 0.381609 0.871750
C91   C     C_R   0.498196 0.500148 0.618376 0.871829
C92   C     C_R   0.501788 0.499848 0.381608 0.871731
C93   C     C_1   0.662113 0.000339 0.164176 -0.052597
C94   C     C_R   0.995681 0.000721 0.681837 -0.104871
C95   C     C_1   0.337888 0.999584 0.835828 -0.052566
C96   C     C_1   0.162112 0.500339 0.164177 -0.052574
C97   C     C_1   0.837888 0.499583 0.835828 -0.052543
C98   C     C_1   0.837841 0.000465 0.340540 -0.089605
C99   C     C_1   0.162159 0.999506 0.659469 -0.089670
C100  C     C_1   0.337841 0.500465 0.340540 -0.089591
C101  C     C_1   0.662159 0.499505 0.659468 -0.089652
C102  C     C_1   0.875113 0.000172 0.376404 -0.183543
C103  C     C_1   0.124887 0.999815 0.623601 -0.183596
C104  C     C_1   0.375113 0.500172 0.376404 -0.183522
C105  C     C_R   0.004287 0.999250 0.318135 -0.104875
C106  C     C_1   0.624887 0.499815 0.623600 -0.183584
C107  C     C_1   0.624802 0.000167 0.125973 -0.169660
C108  C     C_1   0.375199 0.999775 0.874027 -0.169640
C109  C     C_1   0.124801 0.500167 0.125974 -0.169643
C110  C     C_1   0.875199 0.499774 0.874026 -0.169625
C111  C     C_1   0.499968 0.875212 0.999398 -0.171737
C112  C     C_1   0.999969 0.375212 0.999398 -0.171748
C113  C     C_R   0.000031 0.919291 0.000092 0.902494
C114  C     C_R   0.500031 0.419291 0.000091 0.902608
C115  C     C_R   0.999733 0.002010 0.879445 0.871466
C116  C     C_R   0.495681 0.500721 0.681837 -0.104884
C117  C     C_R   0.000268 0.997975 0.120558 0.871182
C118  C     C_R   0.499733 0.502010 0.879445 0.871522
C119  C     C_R   0.500268 0.497974 0.120558 0.871207
C120  C     C_R   0.999970 0.080703 0.999908 0.902372
C121  C     C_R   0.499970 0.580703 0.999908 0.902366
C122  C     C_R   0.499994 0.919490 0.999815 0.902777
C123  C     C_R   0.999994 0.419490 0.999815 0.902758
C124  C     C_R   0.580548 0.000009 0.080840 0.901816
C125  C     C_R   0.419452 0.999969 0.919160 0.901808
C126  C     C_R   0.080548 0.500009 0.080840 0.901863
C127  C     C_R   0.504286 0.499250 0.318135 -0.104835
C128  C     C_R   0.919452 0.499969 0.919160 0.901852
C129  C     C_1   0.999902 0.124968 0.999569 -0.182081
C130  C     C_1   0.499902 0.624968 0.999570 -0.182088
C131  C     C_R   0.500002 0.080603 0.000181 0.903543
C132  C     C_R   0.000002 0.580603 0.000181 0.903667
C133  C     C_R   0.479527 0.228494 0.026990 -0.178112
C134  C     C_R   0.521159 0.227989 0.975576 -0.177675
C135  C     C_R   0.982336 0.728503 0.032298 -0.177961
C136  C     C_R   0.018345 0.727980 0.970181 -0.177726
C137  C     C_R   0.500318 0.206611 0.001257 0.166271
C138  C     C_R   0.023985 0.975844 0.742411 -0.204851
C139  C     C_R   0.000315 0.706611 0.001217 0.166110
C140  C     C_R   0.018354 0.771411 0.970141 -0.178850
C141  C     C_R   0.982349 0.771941 0.032264 -0.179958
C142  C     C_R   0.521169 0.271420 0.975538 -0.179012
C143  C     C_R   0.479539 0.271931 0.026958 -0.179630
C144  C     C_R   0.000335 0.793304 0.001141 0.167574
C145  C     C_R   0.500337 0.293304 0.001183 0.167382
C146  C     C_1   0.500188 0.162182 0.001004 -0.066172
C147  C     C_1   0.000186 0.662182 0.000988 -0.066213
C148  C     C_1   0.000220 0.837729 0.000832 -0.067453
H1    H     H_    0.045442 0.955469 0.739774 0.159394
H2    H     H_    0.537287 0.211118 0.955606 0.143909
H3    H     H_    0.968342 0.712031 0.056368 0.143768
H4    H     H_    0.032292 0.711103 0.946064 0.144023
H5    H     H_    0.968937 0.211299 0.879277 0.141170
H6    H     H_    0.030865 0.212075 0.119174 0.143772
H7    H     H_    0.470334 0.711291 0.879655 0.141185
H8    H     H_    0.529455 0.712083 0.118797 0.143709
H9    H     H_    0.470380 0.788093 0.879588 0.144777
H10   H     H_    0.529503 0.788859 0.118731 0.144638
H11   H     H_    0.968983 0.288102 0.879209 0.144770
H12   H     H_    0.954432 0.044395 0.260095 0.159640
H13   H     H_    0.030914 0.288852 0.119108 0.144617
H14   H     H_    0.931424 0.047141 0.567473 0.146802
H15   H     H_    0.068612 0.952950 0.432603 0.146834
H16   H     H_    0.431424 0.547141 0.567473 0.146805
H17   H     H_    0.568617 0.452961 0.432611 0.146830
H18   H     H_    0.887461 0.095986 0.579462 0.148294
H19   H     H_    0.112712 0.904224 0.420766 0.148440
H20   H     H_    0.387461 0.595986 0.579462 0.148307
H21   H     H_    0.612728 0.404244 0.420786 0.148508
H22   H     H_    0.896368 0.105854 0.701075 0.143323
H23   H     H_    0.545442 0.455469 0.739774 0.159406
H24   H     H_    0.103867 0.894357 0.299205 0.145211
H25   H     H_    0.396368 0.605854 0.701075 0.143384
H26   H     H_    0.603887 0.394376 0.299229 0.145236
H27   H     H_    0.948223 0.065896 0.810157 0.151771
H28   H     H_    0.051928 0.934190 0.190019 0.152516
H29   H     H_    0.448223 0.565896 0.810157 0.151783
H30   H     H_    0.551940 0.434198 0.190034 0.152543
H31   H     H_    0.047132 0.957392 0.853451 0.161305
H32   H     H_    0.952760 0.042477 0.146440 0.162116
H33   H     H_    0.547132 0.457392 0.853451 0.161299
H34   H     H_    0.454423 0.544386 0.260086 0.159627
H35   H     H_    0.452752 0.542468 0.146432 0.162104
H36   H     H_    0.788065 0.970843 0.202974 0.150163
H37   H     H_    0.211954 0.027869 0.797941 0.150161
H38   H     H_    0.288064 0.470848 0.202969 0.150153
H39   H     H_    0.711954 0.528030 0.797827 0.150173
H40   H     H_    0.711578 0.970542 0.125414 0.147371
H41   H     H_    0.288440 0.028137 0.875506 0.147142
H42   H     H_    0.211577 0.470547 0.125409 0.147361
H43   H     H_    0.788440 0.528298 0.875391 0.147166
H44   H     H_    0.710521 0.030426 0.302563 0.184172
H45   H     H_    0.968367 0.788824 0.056312 0.142835
H46   H     H_    0.289462 0.970721 0.696558 0.183991
H47   H     H_    0.210522 0.530421 0.302570 0.184162
H48   H     H_    0.789462 0.470559 0.696670 0.183973
H49   H     H_    0.828127 0.036677 0.439113 0.066521
H50   H     H_    0.171850 0.964722 0.559853 0.066652
H51   H     H_    0.328128 0.536670 0.439121 0.066523
H52   H     H_    0.671851 0.464533 0.559984 0.066625
H53   H     H_    0.032308 0.787880 0.945993 0.142266
H54   H     H_    0.463376 0.288808 0.046851 0.143012
H55   H     H_    0.537302 0.287897 0.955537 0.142344
H56   H     H_    0.463352 0.212014 0.046904 0.143602
O1    O     O_R   0.939010 0.034430 0.439030 -0.626740
O2    O     O_R   0.439000 0.999980 0.990770 -0.615578
O3    O     O_R   0.061000 0.499980 0.009230 -0.615532
O4    O     O_R   0.939000 0.499980 0.990770 -0.615551
O5    O     O_R   0.499990 0.061030 0.051640 -0.614859
O6    O     O_R   0.500010 0.061030 0.948360 -0.614357
O7    O     O_R   0.999990 0.561030 0.051640 -0.614939
O8    O     O_R   0.000010 0.561030 0.948360 -0.614442
O9    O     O_R   0.939020 0.965580 0.438990 -0.608208
O10   O     O_R   0.060980 0.965580 0.561010 -0.626605
O11   O     O_R   0.439020 0.465580 0.438990 -0.608182
O12   O     O_R   0.060990 0.034430 0.560970 -0.608259
O13   O     O_R   0.560980 0.465580 0.561010 -0.626591
O14   O     O_R   0.999990 0.034430 0.591600 -0.623903
O15   O     O_R   0.000010 0.034430 0.408400 -0.618212
O16   O     O_R   0.499990 0.534430 0.591600 -0.623924
O17   O     O_R   0.500010 0.534430 0.408400 -0.618226
O18   O     O_R   0.000000 0.965580 0.591570 -0.618106
O19   O     O_R   0.000000 0.965580 0.408430 -0.623878
O20   O     O_R   0.500000 0.465580 0.591570 -0.618057
O21   O     O_R   0.500000 0.465580 0.408430 -0.623841
O22   O     O_R   0.034430 0.939010 0.034360 -0.625494
O23   O     O_R   0.439010 0.534430 0.439030 -0.626746
O24   O     O_R   0.965570 0.939010 0.965640 -0.608716
O25   O     O_R   0.534430 0.439010 0.034360 -0.625586
O26   O     O_R   0.465570 0.439010 0.965640 -0.608792
O27   O     O_R   0.034440 0.999990 0.942790 -0.619363
O28   O     O_R   0.965560 0.999990 0.057210 -0.619412
O29   O     O_R   0.534440 0.499990 0.942790 -0.619400
O30   O     O_R   0.465560 0.499990 0.057210 -0.619430
O31   O     O_R   0.965580 0.000000 0.873950 -0.623064
O32   O     O_R   0.034420 0.000000 0.126050 -0.623322
O33   O     O_R   0.465580 0.500000 0.873950 -0.623028
O34   O     O_R   0.560990 0.534430 0.560970 -0.608264
O35   O     O_R   0.534420 0.500000 0.126050 -0.623343
O36   O     O_R   0.034440 0.060980 0.034440 -0.608663
O37   O     O_R   0.965560 0.060980 0.965560 -0.625183
O38   O     O_R   0.534440 0.560980 0.034440 -0.608643
O39   O     O_R   0.465560 0.560980 0.965560 -0.625167
O40   O     O_R   0.500010 0.939050 0.051750 -0.614273
O41   O     O_R   0.499990 0.939050 0.948250 -0.614749
O42   O     O_R   0.000010 0.439050 0.051750 -0.614257
O43   O     O_R   0.999990 0.439050 0.948250 -0.614736
O44   O     O_2   0.775385 0.050870 0.428380 -0.567265
O45   O     O_R   0.560990 0.000040 0.112660 -0.612846
O46   O     O_2   0.224583 0.951139 0.570128 -0.567251
O47   O     O_2   0.275387 0.550863 0.428389 -0.567266
O48   O     O_2   0.724584 0.450867 0.570316 -0.567311
O49   O     O_R   0.439010 0.000040 0.887340 -0.612835
O50   O     O_R   0.060990 0.500040 0.112660 -0.612883
O51   O     O_R   0.939010 0.500040 0.887340 -0.612872
O52   O     O_R   0.561000 0.999980 0.009230 -0.615557
Zn1   Zn    Zn3+2 0.000000 0.045980 0.500000 0.966113
Zn2   Zn    Zn3+2 0.500000 0.000050 0.930960 0.978061
Zn3   Zn    Zn3+2 0.000000 0.500050 0.069040 0.977915
Zn4   Zn    Zn3+2 0.000000 0.500050 0.930960 0.977965
Zn5   Zn    Zn3+2 0.500000 0.545980 0.500000 0.966096
Zn6   Zn    Zn3+2 0.000000 0.954030 0.500000 0.965976
Zn7   Zn    Zn3+2 0.500000 0.454030 0.500000 0.966148
Zn8   Zn    Zn3+2 0.045980 0.999990 0.045940 0.968715
Zn9   Zn    Zn3+2 0.954020 0.999990 0.954060 0.969040
Zn10  Zn    Zn3+2 0.545980 0.499990 0.045940 0.968597
Zn11  Zn    Zn3+2 0.454020 0.499990 0.954060 0.968974
Zn12  Zn    Zn3+2 0.500000 0.000050 0.069040 0.978001

loop_
_geom_bond_atom_site_label_1
_geom_bond_atom_site_label_2
_ccdc_geom_bond_type
C44   C49   A    
O31   Zn9   S    
O5    Zn12  S    
C99   C103  T    
O27   Zn8   S    
C11   C18   A    
C133  C137  A    
O13   Zn7   S    
O22   Zn8   S    
C46   C59   A    
C41   C45   A    
C53   C77   S    
O16   Zn5   S    
C132  O8    A    
C16   C51   A    
C100  C104  T    
C14   C31   A    
C136  C140  A    
C69   C96   S    
C33   H21   S    
C47   C62   A    
C115  O31   A    
O43   Zn4   S    
C91   O16   A    
C15   C32   A    
C45   C60   A    
O1    Zn1   S    
C2    C46   A    
C135  C139  A    
C11   C19   A    
C124  O45   A    
C71   H44   S    
C48   C94   A    
C120  C129  S    
C35   C58   A    
C17   C26   S    
O50   Zn3   S    
O45   Zn12  S    
C41   H29   S    
C92   O17   A    
C61   C103  S    
O39   Zn11  S    
C38   C42   A    
O17   Zn5   S    
C35   C138  A    
C66   C88   A    
C71   C76   A    
C5    C114  S    
C65   C69   A    
C38   H26   S    
C14   C49   A    
C56   H33   S    
C44   C59   A    
C82   C87   A    
C134  H2    S    
C125  O2    A    
C11   H13   S    
C128  O51   A    
O28   Zn9   S    
C143  C145  A    
C28   C129  T    
C15   C50   A    
C14   H15   S    
C64   H41   S    
C36   C40   A    
O42   Zn3   S    
C43   C58   A    
O18   Zn6   S    
O29   Zn10  S    
C74   H47   S    
O49   Zn2   S    
C88   H39   S    
C47   C51   A    
C29   C130  T    
C10   C20   A    
C24   C57   A    
C72   O23   A    
O2    Zn12  S    
C131  O5    A    
C24   C127  A    
C8    C22   A    
C54   O47   D    
C60   C118  S    
O15   Zn1   S    
C61   O12   A    
C77   C81   A    
C108  C125  S    
C87   H38   S    
C1    O1    A    
C43   C48   A    
C16   H17   S    
C115  O27   A    
C81   C86   A    
C34   H22   S    
C70   C97   S    
C12   C48   A    
O26   Zn11  S    
C13   C56   A    
C12   C30   A    
C75   H48   S    
C133  H56   S    
C140  C144  A    
C89   O14   A    
C83   O34   A    
C59   C117  S    
O4    Zn3   S    
C73   H46   S    
C63   C85   A    
C111  C122  S    
C35   H31   S    
C84   C101  S    
C142  C145  A    
C132  O7    A    
C82   C100  S    
C107  C124  S    
O36   Zn8   S    
C136  C139  A    
C8    H9    S    
C52   O44   D    
C64   C86   A    
C42   C47   A    
C136  H4    S    
C65   C87   A    
O20   Zn7   S    
C7    C147  T    
C22   H7    S    
C138  H1    S    
C25   C29   S    
C121  O38   A    
C63   C67   A    
C133  C143  A    
C68   C95   S    
C36   H24   S    
C20   H5    S    
C30   C34   A    
C135  C141  A    
C24   H34   S    
C34   C39   A    
C46   H32   S    
C15   H16   S    
C57   C62   A    
C30   H18   S    
C112  C123  S    
C39   H27   S    
C91   C116  S    
O24   Zn9   S    
C141  C144  A    
C89   O18   A    
C40   H28   S    
C113  O24   A    
C122  O40   A    
C81   C99   S    
C117  O32   A    
C52   C76   S    
C68   C73   A    
C32   C37   A    
C12   H14   S    
C22   C25   A    
C83   O13   A    
C54   H51   S    
C56   C60   A    
O35   Zn10  S    
O52   Zn2   S    
C6    C146  T    
O40   Zn12  S    
C84   C88   A    
C19   C23   A    
C114  O26   A    
C80   C85   A    
O11   Zn7   S    
C16   C33   A    
C134  C142  A    
C55   C79   S    
C78   C82   A    
C119  O30   A    
C55   H52   S    
C20   C23   A    
C40   C44   A    
C126  O3    A    
C139  C147  S    
C66   H43   S    
C72   O11   A    
C131  O6    A    
C7    C132  S    
C69   C74   A    
C126  O50   A    
C121  C130  S    
C141  H45   S    
C23   C28   S    
C65   H42   S    
C134  C137  A    
C125  O49   A    
O41   Zn2   S    
C62   C119  S    
C120  O36   A    
C122  O41   A    
C118  O33   A    
C9    C17   A    
O19   Zn6   S    
C114  O25   A    
C31   H19   S    
C27   C112  T    
O32   Zn8   S    
C85   H36   S    
C32   H20   S    
C1    O9    A    
C58   C115  S    
C94   C138  A    
O37   Zn9   S    
C61   O10   A    
C53   H50   S    
C2    H12   S    
C9    C21   A    
C92   C127  S    
C64   C68   A    
O7    Zn3   S    
C57   H35   S    
O23   Zn5   S    
C101  C106  T    
C121  O39   A    
C21   C25   A    
O51   Zn4   S    
C73   C77   A    
C117  O28   A    
C80   C98   S    
C55   O48   D    
O14   Zn1   S    
O12   Zn1   S    
O10   Zn6   S    
C49   C105  A    
C18   C27   S    
C76   C80   A    
C90   C105  S    
C6    C131  S    
C3    C5    T    
C89   C94   S    
C123  O42   A    
C39   C43   A    
O25   Zn10  S    
C3    C145  S    
C42   H30   S    
O6    Zn2   S    
C72   C104  S    
C96   C109  T    
C66   C70   A    
C2    C105  A    
C33   C38   A    
C83   C106  S    
O9    Zn6   S    
O33   Zn11  S    
C51   C127  A    
C137  C146  S    
C90   O19   A    
C98   C102  T    
C140  H53   S    
C142  H55   S    
C8    C17   A    
C123  O43   A    
C97   C110  T    
C118  O29   A    
C119  O35   A    
C113  O22   A    
C79   C84   A    
O30   Zn11  S    
C45   C50   A    
C10   C18   A    
C135  H3    S    
O3    Zn4   S    
C10   H11   S    
C21   H8    S    
O8    Zn4   S    
C67   C71   A    
C120  O37   A    
O38   Zn10  S    
C37   C41   A    
C1    C102  S    
C13   C116  A    
C95   C108  T    
C37   H25   S    
C4    C113  S    
C109  C126  S    
C13   H23   S    
C143  H54   S    
C53   O46   D    
C70   C75   A    
C86   H37   S    
C90   O15   A    
C63   H40   S    
C74   C78   A    
C124  O52   A    
C67   C93   S    
C19   H6    S    
O21   Zn7   S    
C31   C36   A    
O34   Zn5   S    
C52   H49   S    
C128  O4    A    
C50   C116  A    
C91   O20   A    
C75   C79   A    
C26   C111  T    
C92   O21   A    
C9    H10   S    
C93   C107  T    
C110  C128  S    
C54   C78   S    
C144  C148  S    
C4    C148  T    
