data_mof_unit_8947.cif
_audit_creation_date              2012-12-11T17:34:23-0500
_audit_creation_method            fapswitch 2.2
_symmetry_space_group_name_H-M    P1
_symmetry_Int_Tables_number       1
_space_group_crystal_system       triclinic
_cell_length_a                    23.989358
_cell_length_b                    7.219646
_cell_length_c                    20.494963
_cell_angle_alpha                 89.967558
_cell_angle_beta                  105.569674
_cell_angle_gamma                 89.992999
_cell_volume                      3419.36364794

loop_
_atom_site_label
_atom_site_type_symbol
_atom_type_description
_atom_site_fract_x
_atom_site_fract_y
_atom_site_fract_z
_atom_type_partial_charge
O1    O     O_R   0.449110 0.494310 0.552140 -0.544628
O2    O     O_R   0.550890 0.994310 0.447860 -0.544815
O3    O     O_R   0.440010 0.824420 0.415850 -0.533345
O4    O     O_R   0.559990 0.324420 0.584150 -0.532842
C1    C     C_R   0.425435 0.655726 0.390547 0.709090
C2    C     C_R   0.574544 0.155653 0.609459 0.708173
O5    O     O_R   0.442260 0.824040 0.549660 -0.530825
O6    O     O_R   0.557740 0.324040 0.450340 -0.529349
O7    O     O_R   0.553160 0.993960 0.582620 -0.538371
O8    O     O_R   0.446840 0.493960 0.417380 -0.538124
C3    C     C_R   0.429696 0.655693 0.568208 0.771648
C4    C     C_R   0.570375 0.155689 0.431895 0.770185
O9    O     O_3   0.536380 0.660670 0.510660 -0.374234
O10   O     O_3   0.463620 0.160670 0.489340 -0.374442
V1    V     V_3+5 0.493250 0.935680 0.498020 1.454883
V2    V     V_3+5 0.506750 0.435680 0.501980 1.456945
C5    C     C_R   0.800212 0.921507 0.143255 0.317532
C6    C     C_R   0.199860 0.422198 0.856695 0.326983
C7    C     C_R   0.837818 0.915222 0.100015 0.051804
C8    C     C_R   0.162250 0.415651 0.899947 0.048799
C9    C     C_R   0.879902 0.058980 0.103327 -0.218064
C10   C     C_R   0.120126 0.559302 0.896660 -0.218550
C11   C     C_R   0.877521 0.215704 0.144682 0.247152
C12   C     C_R   0.122528 0.716324 0.855386 0.249522
C13   C     C_R   0.839376 0.223522 0.186236 0.095685
C14   C     C_R   0.160687 0.724452 0.813839 0.095174
C15   C     C_R   0.801492 0.075037 0.186839 -0.075160
C16   C     C_R   0.198570 0.575967 0.813136 -0.082279
C17   C     C_1   0.761854 0.086360 0.229714 -0.022790
C18   C     C_1   0.238020 0.587343 0.769978 -0.014884
C19   C     C_1   0.728366 0.098775 0.264517 -0.030501
C20   C     C_1   0.271126 0.600136 0.734690 0.060377
C21   C     C_R   0.627092 0.079890 0.276497 0.377979
C22   C     C_R   0.371437 0.595014 0.723665 0.378014
C23   C     C_R   0.588489 0.095657 0.317859 0.013718
C24   C     C_R   0.411057 0.604156 0.682782 -0.044635
C25   C     C_R   0.609734 0.146276 0.387091 -0.144850
C26   C     C_R   0.389973 0.646560 0.612625 -0.115123
C27   C     C_R   0.668945 0.184801 0.414013 0.331527
C28   C     C_R   0.330458 0.678102 0.584275 0.338016
C29   C     C_R   0.707051 0.167819 0.372607 -0.262112
C30   C     C_R   0.291760 0.660009 0.624920 -0.309505
H1    H     H_    0.752777 0.195695 0.393595 0.132900
H2    H     H_    0.245775 0.680303 0.602840 0.132554
C31   C     C_R   0.686966 0.114610 0.304651 -0.033463
C32   C     C_R   0.311849 0.616663 0.693757 0.019603
C33   C     C_R   0.639109 0.189141 0.800742 0.430844
C34   C     C_R   0.360791 0.689462 0.199258 0.433049
C35   C     C_R   0.616199 0.149072 0.677801 -0.169119
C36   C     C_R   0.383747 0.649281 0.322216 -0.169372
C37   C     C_R   0.894588 0.982307 0.766248 -0.004132
C38   C     C_R   0.105466 0.480435 0.233638 -0.004461
C39   C     C_R   0.851193 0.946124 0.705251 0.150387
C40   C     C_R   0.148881 0.443553 0.294566 0.150007
C41   C     C_R   0.792749 0.963616 0.704011 0.319804
C42   C     C_R   0.207325 0.462290 0.295929 0.319750
C43   C     C_R   0.776103 0.063769 0.755366 -0.055549
C44   C     C_R   0.223881 0.563333 0.244664 -0.055504
C45   C     C_R   0.819423 0.106471 0.816563 -0.097837
C46   C     C_R   0.180532 0.606267 0.183485 -0.097601
C47   C     C_R   0.716948 0.116624 0.747833 -0.055565
C48   C     C_R   0.283000 0.616612 0.252211 -0.055945
C49   C     C_R   0.699221 0.170036 0.805668 -0.056641
C50   C     C_R   0.300692 0.670342 0.194369 -0.057017
C51   C     C_R   0.741932 0.209211 0.866669 0.382540
C52   C     C_R   0.257963 0.709704 0.133387 0.383309
C53   C     C_R   0.801219 0.193858 0.869447 0.155206
C54   C     C_R   0.198691 0.694146 0.130627 0.154506
C55   C     C_R   0.675310 0.124514 0.683741 -0.224986
C56   C     C_R   0.324643 0.624482 0.316301 -0.224737
C57   C     C_R   0.597555 0.171704 0.737140 0.202843
C58   C     C_R   0.402364 0.671859 0.262841 0.200443
C59   C     C_R   0.878823 0.053948 0.823690 -0.138009
C60   C     C_R   0.121166 0.553370 0.176316 -0.138067
H3    H     H_    0.688432 0.115889 0.637317 0.196509
H4    H     H_    0.311524 0.615545 0.362726 0.197837
O11   O     O_R   0.053190 0.709680 0.082610 -0.530500
O12   O     O_R   0.946810 0.209680 0.917390 -0.530647
O13   O     O_R   0.057740 0.380240 0.950340 -0.549602
O14   O     O_R   0.942260 0.880240 0.049660 -0.549699
C61   C     C_R   0.073558 0.549094 0.934662 0.765626
C62   C     C_R   0.926448 0.049035 0.065327 0.765696
O15   O     O_R   0.060000 0.379940 0.084150 -0.538940
O16   O     O_R   0.940000 0.879940 0.915850 -0.538775
O17   O     O_R   0.949110 0.210100 0.052140 -0.513360
O18   O     O_R   0.050890 0.710100 0.947860 -0.513185
C63   C     C_R   0.076420 0.548762 0.108607 0.763872
C64   C     C_R   0.923573 0.048883 0.891399 0.763594
O19   O     O_3   0.963630 0.543720 0.989330 -0.380662
O20   O     O_3   0.036370 0.043720 0.010670 -0.380652
V3    V     V_3+5 0.006750 0.268680 0.001980 1.398426
V4    V     V_3+5 0.993250 0.768680 0.998020 1.398706
O21   O     O_3   0.761815 0.776052 0.140141 -0.650390
H5    H     H_    0.741509 0.786238 0.176020 0.299602
O22   O     O_3   0.238240 0.276692 0.859746 -0.645709
H6    H     H_    0.258752 0.287584 0.824079 0.309741
O23   O     O_3   0.725123 0.277758 0.921583 -0.595595
H7    H     H_    0.758188 0.276962 0.962710 0.326129
O24   O     O_3   0.274734 0.778645 0.078479 -0.593603
H8    H     H_    0.241669 0.777871 0.037353 0.327244
O25   O     O_3   0.621919 0.220860 0.859121 -0.591249
H9    H     H_    0.579695 0.242251 0.848280 0.340614
O26   O     O_3   0.377952 0.721248 0.140852 -0.588086
H10   H     H_    0.420156 0.742968 0.151681 0.344569
C65   C     C_3   0.957297 0.934275 0.770897 -0.306195
C66   C     C_3   0.966971 0.723880 0.775633 -0.679055
H11   H     H_    0.968444 0.673775 0.827177 0.236604
H12   H     H_    0.932026 0.647184 0.739291 0.192287
H13   H     H_    0.008378 0.688694 0.764326 0.225385
H14   H     H_    0.970134 0.992576 0.726964 0.166342
H15   H     H_    0.987525 0.001284 0.814971 0.201246
C67   C     C_3   0.042784 0.431945 0.228936 -0.305693
C68   C     C_3   0.033153 0.221566 0.223745 -0.678537
H16   H     H_    0.031490 0.172585 0.172043 0.236851
H17   H     H_    0.068218 0.144250 0.259728 0.191991
H18   H     H_    0.991848 0.185815 0.235208 0.225172
H19   H     H_    0.029974 0.489172 0.273031 0.166518
H20   H     H_    0.012520 0.499738 0.185042 0.201191
O27   O     O_3   0.753268 0.866349 0.654416 -0.651775
H21   H     H_    0.724269 0.811915 0.675396 0.297423
O28   O     O_3   0.246932 0.365230 0.345522 -0.651366
H22   H     H_    0.275994 0.311308 0.324535 0.297467
C69   C     C_3   0.864748 0.877601 0.640609 -0.312242
C70   C     C_3   0.848763 0.023821 0.584779 -0.742219
H23   H     H_    0.801726 0.054483 0.571531 0.259874
H24   H     H_    0.873370 0.153434 0.601612 0.212612
H25   H     H_    0.859647 0.972224 0.538659 0.209705
H26   H     H_    0.910612 0.841655 0.646922 0.170379
H27   H     H_    0.840377 0.748023 0.622924 0.208854
C71   C     C_3   0.135334 0.372877 0.358975 -0.311540
C72   C     C_3   0.150897 0.517973 0.415135 -0.743691
H28   H     H_    0.197861 0.549387 0.428522 0.259353
H29   H     H_    0.126064 0.647392 0.398545 0.212788
H30   H     H_    0.140032 0.464840 0.461083 0.209565
H31   H     H_    0.089537 0.335813 0.352486 0.170551
H32   H     H_    0.159955 0.243505 0.376412 0.208831
O29   O     O_3   0.840329 0.273714 0.923455 -0.662305
H33   H     H_    0.857233 0.378653 0.903996 0.306518
O30   O     O_3   0.159548 0.774181 0.076647 -0.662129
H34   H     H_    0.142692 0.879142 0.096127 0.306529
C73   C     C_3   0.829265 0.757609 0.048492 -0.291540
C74   C     C_3   0.804410 0.826311 0.976242 -0.683537
H35   H     H_    0.763488 0.903180 0.971958 0.249031
H36   H     H_    0.835934 0.917036 0.961183 0.223140
H37   H     H_    0.795234 0.706549 0.940971 0.216422
H38   H     H_    0.869681 0.681929 0.052327 0.178330
H39   H     H_    0.799461 0.649171 0.057522 0.227612
C75   C     C_3   0.170863 0.257972 0.951508 -0.291596
C76   C     C_3   0.195710 0.326637 0.023738 -0.679961
H40   H     H_    0.236619 0.403508 0.027994 0.250460
H41   H     H_    0.164180 0.417383 0.038772 0.222120
H42   H     H_    0.204905 0.206853 0.059053 0.216204
H43   H     H_    0.130465 0.182262 0.947708 0.178002
H44   H     H_    0.200700 0.149620 0.942495 0.228520
O31   O     O_3   0.913253 0.364517 0.146266 -0.654810
H45   H     H_    0.899744 0.422526 0.101173 0.295878
O32   O     O_3   0.086814 0.865180 0.853889 -0.654817
H46   H     H_    0.100335 0.922846 0.899016 0.295948
C77   C     C_3   0.839335 0.394645 0.229693 -0.261142
C78   C     C_3   0.878535 0.366682 0.301076 -0.763260
H47   H     H_    0.863464 0.247295 0.326005 0.225535
H48   H     H_    0.923763 0.341409 0.299236 0.235478
H49   H     H_    0.877720 0.492908 0.331731 0.213561
H50   H     H_    0.854038 0.519364 0.207228 0.213957
H51   H     H_    0.794820 0.428562 0.232287 0.184131
C79   C     C_3   0.160743 0.895939 0.770495 -0.263655
C80   C     C_3   0.121473 0.868734 0.699120 -0.769223
H52   H     H_    0.136433 0.749425 0.674080 0.222634
H53   H     H_    0.076242 0.843760 0.700992 0.236963
H54   H     H_    0.122347 0.995173 0.668544 0.214313
H55   H     H_    0.146118 0.020503 0.793092 0.214712
H56   H     H_    0.205253 0.929743 0.767866 0.182794
O33   O     O_3   0.604371 0.032530 0.209062 -0.634472
H57   H     H_    0.635160 0.026474 0.185347 0.310094
O34   O     O_3   0.389184 0.564129 0.792711 -0.627697
H58   H     H_    0.427902 0.619737 0.811082 0.309125
C81   C     C_3   0.524207 0.063402 0.286890 -0.322215
C82   C     C_3   0.491717 0.245783 0.269320 -0.669156
H59   H     H_    0.494509 0.326719 0.316009 0.211304
H60   H     H_    0.510106 0.328050 0.234243 0.264105
H61   H     H_    0.445372 0.217746 0.244374 0.224763
H62   H     H_    0.516241 0.978585 0.240149 0.261153
H63   H     H_    0.505378 0.984581 0.322165 0.182952
C83   C     C_3   0.474993 0.564294 0.713270 -0.379812
C84   C     C_3   0.509608 0.742330 0.732261 -0.692997
H64   H     H_    0.555541 0.708216 0.757145 0.231492
H65   H     H_    0.507899 0.824475 0.686058 0.223996
H66   H     H_    0.492183 0.826308 0.767690 0.247392
H67   H     H_    0.482028 0.473617 0.758461 0.231614
H68   H     H_    0.492967 0.485791 0.677208 0.204644
O35   O     O_3   0.688701 0.236226 0.481206 -0.646644
H69   H     H_    0.730793 0.261739 0.491847 0.286588
O36   O     O_3   0.311012 0.722882 0.516394 -0.647974
H70   H     H_    0.268808 0.746883 0.505020 0.287702
O37   O     O_3   0.539541 0.179789 0.735383 -0.673249
H71   H     H_    0.514927 0.155562 0.689164 0.274813
O38   O     O_3   0.460369 0.679523 0.264525 -0.672581
H72   H     H_    0.484998 0.655606 0.310770 0.274536

loop_
_geom_bond_atom_site_label_1
_geom_bond_atom_site_label_2
_ccdc_geom_bond_type
C23   C81   S    
C52   C54   A    
C65   H14   S    
C49   C51   A    
O11   V4    S    
C79   H56   S    
O21   H5    S    
C33   O25   S    
C11   O31   S    
C15   C17   S    
C21   C31   A    
O15   C63   A    
O22   H6    S    
O1    C3    A    
C72   H30   S    
O2    C4    A    
C2    O7    A    
C82   H59   S    
O17   V3    S    
C69   C70   S    
C80   H53   S    
C41   O27   S    
O33   H57   S    
O5    C3    A    
O25   H9    S    
C75   H44   S    
C23   C25   A    
C12   C14   A    
C38   C60   A    
C76   H41   S    
C77   C78   S    
C33   C49   A    
C67   H19   S    
C43   C45   A    
C66   H11   S    
C38   C67   S    
C44   C46   A    
C81   H62   S    
C83   C84   S    
C48   C56   A    
C6    C8    A    
C30   C32   A    
C4    C25   S    
C47   C49   A    
C36   C58   A    
C48   C50   A    
C22   O34   S    
C45   C53   A    
C58   O38   S    
O32   H46   S    
O14   V4    S    
C71   H31   S    
C51   C53   A    
C35   C57   A    
C13   C77   S    
C8    C75   S    
C24   C83   S    
C60   C63   S    
C18   C20   T    
C21   O33   S    
C45   C59   A    
O13   V3    S    
C61   O18   A    
C37   C65   S    
C68   H18   S    
C28   C30   A    
C65   H15   S    
C79   H55   S    
O6    V2    S    
C26   C28   A    
C35   C55   A    
C69   H27   S    
C6    O22   S    
C29   H1    S    
C74   H37   S    
C30   H2    S    
C34   C58   A    
C67   C68   S    
C38   C40   A    
O23   H7    S    
C80   H54   S    
C28   O36   S    
C39   C41   A    
C40   C71   S    
C40   C42   A    
C84   H65   S    
O35   H69   S    
C5    C15   A    
C78   H49   S    
C37   C59   A    
C6    C16   A    
C75   C76   S    
O14   C62   A    
C39   C69   S    
C76   H42   S    
C80   H52   S    
O13   C61   A    
C12   O32   S    
C5    C7    A    
C84   H66   S    
O5    V1    S    
C72   H29   S    
C81   H63   S    
C34   O26   S    
C77   H51   S    
C37   C39   A    
C78   H48   S    
C52   O24   S    
O4    V2    S    
C3    C26   S    
C10   C61   S    
C59   C64   S    
C27   O35   S    
C57   O37   S    
O34   H58   S    
O10   V1    S    
O6    C4    A    
O27   H21   S    
O1    V2    S    
O19   V4    S    
O2    V1    S    
C33   C57   A    
O28   H22   S    
C44   C48   A    
C70   H25   S    
C22   C32   A    
C73   H38   S    
O4    C2    A    
C8    C10   A    
O36   H70   S    
C41   C43   A    
C56   H4    S    
C79   C80   S    
C10   C12   A    
C1    C36   S    
C5    O21   S    
C75   H43   S    
O20   V3    S    
C72   H28   S    
C62   O17   A    
O26   H10   S    
C74   H36   S    
O3    V1    S    
C70   H24   S    
C68   H16   S    
C65   C66   S    
O12   C64   A    
C14   C79   S    
C83   H68   S    
C7    C9    A    
C83   H67   S    
C20   C32   S    
C71   H32   S    
O16   C64   A    
O3    C1    A    
C82   H60   S    
O30   H34   S    
C43   C47   A    
O12   V3    S    
C13   C15   A    
C27   C29   A    
O15   V3    S    
O29   H33   S    
C14   C16   A    
O24   H8    S    
C46   C54   A    
C47   C55   A    
C78   H47   S    
C9    C11   A    
C71   C72   S    
C36   C56   A    
C51   O23   S    
C16   C18   S    
C17   C19   T    
O8    V2    S    
C73   C74   S    
C42   O28   S    
C24   C26   A    
C67   H20   S    
C84   H64   S    
C66   H12   S    
C46   C60   A    
C21   C23   A    
C42   C44   A    
C55   H3    S    
C22   C24   A    
C11   C13   A    
C2    C35   S    
O7    V1    S    
O38   H72   S    
C53   O29   S    
C82   H61   S    
C34   C50   A    
C73   H39   S    
O37   H71   S    
C1    O8    A    
C9    C62   S    
O11   C63   A    
C25   C27   A    
C81   C82   S    
C19   C31   S    
O9    V2    S    
C69   H26   S    
O31   H45   S    
C74   H35   S    
C29   C31   A    
C77   H50   S    
C54   O30   S    
O18   V4    S    
O16   V4    S    
C76   H40   S    
C7    C73   S    
C50   C52   A    
C70   H23   S    
C68   H17   S    
C66   H13   S    
