data_mof_unit_62835.cif
_audit_creation_date              2012-12-10T17:20:38-0500
_audit_creation_method            fapswitch 2.2
_symmetry_space_group_name_H-M    P1
_symmetry_Int_Tables_number       1
_space_group_crystal_system       triclinic
_cell_length_a                    10.242977
_cell_length_b                    10.439606
_cell_length_c                    13.638347
_cell_angle_alpha                 91.370263
_cell_angle_beta                  74.870726
_cell_angle_gamma                 93.821352
_cell_volume                      1404.67382029

loop_
_atom_site_label
_atom_site_type_symbol
_atom_type_description
_atom_site_fract_x
_atom_site_fract_y
_atom_site_fract_z
_atom_type_partial_charge
Br1   Br    Br    0.282651 0.036331 0.586862 -0.436999
Br2   Br    Br    0.706808 0.966457 0.529263 -0.442665
C1    C     C_R   0.555220 0.734740 0.488899 0.875198
C2    C     C_2   0.074526 0.489727 0.491644 -0.112213
C3    C     C_1   0.448021 0.508532 0.882768 0.037742
C4    C     C_1   0.552130 0.492178 0.117269 0.032305
C5    C     C_2   0.582943 0.871059 0.466193 0.084407
C6    C     C_2   0.423437 0.127797 0.486959 0.083187
C7    C     C_2   0.512756 0.928358 0.409548 -0.060822
C8    C     C_2   0.509267 0.067350 0.409878 -0.061044
C9    C     C_1   0.100500 0.646891 0.609677 0.352574
C10   C     C_1   0.898391 0.349292 0.393825 0.350354
C11   C     C_1   0.601763 0.135691 0.325765 0.203565
C12   C     C_R   0.446019 0.265074 0.502154 0.877242
C13   C     C_1   0.433792 0.856745 0.349987 0.212528
C14   C     C_R   0.476826 0.503507 0.688270 0.919381
C15   C     C_R   0.523183 0.496543 0.311734 0.868632
C16   C     C_1   0.540286 0.493964 0.206241 -0.138278
C17   C     C_1   0.459791 0.506425 0.793789 -0.142324
C18   C     C_2   0.556822 0.491489 0.012958 -0.145432
C19   C     C_2   0.443402 0.509527 0.987083 -0.145237
C20   C     C_2   0.926151 0.512335 0.506721 -0.112449
H1    H     H_    0.348527 0.524686 0.043267 0.169247
H2    H     H_    0.651693 0.476296 0.956783 0.170929
H3    H     H_    0.120174 0.417498 0.437337 0.167791
H4    H     H_    0.881276 0.586591 0.559306 0.174288
N1    N     N_2   0.847200 0.448220 0.460120 -0.141301
N2    N     N_2   0.152800 0.551780 0.539880 -0.143065
N3    N     N_1   0.057366 0.726033 0.667733 -0.167628
N4    N     N_1   0.940802 0.266989 0.338759 -0.193763
N5    N     N_1   0.675308 0.189852 0.258348 -0.170408
N6    N     N_1   0.370726 0.799952 0.302401 -0.171811
O1    O     O_R   0.430150 0.692610 0.508030 -0.598241
O2    O     O_R   0.569850 0.307390 0.491970 -0.595311
O3    O     O_R   0.653100 0.659360 0.482430 -0.590525
O4    O     O_R   0.346900 0.340640 0.517570 -0.589457
O5    O     O_R   0.372470 0.518990 0.654990 -0.597776
O6    O     O_R   0.627530 0.481010 0.345010 -0.607507
O7    O     O_R   0.595430 0.485740 0.629390 -0.600357
O8    O     O_R   0.404570 0.514260 0.370610 -0.610543
Zn1   Zn    Zn3+2 0.351130 0.522200 0.517090 0.997554
Zn2   Zn    Zn3+2 0.648870 0.477800 0.482910 0.998231

loop_
_geom_bond_atom_site_label_1
_geom_bond_atom_site_label_2
_ccdc_geom_bond_type
C12   O2    A    
C3    C17   T    
Br1   C6    S    
C4    C18   S    
C7    C8    S    
Br2   C5    S    
O2    Zn2   S    
C1    O3    A    
C14   O5    A    
C15   O6    A    
O1    Zn1   S    
C15   C16   S    
C7    C13   S    
C13   N6    T    
O5    Zn1   S    
N1    Zn2   S    
O4    Zn1   S    
C9    N2    S    
C14   C17   S    
O8    Zn1   S    
C2    N2    D    
O6    Zn2   S    
O7    Zn2   S    
C1    C5    S    
C20   N1    D    
C19   H1    S    
C12   O4    A    
C4    C16   T    
C1    O1    A    
C10   N1    S    
C2    H3    S    
N2    Zn1   S    
C3    C19   S    
C18   C19   D    
C9    N3    T    
C6    C8    D    
C20   H4    S    
C5    C7    D    
O3    Zn2   S    
C2    C20   S    
C6    C12   S    
C14   O7    A    
C10   N4    T    
C15   O8    A    
C11   N5    T    
C18   H2    S    
C8    C11   S    
