data_mof_unit_10787.cif
_audit_creation_date              2012-10-26T20:07:49-0400
_audit_creation_method            fapswitch 2.2
_symmetry_space_group_name_H-M    P1
_symmetry_Int_Tables_number       1
_space_group_crystal_system       triclinic
_cell_length_a                    9.511657
_cell_length_b                    10.832048
_cell_length_c                    17.08562
_cell_angle_alpha                 89.364582
_cell_angle_beta                  93.202613
_cell_angle_gamma                 90.006499
_cell_volume                      1757.48623543

loop_
_atom_site_label
_atom_site_type_symbol
_atom_type_description
_atom_site_fract_x
_atom_site_fract_y
_atom_site_fract_z
_atom_type_partial_charge
C1    C     C_R   0.499962 0.262045 0.500041 0.537484
C2    C     C_R   0.070877 0.592986 0.464020 0.039332
C3    C     C_R   0.516340 0.501726 0.650982 0.589183
C4    C     C_R   0.483377 0.504148 0.348973 0.596457
C5    C     C_R   0.523777 0.501276 0.737146 -0.002006
C6    C     C_R   0.474325 0.502891 0.262809 -0.000721
C7    C     C_R   0.417291 0.554793 0.780986 0.230638
C8    C     C_R   0.574691 0.562654 0.217147 0.237830
C9    C     C_R   0.425944 0.541708 0.862517 -0.057366
C10   C     C_R   0.565398 0.548691 0.135901 -0.054147
C11   C     C_R   0.540138 0.480112 0.901390 0.181753
C12   C     C_R   0.500034 0.737941 0.499953 0.602039
C13   C     C_R   0.455877 0.479957 0.098951 0.181291
C14   C     C_R   0.647911 0.433591 0.858204 -0.099768
C15   C     C_R   0.353029 0.427372 0.143792 -0.100856
C16   C     C_R   0.639288 0.442751 0.776788 -0.180869
C17   C     C_R   0.362816 0.437470 0.225060 -0.182865
C18   C     C_R   0.372183 0.063801 0.499627 -0.124933
C19   C     C_R   0.627799 0.936133 0.500255 -0.120702
C20   C     C_R   0.372197 0.936097 0.499505 -0.116616
C21   C     C_R   0.627787 0.063840 0.500295 -0.127166
C22   C     C_R   0.500009 0.871762 0.499895 0.052137
C23   C     C_R   0.499978 0.128189 0.500007 0.026736
C24   C     C_R   0.078042 0.407596 0.536707 0.052673
C25   C     C_R   0.922229 0.593509 0.464601 0.066775
C26   C     C_R   0.929217 0.407519 0.536576 0.029303
Cu1   Cu    Cu3+1 0.640660 0.500020 0.500000 1.020074
Cu2   Cu    Cu3+1 0.359340 0.499980 0.500000 1.015027
H1    H     H_    0.641636 0.594373 0.100820 0.188328
H2    H     H_    0.727703 0.111885 0.500582 0.128194
H3    H     H_    0.136906 0.333842 0.566456 0.116848
H4    H     H_    0.863802 0.668835 0.436557 0.148115
H5    H     H_    0.876246 0.333635 0.566170 0.107340
H6    H     H_    0.123830 0.667264 0.434804 0.118624
H7    H     H_    0.719453 0.807880 0.342090 0.350540
H8    H     H_    0.252656 0.777776 0.642757 0.359338
H9    H     H_    0.345549 0.582888 0.896275 0.187266
H10   H     H_    0.738081 0.388730 0.887768 0.155116
H11   H     H_    0.266196 0.376869 0.115712 0.155226
H12   H     H_    0.722527 0.402363 0.744635 0.151931
H13   H     H_    0.283897 0.392297 0.258647 0.155195
H14   H     H_    0.272258 0.111815 0.499385 0.127091
H15   H     H_    0.727714 0.888102 0.500482 0.123127
H16   H     H_    0.272279 0.888048 0.499133 0.119997
N1    N     N_2   0.555212 0.474083 0.984193 -0.227424
N2    N     N_2   0.440622 0.471761 0.016323 -0.228102
N3    N     N_R   0.852070 0.500030 0.499980 -0.229114
N4    N     N_R   0.147930 0.499970 0.500020 -0.224272
O1    O     O_R   0.618740 0.319660 0.500000 -0.525385
O2    O     O_2   0.760063 0.745714 0.195044 -0.275665
O3    O     O_3   0.645089 0.746205 0.329184 -0.533367
O4    O     O_2   0.166611 0.561127 0.701546 -0.281947
O5    O     O_2   0.211769 0.722106 0.799087 -0.268953
O6    O     O_3   0.337848 0.739610 0.668798 -0.514324
O7    O     O_R   0.381260 0.680340 0.500000 -0.505699
O8    O     O_R   0.381170 0.319630 0.500010 -0.528072
O9    O     O_R   0.618830 0.680370 0.499990 -0.502180
O10   O     O_R   0.631780 0.498870 0.613920 -0.512294
O11   O     O_R   0.368220 0.501130 0.386080 -0.514183
O12   O     O_R   0.394210 0.498840 0.613930 -0.430734
O13   O     O_R   0.605790 0.501160 0.386070 -0.427706
O14   O     O_2   0.828958 0.582803 0.289817 -0.289284
S1    S     S_3+6 0.708295 0.660804 0.257436 0.009616
S2    S     S_3+6 0.277027 0.645213 0.737986 0.026096

loop_
_geom_bond_atom_site_label_1
_geom_bond_atom_site_label_2
_ccdc_geom_bond_type
C7    C9    A    
O14   S1    D    
C14   H10   S    
C5    C7    A    
C21   H2    S    
C25   N3    A    
C26   H5    S    
C3    C5    S    
C3    O12   A    
C2    H6    S    
C25   H4    S    
C9    H9    S    
Cu2   O8    S    
C24   H3    S    
N1    N2    D    
Cu1   O9    S    
O2    S1    D    
C9    C11   A    
C10   H1    S    
C15   H11   S    
Cu2   O12   S    
O6    S2    S    
C26   N3    A    
C16   H12   S    
C12   O9    A    
C4    O13   A    
C4    O11   A    
C8    C10   A    
C20   H16   S    
Cu2   O7    S    
C20   C22   A    
C1    C23   S    
C2    C25   A    
C18   C20   A    
C13   C15   A    
C21   C23   A    
H7    O3    S    
C13   N2    S    
C11   C14   A    
C14   C16   A    
C7    S2    S    
C11   N1    S    
C17   H13   S    
H8    O6    S    
C8    S1    S    
C18   C23   A    
C12   O7    A    
C3    O10   A    
C12   C22   S    
C19   C22   A    
O3    S1    S    
C4    C6    S    
O4    S2    D    
Cu2   O11   S    
Cu1   N3    S    
Cu1   Cu2   S    
C15   C17   A    
C6    C17   A    
Cu2   N4    S    
C5    C16   A    
C6    C8    A    
Cu1   O13   S    
C18   H14   S    
C2    N4    A    
Cu1   O10   S    
C1    O1    A    
O5    S2    D    
C1    O8    A    
C19   H15   S    
Cu1   O1    S    
C24   C26   A    
C19   C21   A    
C10   C13   A    
C24   N4    A    
