data_mof_unit_47278.cif
_audit_creation_date              2012-12-11T15:31:43-0500
_audit_creation_method            fapswitch 2.2
_symmetry_space_group_name_H-M    P1
_symmetry_Int_Tables_number       1
_space_group_crystal_system       triclinic
_cell_length_a                    6.945002
_cell_length_b                    14.819577
_cell_length_c                    21.327637
_cell_angle_alpha                 74.175336
_cell_angle_beta                  90.483316
_cell_angle_gamma                 89.927707
_cell_volume                      2111.80115803

loop_
_atom_site_label
_atom_site_type_symbol
_atom_type_description
_atom_site_fract_x
_atom_site_fract_y
_atom_site_fract_z
_atom_type_partial_charge
O1    O     O_R   0.648150 0.130050 0.214300 -0.543739
O2    O     O_R   0.351850 0.869950 0.785700 -0.537901
O3    O     O_R   0.320490 0.006660 0.340150 -0.552475
O4    O     O_R   0.679510 0.993340 0.659850 -0.550577
O5    O     O_R   0.146100 0.869940 0.285700 -0.531273
O6    O     O_R   0.853900 0.130060 0.714300 -0.550236
C1    C     C_R   0.489288 0.001913 0.367138 0.698613
C2    C     C_R   0.511113 0.999930 0.632598 0.700434
O7    O     O_R   0.318690 0.137980 0.218120 -0.554500
O8    O     O_R   0.681310 0.862020 0.781880 -0.549812
O9    O     O_R   0.144280 0.002190 0.162800 -0.522754
O10   O     O_R   0.855720 0.997810 0.837200 -0.527326
C3    C     C_R   0.487293 0.175634 0.206745 0.733320
C4    C     C_R   0.512399 0.824335 0.793388 0.745976
O11   O     O_R   0.649960 0.997790 0.337200 -0.534751
O12   O     O_R   0.350040 0.002210 0.662800 -0.531860
O13   O     O_3   0.479300 0.955290 0.231990 -0.354066
O14   O     O_3   0.520700 0.044710 0.768010 -0.372450
V1    V     V_3+5 0.206040 0.008290 0.253340 1.463119
V2    V     V_3+5 0.793960 0.991710 0.746660 1.449604
O15   O     O_R   0.814320 0.993320 0.159850 -0.546180
O16   O     O_R   0.185680 0.006680 0.840150 -0.545376
C5    C     C_R   0.982425 0.999435 0.132785 0.716499
C6    C     C_R   0.017534 0.000769 0.867185 0.728395
O17   O     O_R   0.816120 0.862000 0.281880 -0.532336
O18   O     O_R   0.183880 0.138000 0.718120 -0.540130
C7    C     C_R   0.986557 0.823936 0.293281 0.805657
C8    C     C_R   0.014111 0.175563 0.705192 0.827401
V3    V     V_3+5 0.705540 0.991700 0.246660 1.485714
V4    V     V_3+5 0.294460 0.008300 0.753340 1.471700
O19   O     O_3   0.982150 0.044700 0.268010 -0.384068
O20   O     O_3   0.017850 0.955300 0.731990 -0.374528
C9    C     C_R   0.008948 0.721472 0.318413 -0.274867
C10   C     C_R   0.999843 0.277433 0.677378 -0.262418
C11   C     C_R   0.212539 0.587861 0.320792 -0.244783
C12   C     C_R   0.900145 0.429318 0.687345 -0.232795
C13   C     C_R   0.139200 0.675316 0.287337 0.402732
C14   C     C_R   0.926285 0.333088 0.715345 0.379704
C15   C     C_R   0.938831 0.674931 0.380469 0.398447
C16   C     C_R   0.039418 0.316981 0.610853 0.403000
C17   C     C_R   0.036343 0.593004 0.418818 -0.021869
C18   C     C_R   0.026346 0.416090 0.583414 -0.023975
C19   C     C_R   0.167923 0.548046 0.386401 -0.064873
C20   C     C_R   0.944341 0.470200 0.621785 -0.067591
C21   C     C_R   0.012934 0.555001 0.487850 -0.106483
C22   C     C_R   0.085221 0.463001 0.518634 -0.096733
C23   C     C_R   0.231392 0.426393 0.486314 0.540869
C24   C     C_R   0.943516 0.608524 0.529254 0.520919
C25   C     C_R   0.266009 0.467260 0.420619 -0.271557
C26   C     C_R   0.910501 0.565591 0.594942 -0.246446
H1    H     H_    0.377798 0.437609 0.397039 0.145663
H2    H     H_    0.859454 0.608206 0.625307 0.136798
H3    H     H_    0.316197 0.554373 0.296598 0.140889
H4    H     H_    0.845393 0.472315 0.717040 0.141453
C27   C     C_3   0.824552 0.995936 0.977279 0.593765
C28   C     C_3   0.175271 0.004620 0.022647 0.590262
C29   C     C_3   0.913803 0.920726 0.035228 -0.280178
C30   C     C_3   0.086011 0.079819 0.964679 -0.267035
H5    H     H_    0.842748 0.855931 0.064316 0.123193
H6    H     H_    0.156572 0.144697 0.935459 0.139672
C31   C     C_3   0.990825 0.000317 0.062339 -0.143452
C32   C     C_3   0.009016 0.000176 0.937589 -0.143653
C33   C     C_3   0.898036 0.075703 0.004780 -0.253983
C34   C     C_3   0.101794 0.924825 0.995158 -0.263379
C35   C     C_3   0.598970 0.076410 0.464247 -0.150496
C36   C     C_3   0.403074 0.927934 0.535223 -0.156310
C37   C     C_3   0.420123 0.081455 0.506280 -0.144918
C38   C     C_3   0.581750 0.922745 0.493274 -0.147081
H7    H     H_    0.353489 0.146796 0.512099 0.168417
H8    H     H_    0.648120 0.857320 0.487520 0.169406
H9    H     H_    0.679833 0.137593 0.434566 0.125310
H10   H     H_    0.323765 0.867865 0.566580 0.116115
C39   C     C_3   0.504971 0.001794 0.561791 0.002897
C40   C     C_3   0.496731 0.002293 0.437642 -0.003105
C41   C     C_3   0.684336 0.996812 0.520643 -0.123462
C42   C     C_3   0.317487 0.007417 0.478876 -0.130361
H11   H     H_    0.836030 0.992522 0.538118 0.115320
H12   H     H_    0.165708 0.011723 0.461494 0.110290
C43   C     C_R   0.495760 0.277177 0.179493 -0.124218
C44   C     C_R   0.500461 0.722716 0.820320 -0.126094
C45   C     C_R   0.530099 0.433634 0.191763 -0.242176
C46   C     C_R   0.418403 0.569177 0.809650 -0.248529
C47   C     C_R   0.512264 0.337124 0.219964 0.447143
C48   C     C_R   0.444283 0.665289 0.781036 0.458265
C49   C     C_R   0.488541 0.313672 0.111888 -0.301277
C50   C     C_R   0.529573 0.684726 0.887194 -0.306016
C51   C     C_R   0.496499 0.411150 0.082434 0.094849
C52   C     C_R   0.496070 0.588894 0.917529 0.095541
C53   C     C_R   0.522739 0.470813 0.123722 0.073354
C54   C     C_R   0.445111 0.530819 0.877034 0.077209
C55   C     C_R   0.481400 0.450891 0.013499 0.073173
C56   C     C_R   0.507505 0.549480 0.986626 0.075051
C57   C     C_R   0.537116 0.605719 0.029874 -0.193829
C58   C     C_R   0.434986 0.395755 0.970803 -0.187305
C59   C     C_R   0.542304 0.567073 0.096918 -0.185008
C60   C     C_R   0.415937 0.435264 0.904156 -0.172525
H13   H     H_    0.574854 0.732425 0.914234 0.102582
H14   H     H_    0.482004 0.263761 0.083670 0.098995
H15   H     H_    0.550067 0.479398 0.223210 0.128963
H16   H     H_    0.371822 0.524984 0.779448 0.129300
H17   H     H_    0.551289 0.680778 0.013785 0.109784
H18   H     H_    0.405009 0.321857 0.987447 0.110849
H19   H     H_    0.562440 0.613191 0.128126 0.133441
H20   H     H_    0.376148 0.390470 0.873572 0.123661
O21   O     O_3   0.398364 0.704889 0.716058 -0.559674
C61   C     C_3   0.542386 0.680919 0.677276 -0.293006
H21   H     H_    0.541524 0.604445 0.681406 0.136807
H22   H     H_    0.687392 0.703404 0.689838 0.143092
H23   H     H_    0.512445 0.718271 0.625511 0.167031
O22   O     O_3   0.527433 0.301097 0.286797 -0.564426
C62   C     C_3   0.342844 0.301422 0.313727 -0.285463
H24   H     H_    0.242419 0.254808 0.296325 0.148974
H25   H     H_    0.282219 0.373680 0.302702 0.141722
H26   H     H_    0.355052 0.273923 0.367493 0.173539
O23   O     O_3   0.081827 0.256898 0.573161 -0.532465
C63   C     C_3   0.912634 0.240174 0.541127 -0.243907
H27   H     H_    0.856564 0.305729 0.506829 0.143255
H28   H     H_    0.799798 0.206644 0.576566 0.126382
H29   H     H_    0.947671 0.190808 0.511994 0.153384
O24   O     O_3   0.778179 0.711568 0.402553 -0.526672
C64   C     C_3   0.615558 0.661565 0.390951 -0.179582
H30   H     H_    0.624564 0.586357 0.418818 0.119094
H31   H     H_    0.596186 0.668399 0.337975 0.138450
H32   H     H_    0.485823 0.691735 0.407656 0.147406
O25   O     O_3   0.889588 0.293257 0.780802 -0.556784
C65   C     C_3   0.689070 0.292840 0.791095 -0.211749
H33   H     H_    0.609376 0.259584 0.757715 0.140422
H34   H     H_    0.633486 0.364877 0.785982 0.120865
H35   H     H_    0.660047 0.250788 0.841696 0.164956
O26   O     O_3   0.211834 0.719429 0.226559 -0.543817
C66   C     C_3   0.079009 0.708478 0.178868 -0.252181
H36   H     H_    0.939460 0.743596 0.182588 0.116547
H37   H     H_    0.055647 0.633020 0.182070 0.139466
H38   H     H_    0.138890 0.742204 0.130042 0.168051
O27   O     O_3   0.356960 0.356909 0.519625 -0.531471
C67   C     C_3   0.498918 0.397772 0.550877 -0.243280
H39   H     H_    0.435441 0.437665 0.583027 0.131614
H40   H     H_    0.595367 0.443818 0.514534 0.126717
H41   H     H_    0.588006 0.340995 0.582500 0.154463
O28   O     O_3   0.924469 0.704858 0.508888 -0.532504
C68   C     C_3   0.106833 0.745507 0.510816 -0.239611
H42   H     H_    0.209467 0.725497 0.477121 0.122043
H43   H     H_    0.166844 0.726316 0.561292 0.138725
H44   H     H_    0.089608 0.822785 0.494414 0.158375
O29   O     O_3   0.637449 0.996497 0.950917 -0.535587
C69   C     C_3   0.586845 0.904729 0.950269 -0.154223
H45   H     H_    0.544297 0.863161 0.999802 0.132209
H46   H     H_    0.704878 0.868182 0.931931 0.085700
H47   H     H_    0.461698 0.908478 0.917132 0.150852
O30   O     O_3   0.362284 0.003979 0.049067 -0.531111
C70   C     C_3   0.413398 0.095732 0.049602 -0.150696
H48   H     H_    0.296276 0.132488 0.068270 0.087131
H49   H     H_    0.455223 0.137315 0.999986 0.126084
H50   H     H_    0.539311 0.091772 0.082447 0.150578
H51   H     H_    0.814760 0.137923 0.008448 0.119368
H52   H     H_    0.185104 0.862599 0.991517 0.116319

loop_
_geom_bond_atom_site_label_1
_geom_bond_atom_site_label_2
_ccdc_geom_bond_type
C30   C32   S    
C36   C38   S    
C3    C43   S    
C65   H33   S    
C51   C55   A    
C11   H3    S    
O13   V3    S    
C62   H24   S    
O4    C2    A    
C66   H38   S    
V1    O19   S    
O29   C69   S    
O27   C67   S    
C23   C25   A    
C21   C22   A    
C13   O26   S    
C38   C41   S    
O9    V1    S    
C9    C15   A    
C40   C42   S    
C10   C16   A    
C11   C13   A    
C42   H12   S    
O3    C1    A    
C68   H43   S    
C50   C52   A    
C27   O29   S    
C16   O23   S    
C61   H21   S    
C38   C40   S    
C15   O24   S    
C27   C32   S    
C63   H27   S    
C18   C22   A    
C70   H50   S    
C31   C33   S    
C50   H13   S    
O7    C3    A    
O22   C62   S    
C56   C57   A    
C64   H32   S    
C32   C34   S    
C49   H14   S    
O5    C7    A    
O7    V1    S    
O6    C8    A    
C52   C56   A    
O8    V2    S    
C25   H1    S    
C27   C33   S    
C26   H2    S    
C70   H48   S    
C28   C34   S    
O3    V1    S    
C37   C39   S    
C4    C44   S    
C28   C30   S    
V4    O20   S    
C11   C19   A    
C44   C48   A    
C45   C53   A    
C24   C26   A    
C8    C10   S    
C2    O12   A    
C6    C32   S    
C17   C19   A    
C18   C20   A    
C67   H41   S    
C45   C47   A    
C59   H19   S    
O11   V3    S    
C1    C40   S    
C69   H46   S    
C49   C51   A    
O17   V3    S    
C36   H10   S    
C24   O28   S    
O28   C68   S    
C67   H40   S    
O8    C4    A    
C68   H44   S    
C57   H17   S    
C55   C56   A    
C19   C25   A    
C1    O11   A    
C45   H15   S    
C65   H35   S    
C35   C37   S    
C35   H9    S    
C36   C39   S    
O15   V3    S    
C54   C60   A    
C9    C13   A    
C35   C40   S    
C37   H7    S    
C53   C59   A    
C69   H47   S    
C16   C18   A    
C30   H6    S    
C36   C42   S    
O10   V2    S    
O1    V3    S    
C48   O21   S    
C47   O22   S    
C62   H25   S    
C58   C60   A    
C41   H11   S    
C58   H18   S    
C64   H30   S    
O14   V4    S    
C52   C54   A    
O18   V4    S    
C46   C48   A    
C27   C29   S    
O25   C65   S    
O16   C6    A    
C12   C20   A    
C29   H5    S    
O1    C3    A    
C39   C41   S    
C28   O30   S    
C66   H36   S    
C43   C49   A    
C14   O25   S    
O24   C64   S    
C29   C34   S    
C69   H45   S    
V2    O20   S    
C21   C24   A    
C20   C26   A    
C30   C33   S    
C60   H20   S    
C34   H52   S    
C22   C23   A    
C65   H34   S    
O16   V4    S    
C23   O27   S    
C10   C14   A    
C46   H16   S    
C67   H39   S    
C66   H37   S    
C35   C41   S    
C29   C31   S    
O5    V1    S    
O17   C7    A    
O6    V2    S    
O21   C61   S    
O10   C6    A    
O18   C8    A    
C46   C54   A    
C63   H29   S    
O2    V4    S    
O15   C5    A    
O26   C66   S    
C33   H51   S    
V3    O19   S    
C68   H42   S    
C12   C14   A    
C43   C47   A    
C57   C59   A    
C61   H22   S    
O9    C5    A    
C2    C39   S    
O13   V1    S    
C63   H28   S    
C62   H26   S    
O14   V2    S    
C70   H49   S    
O2    C4    A    
C64   H31   S    
C12   H4    S    
O4    V2    S    
C44   C50   A    
C5    C31   S    
C15   C17   A    
C38   H8    S    
C7    C9    S    
C51   C53   A    
C17   C21   A    
C28   C31   S    
C37   C42   S    
O12   V4    S    
O23   C63   S    
O30   C70   S    
C55   C58   A    
C61   H23   S    
