data_mof_unit_57706.cif
_audit_creation_date              2012-12-11T15:14:44-0500
_audit_creation_method            fapswitch 2.2
_symmetry_space_group_name_H-M    P1
_symmetry_Int_Tables_number       1
_space_group_crystal_system       triclinic
_cell_length_a                    22.271339
_cell_length_b                    7.227549
_cell_length_c                    19.199593
_cell_angle_alpha                 90.000374
_cell_angle_beta                  99.242453
_cell_angle_gamma                 90.000115
_cell_volume                      3050.38222924

loop_
_atom_site_label
_atom_site_type_symbol
_atom_type_description
_atom_site_fract_x
_atom_site_fract_y
_atom_site_fract_z
_atom_type_partial_charge
O1    O     O_R   0.448470 0.506130 0.415700 -0.532946
O2    O     O_R   0.551530 0.006130 0.584300 -0.532945
O3    O     O_R   0.436320 0.174490 0.555800 -0.528978
O4    O     O_R   0.563680 0.674490 0.444200 -0.528975
C1    C     C_R   0.421076 0.344388 0.575032 0.699488
C2    C     C_R   0.578924 0.844387 0.424968 0.699486
O5    O     O_R   0.441350 0.176340 0.414480 -0.533087
O6    O     O_R   0.558650 0.676340 0.585520 -0.533087
O7    O     O_R   0.556600 0.007100 0.441970 -0.533567
O8    O     O_R   0.443400 0.507100 0.558030 -0.533568
C3    C     C_R   0.427103 0.344716 0.388969 0.681196
C4    C     C_R   0.572896 0.844717 0.611031 0.681193
O9    O     O_3   0.537810 0.339550 0.509190 -0.370909
O10   O     O_3   0.462190 0.839550 0.490810 -0.370910
V1    V     V_3+5 0.492990 0.064280 0.498300 1.473269
V2    V     V_3+5 0.507010 0.564280 0.501700 1.473271
C5    C     C_R   0.868027 0.986124 0.692346 -0.145504
C6    C     C_R   0.131980 0.486256 0.307646 -0.145496
H1    H     H_    0.885738 0.015092 0.644338 0.199283
H2    H     H_    0.114270 0.515286 0.355651 0.199257
C7    C     C_R   0.886961 0.942867 0.819281 -0.111800
C8    C     C_R   0.113040 0.442879 0.180718 -0.111792
C9    C     C_R   0.591644 0.814507 0.740275 -0.200032
C10   C     C_R   0.408353 0.314442 0.259727 -0.200025
C11   C     C_R   0.628919 0.812364 0.806298 0.009914
C12   C     C_R   0.371076 0.312279 0.193705 0.009913
C13   C     C_R   0.691510 0.845261 0.810641 -0.190929
C14   C     C_R   0.308488 0.345204 0.189361 -0.190926
C15   C     C_R   0.718181 0.880978 0.749797 0.062068
C16   C     C_R   0.281819 0.380970 0.250202 0.062071
C17   C     C_R   0.679012 0.885129 0.683065 0.034960
C18   C     C_R   0.320989 0.385151 0.316933 0.034957
C19   C     C_R   0.782384 0.912751 0.753159 0.066461
C20   C     C_R   0.217618 0.412768 0.246840 0.066457
C21   C     C_R   0.805468 0.951444 0.689732 0.057385
C22   C     C_R   0.194538 0.451534 0.310264 0.057390
C23   C     C_R   0.765672 0.954907 0.624559 0.155580
C24   C     C_R   0.234334 0.455027 0.375435 0.155587
C25   C     C_R   0.703830 0.921489 0.621866 -0.196904
C26   C     C_R   0.296175 0.421571 0.378130 -0.196904
C27   C     C_R   0.824577 0.907828 0.817345 -0.207425
C28   C     C_R   0.175422 0.407801 0.182655 -0.207419
C29   C     C_R   0.909079 0.982903 0.755948 -0.047856
C30   C     C_R   0.090928 0.482997 0.244046 -0.047837
C31   C     C_R   0.615583 0.851057 0.678772 -0.086587
C32   C     C_R   0.384417 0.351047 0.321228 -0.086590
H3    H     H_    0.810585 0.879214 0.867384 0.106224
H4    H     H_    0.189411 0.379124 0.132620 0.106232
H5    H     H_    0.543319 0.787623 0.736402 0.148746
H6    H     H_    0.456676 0.287532 0.263601 0.148748
H7    H     H_    0.718278 0.842488 0.862461 0.156383
H8    H     H_    0.281719 0.342419 0.137541 0.156383
H9    H     H_    0.675056 0.924853 0.570763 0.131805
H10   H     H_    0.324949 0.424958 0.429232 0.131817
C33   C     C_3   0.770107 0.769327 0.300930 0.007628
C34   C     C_3   0.229887 0.269360 0.699059 0.007620
C35   C     C_3   0.805469 0.947936 0.289571 -0.167413
C36   C     C_3   0.194534 0.447977 0.710433 -0.167422
H11   H     H_    0.849823 0.989996 0.320509 0.172415
H12   H     H_    0.150182 0.490071 0.679498 0.172409
H13   H     H_    0.739505 0.194731 0.309159 0.161610
H14   H     H_    0.260512 0.694755 0.690866 0.161596
C37   C     C_1   0.875867 0.940265 0.121895 -0.114537
C38   C     C_1   0.124133 0.440263 0.878106 -0.114536
C39   C     C_1   0.625363 0.853951 0.379983 -0.123682
C40   C     C_1   0.374636 0.353955 0.620016 -0.123684
C41   C     C_3   0.758262 0.732220 0.220653 -0.196955
C42   C     C_3   0.241729 0.232208 0.779333 -0.196950
C43   C     C_3   0.792669 0.912211 0.209270 0.086305
C44   C     C_3   0.207332 0.412207 0.790731 0.086310
C45   C     C_3   0.697974 0.843857 0.214707 -0.153748
C46   C     C_3   0.302023 0.343820 0.785289 -0.153770
C47   C     C_3   0.710527 0.879595 0.295010 0.054446
C48   C     C_3   0.289472 0.379602 0.704989 0.054449
C49   C     C_3   0.733091 0.023090 0.202964 0.206140
C50   C     C_3   0.266916 0.523061 0.797046 0.206139
C51   C     C_3   0.745072 0.059494 0.283505 -0.152567
C52   C     C_3   0.254937 0.559508 0.716508 -0.152555
C53   C     C_1   0.838322 0.928830 0.161184 0.039415
C54   C     C_1   0.161678 0.428825 0.838817 0.039412
C55   C     C_1   0.663882 0.864560 0.341922 0.063544
C56   C     C_1   0.336118 0.364566 0.658077 0.063533
H15   H     H_    0.653661 0.801508 0.183764 0.167102
H16   H     H_    0.346333 0.301437 0.816229 0.167101
H17   H     H_    0.764267 0.597286 0.195111 0.176351
H18   H     H_    0.235717 0.097261 0.804864 0.176337
O11   O     O_R   0.056650 0.288730 0.942060 -0.527190
O12   O     O_R   0.943350 0.788730 0.057940 -0.527204
O13   O     O_R   0.058660 0.616870 0.085540 -0.538558
O14   O     O_R   0.941340 0.116870 0.914460 -0.538543
C57   C     C_R   0.072467 0.448853 0.111484 0.742943
C58   C     C_R   0.927533 0.948852 0.888516 0.742982
O15   O     O_R   0.063700 0.618520 0.944220 -0.525417
O16   O     O_R   0.936300 0.118520 0.055780 -0.525414
O17   O     O_R   0.948460 0.787610 0.915680 -0.529235
O18   O     O_R   0.051540 0.287610 0.084320 -0.529225
C59   C     C_R   0.078721 0.450032 0.924448 0.706180
C60   C     C_R   0.921279 0.950033 0.075552 0.706175
O19   O     O_3   0.962230 0.453430 0.990860 -0.373729
O20   O     O_3   0.037770 0.953430 0.009140 -0.373722
V3    V     V_3+5 0.007010 0.728750 0.001700 1.526473
V4    V     V_3+5 0.992990 0.228750 0.998300 1.526498
C61   C     C_2   0.974634 0.021468 0.753663 0.756956
O21   O     O_2   0.014239 0.972162 0.801738 -0.557966
O22   O     O_R   0.991265 0.112579 0.695337 -0.642862
H19   H     H_    0.036870 0.130778 0.699702 0.330860
C62   C     C_2   0.025375 0.521605 0.246326 0.757004
O23   O     O_2   0.985765 0.472136 0.198285 -0.557951
O24   O     O_R   0.008754 0.612939 0.304611 -0.642873
H20   H     H_    0.963150 0.631141 0.300249 0.330814
C63   C     C_2   0.792217 0.624248 0.354710 0.803451
O25   O     O_2   0.840808 0.547345 0.352913 -0.543605
O26   O     O_R   0.757251 0.576805 0.406265 -0.652022
H21   H     H_    0.776963 0.476681 0.439237 0.324719
C64   C     C_2   0.207769 0.124323 0.645264 0.803432
O27   O     O_2   0.159187 0.047374 0.647072 -0.543635
O28   O     O_R   0.242716 0.076978 0.593679 -0.652003
H22   H     H_    0.223000 0.976881 0.560696 0.324744
I1    I     I_    0.702176 0.225386 0.124342 -0.377800
I2    I     I_    0.297837 0.725321 0.875681 -0.377776
I3    I     I_    0.793922 0.008777 0.525498 -0.384303
I4    I     I_    0.206089 0.508993 0.474492 -0.384292
C65   C     C_2   0.602522 0.774971 0.871282 0.805453
O29   O     O_2   0.547997 0.745480 0.867488 -0.539884
O30   O     O_R   0.639929 0.773426 0.937217 -0.653102
H23   H     H_    0.616617 0.746555 0.977310 0.326294
C66   C     C_2   0.397471 0.274835 0.128723 0.805454
O31   O     O_2   0.451995 0.245324 0.132518 -0.539886
O32   O     O_R   0.360063 0.273267 0.062788 -0.653101
H24   H     H_    0.383374 0.246364 0.022697 0.326298

loop_
_geom_bond_atom_site_label_1
_geom_bond_atom_site_label_2
_ccdc_geom_bond_type
C24   C26   A    
C9    C31   A    
O18   V4    S    
C13   C15   A    
C42   H18   S    
C63   O25   D    
O1    C3    A    
C46   C50   S    
O2    C4    A    
C2    O7    A    
C5    C29   A    
O12   V3    S    
C65   O29   D    
C63   O26   S    
C37   C53   T    
O5    C3    A    
C25   H9    S    
C50   I2    S    
C21   C23   A    
C10   C12   A    
O26   H21   S    
C37   C60   S    
C35   H11   S    
O16   C60   A    
C36   H12   S    
C64   O27   D    
C15   C19   A    
O14   V4    S    
C5    H1    S    
C57   O18   A    
C38   C54   T    
C39   C55   T    
C2    C39   S    
C8    C30   A    
H13   C51   S    
C64   O28   S    
C20   C28   A    
C8    C57   S    
O13   C57   A    
C41   C45   S    
C42   C46   S    
C33   C63   S    
O5    V1    S    
O6    V2    S    
C7    C29   A    
C62   O24   S    
C48   C56   S    
C47   C55   S    
C13   H7    S    
C45   H15   S    
C34   C36   S    
C10   H6    S    
C41   H17   S    
C34   C48   S    
C16   C20   A    
C44   C54   S    
C35   C51   S    
C49   I1    S    
C46   C48   S    
O15   V3    S    
C45   C47   S    
C36   C44   S    
C34   C42   S    
C58   O17   A    
C46   H16   S    
C41   C43   S    
O4    V2    S    
C66   O32   S    
C6    C30   A    
C40   C56   T    
O11   V4    S    
C11   C65   S    
O14   C58   A    
O6    C4    A    
O19   V4    S    
C27   H3    S    
C61   O22   S    
O1    V2    S    
C28   H4    S    
O2    V1    S    
C49   C51   S    
O16   V4    S    
C24   I4    S    
C7    C27   A    
O4    C2    A    
C38   C59   S    
C26   H10   S    
C33   C35   S    
C44   C50   S    
O30   H23   S    
C23   I3    S    
C43   C53   S    
C62   O23   D    
C17   C31   A    
C66   O31   D    
O15   C59   A    
O3    V1    S    
O32   H24   S    
C30   C62   S    
O13   V3    S    
C18   C32   A    
H14   C52   S    
C45   C49   S    
C50   C52   S    
C1    C40   S    
O3    C1    A    
C33   C41   S    
C4    C31   S    
C11   C13   A    
C9    H5    S    
O22   H19   S    
C12   C14   A    
C19   C27   A    
C22   C24   A    
O7    V1    S    
C10   C32   A    
C1    O8    A    
C15   C17   A    
O8    V2    S    
O28   H22   S    
C16   C18   A    
C14   H8    S    
C8    C28   A    
C14   C16   A    
O20   V3    S    
C19   C21   A    
C34   C64   S    
C17   C25   A    
C43   C49   S    
C6    H2    S    
C12   C66   S    
C18   C26   A    
C29   C61   S    
C65   O30   S    
C36   C52   S    
C33   C47   S    
C9    C11   A    
C20   C22   A    
C23   C25   A    
C48   C52   S    
O9    V2    S    
C61   O21   D    
C42   C44   S    
C47   C51   S    
O10   V1    S    
C3    C32   S    
C5    C21   A    
C35   C43   S    
O24   H20   S    
C6    C22   A    
O12   C60   A    
O17   V3    S    
O11   C59   A    
C7    C58   S    
