data_mof_unit_60918.cif
_audit_creation_date              2012-12-10T16:52:58-0500
_audit_creation_method            fapswitch 2.2
_symmetry_space_group_name_H-M    P1
_symmetry_Int_Tables_number       1
_space_group_crystal_system       triclinic
_cell_length_a                    26.214503
_cell_length_b                    26.239154
_cell_length_c                    22.301802
_cell_angle_alpha                 90.010482
_cell_angle_beta                  53.867436
_cell_angle_gamma                 90.006525
_cell_volume                      12389.5983941

loop_
_atom_site_label
_atom_site_type_symbol
_atom_type_description
_atom_site_fract_x
_atom_site_fract_y
_atom_site_fract_z
_atom_type_partial_charge
C1    C     C_R   0.650298 0.250064 0.699425 0.506252
C2    C     C_1   0.889527 0.750004 0.221254 0.024547
C3    C     C_2   0.250805 0.943509 0.508641 0.110435
C4    C     C_3   0.467904 0.767766 0.975529 0.082996
C5    C     C_3   0.476344 0.218900 0.975361 0.083692
C6    C     C_3   0.968588 0.269313 0.975514 0.083090
C7    C     C_3   0.977239 0.717897 0.975358 0.083729
C8    C     C_3   0.481831 0.268894 0.632508 -0.001451
C9    C     C_3   0.411510 0.268619 0.695223 -0.376441
C10   C     C_3   0.481609 0.725971 0.630165 -0.001830
C11   C     C_3   0.411012 0.723966 0.691586 -0.376523
C12   C     C_3   0.981840 0.768858 0.632533 -0.001432
C13   C     C_1   0.389535 0.749971 0.221254 0.024528
C14   C     C_3   0.911523 0.768569 0.695265 -0.376498
C15   C     C_3   0.981613 0.226011 0.630190 -0.001799
C16   C     C_3   0.911019 0.224020 0.691626 -0.376645
C17   C     C_3   0.890026 0.174536 0.998542 -0.003516
C18   C     C_3   0.839940 0.133126 0.029641 -0.375881
C19   C     C_3   0.872038 0.786532 0.998409 -0.005767
C20   C     C_3   0.810050 0.814086 0.029827 -0.372807
C21   C     C_3   0.392772 0.670686 0.998483 -0.003323
C22   C     C_3   0.344457 0.627872 0.029426 -0.376096
C23   C     C_3   0.373092 0.290133 0.998446 -0.005551
C24   C     C_1   0.389527 0.249999 0.221256 0.024515
C25   C     C_3   0.311912 0.318997 0.029871 -0.373107
C26   C     C_3   0.523826 0.618029 0.002096 -0.002192
C27   C     C_3   0.533991 0.564309 0.971352 -0.376959
C28   C     C_3   0.479343 0.382898 0.002736 -0.002686
C29   C     C_3   0.473699 0.432433 0.971682 -0.378839
C30   C     C_3   0.019178 0.117248 0.002207 -0.002115
C31   C     C_3   0.027634 0.063713 0.971490 -0.376909
C32   C     C_3   0.975646 0.882306 0.002658 -0.002862
C33   C     C_3   0.968729 0.931234 0.971520 -0.378709
C34   C     C_3   0.538406 0.150054 0.383924 -0.001825
C35   C     C_1   0.610695 0.749772 0.778739 0.022400
C36   C     C_3   0.524409 0.109427 0.346822 -0.347824
C37   C     C_3   0.532903 0.854492 0.393487 -0.003126
C38   C     C_3   0.516905 0.896184 0.359684 -0.346301
C39   C     C_3   0.038387 0.650044 0.383953 -0.001812
C40   C     C_3   0.024387 0.609418 0.346853 -0.347787
C41   C     C_3   0.032923 0.354473 0.393447 -0.003119
C42   C     C_3   0.016935 0.396158 0.359625 -0.346323
C43   C     C_1   0.610744 0.250313 0.778740 0.023012
C44   C     C_1   0.110701 0.249759 0.778740 0.022451
C45   C     C_1   0.110741 0.750308 0.778738 0.023071
C46   C     C_3   0.982569 0.298293 0.024849 -0.154442
C47   C     C_3   0.998358 0.702613 0.024715 -0.154814
C48   C     C_3   0.480834 0.798081 0.024877 -0.154478
C49   C     C_R   0.650298 0.749945 0.699427 0.506634
C50   C     C_3   0.497022 0.202330 0.024709 -0.154823
C51   C     C_3   0.963500 0.249974 0.073513 0.006339
C52   C     C_3   0.963575 0.750066 0.073510 0.006209
C53   C     C_3   0.463488 0.749967 0.073513 0.006361
C54   C     C_3   0.463576 0.250050 0.073514 0.006219
C55   C     C_3   0.551082 0.780113 0.974847 -0.155814
C56   C     C_3   0.558962 0.234018 0.974848 -0.155518
C57   C     C_3   0.052146 0.278729 0.974835 -0.155772
C58   C     C_3   0.059397 0.735320 0.974854 -0.155468
C59   C     C_3   0.537147 0.749764 0.926469 0.006569
C60   C     C_R   0.150297 0.750062 0.699425 0.506207
C61   C     C_3   0.537292 0.250464 0.926473 0.006435
C62   C     C_3   0.037160 0.249730 0.926470 0.006563
C63   C     C_3   0.037290 0.750465 0.926471 0.006417
C64   C     C_3   0.032255 0.230797 0.024476 0.081696
C65   C     C_3   0.023940 0.782299 0.024631 0.083311
C66   C     C_3   0.532899 0.732372 0.024458 0.081620
C67   C     C_3   0.524828 0.281269 0.024636 0.083165
C68   C     C_3   0.519516 0.702389 0.975929 0.270115
C69   C     C_3   0.503798 0.297536 0.976111 0.269897
C70   C     C_3   0.017833 0.202144 0.975961 0.270052
C71   C     C_R   0.150298 0.249944 0.699427 0.506618
C72   C     C_3   0.002478 0.797282 0.976097 0.269902
C73   C     C_1   0.922954 0.249941 0.154541 0.000168
C74   C     C_1   0.922964 0.750055 0.154541 0.000099
C75   C     C_1   0.422951 0.749930 0.154541 0.000085
C76   C     C_1   0.422966 0.250043 0.154543 0.000057
C77   C     C_R   0.849760 0.250019 0.300573 0.504164
C78   C     C_R   0.849753 0.749970 0.300574 0.504762
C79   C     C_R   0.349762 0.750016 0.300572 0.504067
C80   C     C_R   0.349753 0.249970 0.300575 0.504682
C81   C     C_1   0.577458 0.749696 0.845448 -0.001119
C82   C     C_3   0.949385 0.221585 0.024304 0.270202
C83   C     C_1   0.577556 0.250467 0.845449 -0.000607
C84   C     C_1   0.077467 0.249671 0.845448 -0.001060
C85   C     C_1   0.077553 0.750461 0.845447 -0.000520
C86   C     C_2   0.499209 0.226522 0.447829 0.267080
C87   C     C_2   0.498185 0.775301 0.449768 0.266755
C88   C     C_2   0.999207 0.726520 0.447835 0.267077
C89   C     C_2   0.998189 0.275293 0.449760 0.266776
C90   C     C_2   0.447345 0.255174 0.493389 -0.015911
C91   C     C_2   0.447404 0.745111 0.493251 -0.017285
C92   C     C_2   0.947343 0.755172 0.493394 -0.015908
C93   C     C_3   0.942510 0.764774 0.024271 0.269556
C94   C     C_2   0.947402 0.245111 0.493255 -0.017251
C95   C     C_2   0.555534 0.236151 0.446607 -0.130456
C96   C     C_2   0.554925 0.765837 0.447670 -0.131293
C97   C     C_2   0.055532 0.736150 0.446611 -0.130433
C98   C     C_2   0.054927 0.265828 0.447667 -0.131256
C99   C     C_2   0.551279 0.243498 0.509033 0.231467
C100  C     C_2   0.551088 0.756470 0.509427 0.230203
C101  C     C_2   0.051277 0.743494 0.509038 0.231457
C102  C     C_2   0.051088 0.256472 0.509428 0.230195
C103  C     C_2   0.737964 0.972199 0.462669 -0.142152
C104  C     C_3   0.450404 0.720242 0.024291 0.270238
C105  C     C_2   0.745846 0.027783 0.455958 -0.143588
C106  C     C_2   0.237966 0.472199 0.462667 -0.142158
C107  C     C_2   0.245848 0.527783 0.455956 -0.143630
C108  C     C_2   0.759783 0.943458 0.492790 0.145068
C109  C     C_2   0.740522 0.056549 0.509139 0.146514
C110  C     C_2   0.259783 0.443458 0.492789 0.145044
C111  C     C_2   0.240522 0.556549 0.509138 0.146528
C112  C     C_R   0.889326 0.249389 0.498794 0.520801
C113  C     C_R   0.889360 0.750701 0.498734 0.522650
C114  C     C_R   0.389327 0.749389 0.498794 0.520772
C115  C     C_3   0.442935 0.266039 0.024285 0.269599
C116  C     C_R   0.389360 0.250702 0.498733 0.522638
C117  C     C_R   0.610427 0.248979 0.501752 0.510230
C118  C     C_R   0.610408 0.750984 0.501764 0.511838
C119  C     C_R   0.110426 0.748977 0.501754 0.510172
C120  C     C_R   0.110407 0.250985 0.501765 0.511804
C121  C     C_R   0.748989 0.111420 0.500922 0.513869
C122  C     C_R   0.751021 0.888581 0.499203 0.514607
C123  C     C_R   0.248989 0.611420 0.500922 0.513841
C124  C     C_R   0.251022 0.388580 0.499203 0.514609
C125  C     C_R   0.750144 0.388651 0.500646 0.525357
C126  C     C_1   0.889534 0.249978 0.221254 0.024600
C127  C     C_R   0.749954 0.611351 0.499468 0.526440
C128  C     C_R   0.250144 0.888651 0.500646 0.525332
C129  C     C_R   0.249954 0.111351 0.499468 0.526451
C130  C     C_2   0.800112 0.527628 0.464241 0.088942
C131  C     C_2   0.798898 0.472426 0.455487 0.087336
C132  C     C_2   0.300112 0.027628 0.464242 0.088946
C133  C     C_2   0.298898 0.972426 0.455488 0.087291
C134  C     C_2   0.748202 0.556471 0.492735 0.111533
C135  C     C_2   0.750805 0.443509 0.508641 0.110377
C136  C     C_2   0.248203 0.056471 0.492735 0.111559
F1    F     F_    0.856623 0.549118 0.439488 -0.169434
F2    F     F_    0.703163 0.463925 0.574935 -0.169815
F3    F     F_    0.193086 0.035979 0.510690 -0.172058
F4    F     F_    0.203162 0.963925 0.574935 -0.169749
F5    F     F_    0.435462 0.786569 0.948976 -0.179951
F6    F     F_    0.452616 0.186305 0.948612 -0.179112
F7    F     F_    0.936856 0.289725 0.948943 -0.179818
F8    F     F_    0.954448 0.684268 0.948608 -0.179038
F9    F     F_    0.064540 0.211665 0.051056 -0.180334
F10   F     F_    0.047713 0.814843 0.051379 -0.179458
F11   F     F_    0.565840 0.714833 0.051013 -0.180497
F12   F     F_    0.849720 0.451061 0.392580 -0.164443
F13   F     F_    0.549502 0.312754 0.051384 -0.179542
F14   F     F_    0.356623 0.049118 0.439490 -0.169424
F15   F     F_    0.349721 0.951061 0.392581 -0.164462
F16   F     F_    0.795180 0.963890 0.513204 -0.158482
F17   F     F_    0.722203 0.036144 0.575201 -0.156515
F18   F     F_    0.295179 0.463889 0.513205 -0.158499
F19   F     F_    0.222202 0.536144 0.575201 -0.156464
F20   F     F_    0.693085 0.535979 0.510692 -0.172076
H1    H     H_    0.447638 0.284555 0.527512 0.094216
H2    H     H_    0.754297 0.045467 0.406792 0.126341
H3    H     H_    0.030161 0.383847 0.304488 0.168415
H4    H     H_    0.215306 0.454491 0.439946 0.126107
H5    H     H_    0.254301 0.545468 0.406790 0.126395
H6    H     H_    0.593083 0.804541 0.953572 0.133436
H7    H     H_    0.607206 0.221084 0.953578 0.133462
H8    H     H_    0.094999 0.302030 0.953548 0.133389
H9    H     H_    0.107987 0.723442 0.953590 0.133601
H10   H     H_    0.967386 0.337787 0.045885 0.136649
H11   H     H_    0.995967 0.663659 0.045640 0.135766
H12   H     H_    0.464245 0.837381 0.045937 0.136585
H13   H     H_    0.448716 0.714734 0.525385 0.092145
H14   H     H_    0.493538 0.163162 0.045626 0.135731
H15   H     H_    0.495199 0.308542 0.610419 0.142773
H16   H     H_    0.507421 0.257140 0.656050 0.172681
H17   H     H_    0.396409 0.229803 0.719443 0.171121
H18   H     H_    0.401386 0.295644 0.739344 0.102856
H19   H     H_    0.384201 0.280349 0.673929 0.163437
H20   H     H_    0.505826 0.735791 0.656074 0.175761
H21   H     H_    0.496630 0.687448 0.604100 0.140302
H22   H     H_    0.384931 0.714008 0.668072 0.163166
H23   H     H_    0.401030 0.694665 0.733158 0.104342
H24   H     H_    0.947635 0.784551 0.527520 0.094247
H25   H     H_    0.394312 0.761569 0.719658 0.171757
H26   H     H_    0.995198 0.808513 0.610473 0.142862
H27   H     H_    0.007444 0.757085 0.656049 0.172631
H28   H     H_    0.896432 0.729745 0.719456 0.170967
H29   H     H_    0.901408 0.795575 0.739402 0.102872
H30   H     H_    0.884200 0.780317 0.673996 0.163508
H31   H     H_    0.005842 0.235849 0.656078 0.175686
H32   H     H_    0.996623 0.187477 0.604155 0.140376
H33   H     H_    0.884927 0.214043 0.668131 0.163215
H34   H     H_    0.901040 0.194737 0.733218 0.104132
H35   H     H_    0.948708 0.214741 0.525402 0.092176
H36   H     H_    0.894329 0.261633 0.719667 0.171651
H37   H     H_    0.935339 0.158002 0.950863 0.164342
H38   H     H_    0.875739 0.206335 0.978448 0.158369
H39   H     H_    0.793594 0.148374 0.076689 0.169285
H40   H     H_    0.835553 0.119487 0.985725 0.098737
H41   H     H_    0.853396 0.100528 0.049415 0.152715
H42   H     H_    0.869970 0.748741 0.977405 0.159753
H43   H     H_    0.910630 0.809621 0.951341 0.162777
H44   H     H_    0.811023 0.852308 0.050563 0.153447
H45   H     H_    0.802843 0.818820 0.985816 0.100596
H46   H     H_    0.601370 0.236873 0.392872 0.097464
H47   H     H_    0.770092 0.791755 0.076258 0.173453
H48   H     H_    0.438719 0.655133 0.950626 0.164363
H49   H     H_    0.377100 0.701574 0.978662 0.158268
H50   H     H_    0.297524 0.642083 0.076642 0.169009
H51   H     H_    0.340555 0.613338 0.985508 0.098708
H52   H     H_    0.359343 0.596153 0.048919 0.152554
H53   H     H_    0.369940 0.252712 0.977462 0.159673
H54   H     H_    0.412336 0.312779 0.951362 0.162891
H55   H     H_    0.313985 0.356885 0.050584 0.153390
H56   H     H_    0.304838 0.324554 0.985870 0.100256
H57   H     H_    0.600669 0.766903 0.393849 0.100097
H58   H     H_    0.271326 0.297159 0.076318 0.173171
H59   H     H_    0.473150 0.621727 0.049878 0.162868
H60   H     H_    0.553663 0.623166 0.021974 0.160064
H61   H     H_    0.584333 0.558773 0.924068 0.175618
H62   H     H_    0.521083 0.536100 0.015333 0.096935
H63   H     H_    0.503975 0.557834 0.952016 0.152986
H64   H     H_    0.507674 0.390377 0.024127 0.158025
H65   H     H_    0.430856 0.370847 0.049484 0.163876
H66   H     H_    0.445557 0.426126 0.949810 0.158122
H67   H     H_    0.449714 0.461644 0.016233 0.089685
H68   H     H_    0.101367 0.736874 0.392876 0.097461
H69   H     H_    0.521356 0.446604 0.926178 0.170870
H70   H     H_    0.968620 0.121826 0.049933 0.162797
H71   H     H_    0.049109 0.121097 0.022155 0.160222
H72   H     H_    0.077780 0.057332 0.924189 0.175821
H73   H     H_    0.013859 0.035247 0.015480 0.096610
H74   H     H_    0.997405 0.058468 0.952196 0.152994
H75   H     H_    0.003694 0.890856 0.024130 0.157966
H76   H     H_    0.927473 0.869587 0.049355 0.163898
H77   H     H_    0.940854 0.923850 0.949545 0.158209
H78   H     H_    0.943894 0.960400 0.016049 0.089845
H79   H     H_    0.100672 0.266885 0.393846 0.100138
H80   H     H_    0.016015 0.946071 0.926076 0.170872
H81   H     H_    0.527311 0.133780 0.436604 0.145608
H82   H     H_    0.589499 0.159623 0.345888 0.132961
H83   H     H_    0.535895 0.123995 0.293390 0.166515
H84   H     H_    0.553334 0.074962 0.335783 0.090919
H85   H     H_    0.473641 0.098862 0.383631 0.190504
H86   H     H_    0.584610 0.847271 0.355456 0.132455
H87   H     H_    0.519976 0.868542 0.448040 0.144590
H88   H     H_    0.465455 0.904444 0.396612 0.184644
H89   H     H_    0.543277 0.931494 0.352685 0.091345
H90   H     H_    0.715302 0.954491 0.439949 0.126065
H91   H     H_    0.530131 0.883884 0.304542 0.168464
H92   H     H_    0.027275 0.633775 0.436644 0.145586
H93   H     H_    0.089484 0.659601 0.345926 0.133045
H94   H     H_    0.035889 0.623980 0.293412 0.166562
H95   H     H_    0.053298 0.574946 0.335833 0.090946
H96   H     H_    0.973615 0.598864 0.383655 0.190490
H97   H     H_    0.084629 0.347245 0.355421 0.132500
H98   H     H_    0.019997 0.368534 0.447995 0.144576
H99   H     H_    0.965487 0.404426 0.396548 0.184635
H100  H     H_    0.043314 0.431467 0.352612 0.091362
O1    O     O_3   0.750010 0.250010 0.500000 -0.451218
O2    O     O_R   0.613890 0.719960 0.543100 -0.563145
O3    O     O_R   0.113890 0.780040 0.543100 -0.564957
O4    O     O_R   0.113890 0.219960 0.543100 -0.563156
O5    O     O_R   0.697860 0.219970 0.664410 -0.534503
O6    O     O_R   0.697860 0.780030 0.664410 -0.534926
O7    O     O_R   0.197860 0.719970 0.664410 -0.534488
O8    O     O_R   0.197860 0.280030 0.664410 -0.534961
O9    O     O_R   0.802170 0.219970 0.335590 -0.536825
O10   O     O_R   0.802170 0.780030 0.335590 -0.536613
O11   O     O_R   0.302170 0.719970 0.335590 -0.536761
O12   O     O_3   0.750010 0.749990 0.500000 -0.451028
O13   O     O_R   0.302170 0.280030 0.335590 -0.536513
O14   O     O_R   0.637780 0.280050 0.664410 -0.539307
O15   O     O_R   0.637780 0.719950 0.664410 -0.540870
O16   O     O_R   0.137780 0.780050 0.664410 -0.539204
O17   O     O_R   0.137780 0.219950 0.664410 -0.540733
O18   O     O_R   0.862250 0.280060 0.335590 -0.530138
O19   O     O_R   0.862250 0.719940 0.335590 -0.532510
O20   O     O_R   0.362250 0.780060 0.335590 -0.530133
O21   O     O_R   0.362250 0.219940 0.335590 -0.532547
O22   O     O_R   0.843040 0.219980 0.543100 -0.558995
O23   O     O_3   0.250010 0.750010 0.500000 -0.451241
O24   O     O_R   0.843040 0.780020 0.543100 -0.558078
O25   O     O_R   0.343040 0.719980 0.543100 -0.559007
O26   O     O_R   0.343040 0.280020 0.543100 -0.558111
O27   O     O_R   0.656980 0.219970 0.456900 -0.552158
O28   O     O_R   0.656980 0.780030 0.456900 -0.553948
O29   O     O_R   0.156980 0.719970 0.456900 -0.552169
O30   O     O_R   0.156980 0.280030 0.456900 -0.553932
O31   O     O_R   0.758500 0.135440 0.543100 -0.520641
O32   O     O_R   0.758500 0.864560 0.543100 -0.520444
O33   O     O_R   0.258500 0.635440 0.543100 -0.520629
O34   O     O_3   0.250010 0.249990 0.500000 -0.451054
O35   O     O_R   0.258500 0.364560 0.543100 -0.520418
O36   O     O_R   0.698440 0.364590 0.543100 -0.527515
O37   O     O_R   0.698440 0.635410 0.543100 -0.528522
O38   O     O_R   0.198440 0.864590 0.543100 -0.527482
O39   O     O_R   0.198440 0.135410 0.543100 -0.528457
O40   O     O_R   0.741510 0.135430 0.456900 -0.559215
O41   O     O_R   0.741510 0.864570 0.456900 -0.559586
O42   O     O_R   0.241510 0.635430 0.456900 -0.559183
O43   O     O_R   0.241510 0.364570 0.456900 -0.559577
O44   O     O_R   0.801610 0.364600 0.456900 -0.530708
O45   O     O_R   0.886150 0.280070 0.456900 -0.477920
O46   O     O_R   0.801610 0.635400 0.456900 -0.530543
O47   O     O_R   0.301610 0.864600 0.456900 -0.530716
O48   O     O_R   0.301610 0.135400 0.456900 -0.530570
O49   O     O_3   0.493885 0.233868 0.577502 -0.585277
O50   O     O_3   0.493518 0.763977 0.578561 -0.584473
O51   O     O_3   0.993883 0.733857 0.577506 -0.585323
O52   O     O_3   0.993518 0.263992 0.578559 -0.584495
O53   O     O_3   0.894328 0.191899 0.055278 -0.562420
O54   O     O_3   0.880027 0.780268 0.055223 -0.562687
O55   O     O_3   0.396444 0.689158 0.055232 -0.562465
O56   O     O_R   0.886150 0.719930 0.456900 -0.476449
O57   O     O_3   0.380903 0.282843 0.055250 -0.562637
O58   O     O_3   0.541539 0.653350 0.945211 -0.561578
O59   O     O_3   0.509667 0.346169 0.945589 -0.560487
O60   O     O_3   0.038100 0.152888 0.945289 -0.561495
O61   O     O_3   0.007015 0.845623 0.945537 -0.560469
O62   O     O_3   0.501379 0.193608 0.397286 -0.528087
O63   O     O_3   0.499130 0.809888 0.401700 -0.527920
O64   O     O_3   0.001379 0.693606 0.397291 -0.528093
O65   O     O_3   0.999142 0.309871 0.401678 -0.527914
O66   O     O_R   0.386150 0.780070 0.456900 -0.477914
O67   O     O_R   0.386150 0.219930 0.456900 -0.476431
O68   O     O_R   0.613890 0.280040 0.543100 -0.564958
Zn1   Zn    Zn3+2 0.823730 0.292940 0.438410 0.979842
Zn2   Zn    Zn3+2 0.737880 0.792910 0.438410 0.937092
Zn3   Zn    Zn3+2 0.237880 0.707090 0.438410 0.937604
Zn4   Zn    Zn3+2 0.237880 0.292910 0.438410 0.937136
Zn5   Zn    Zn3+2 0.676310 0.292930 0.561590 0.943478
Zn6   Zn    Zn3+2 0.676310 0.707070 0.561590 0.942985
Zn7   Zn    Zn3+2 0.176310 0.792930 0.561590 0.943537
Zn8   Zn    Zn3+2 0.176310 0.207070 0.561590 0.943090
Zn9   Zn    Zn3+2 0.823730 0.707060 0.438410 0.980132
Zn10  Zn    Zn3+2 0.323730 0.792940 0.438410 0.979794
Zn11  Zn    Zn3+2 0.323730 0.207060 0.438410 0.980081
Zn12  Zn    Zn3+2 0.762140 0.207100 0.561590 0.954549
Zn13  Zn    Zn3+2 0.762140 0.792900 0.561590 0.955932
Zn14  Zn    Zn3+2 0.262140 0.707100 0.561590 0.954544
Zn15  Zn    Zn3+2 0.262140 0.292900 0.561590 0.955909
Zn16  Zn    Zn3+2 0.737880 0.207090 0.438410 0.937598

loop_
_geom_bond_atom_site_label_1
_geom_bond_atom_site_label_2
_ccdc_geom_bond_type
C13   C79   S    
C79   O20   A    
C87   C91   D    
C67   F13   S    
C132  F14   S    
C42   H3    S    
C133  F15   S    
C95   H46   S    
C128  O38   A    
C26   O58   S    
C36   H85   S    
C78   O10   A    
C20   H45   S    
C55   C59   S    
C95   C99   D    
C106  C107  S    
C73   C126  T    
C10   O50   S    
C17   O53   S    
C104  O55   S    
C62   C70   S    
C89   C94   D    
C25   H55   S    
C58   H9    S    
C92   H24   S    
C19   C20   S    
C11   H25   S    
C90   C116  S    
O33   Zn14  S    
C88   C97   S    
C125  C135  S    
C28   H64   S    
C21   C22   S    
C63   C85   S    
C60   O7    A    
C130  C134  D    
C30   H71   S    
O38   Zn7   S    
C29   H66   S    
C7    C93   S    
C18   H40   S    
C113  O56   A    
O14   Zn5   S    
C59   C81   S    
C86   C90   D    
C40   H95   S    
O35   Zn15  S    
C24   C76   T    
C98   C102  D    
C38   H89   S    
C8    O49   S    
O1    Zn1   S    
O56   Zn9   S    
C26   H59   S    
C37   C38   S    
C2    C78   S    
C105  H2    S    
C18   H41   S    
C22   H52   S    
O44   Zn1   S    
O39   Zn8   S    
O5    Zn12  S    
C39   O64   S    
C33   H80   S    
C49   O15   A    
O25   Zn14  S    
C11   H23   S    
C71   O8    A    
C14   H29   S    
C19   H42   S    
C51   C64   S    
C20   H47   S    
C49   O6    A    
C47   C52   S    
C118  O2    A    
C93   O54   S    
O20   Zn10  S    
O1    Zn5   S    
C130  C131  S    
O22   Zn12  S    
C109  C121  S    
C31   H73   S    
O42   Zn3   S    
C71   O17   A    
C99   O49   S    
O11   Zn3   S    
C34   H82   S    
C112  O22   A    
O4    Zn8   S    
C86   C95   S    
O9    Zn16  S    
C39   H92   S    
O7    Zn14  S    
C27   H62   S    
O1    Zn12  S    
C67   C69   S    
C111  F19   S    
C52   C65   S    
C32   H76   S    
C129  O48   A    
O43   Zn4   S    
C43   C83   T    
C30   H70   S    
C127  C134  S    
C15   O52   S    
C120  O30   A    
O32   Zn13  S    
C52   C74   S    
C59   C68   S    
C12   H27   S    
C129  O39   A    
C53   C104  S    
C41   H97   S    
C22   H50   S    
C23   O57   S    
C28   O59   S    
O19   Zn9   S    
C20   H44   S    
C1    C43   S    
C13   C75   T    
C39   H93   S    
C35   C49   S    
C9    H17   S    
O2    Zn6   S    
C8    H15   S    
C127  O37   A    
C36   H83   S    
C31   H72   S    
C5    C115  S    
C17   H38   S    
C70   C82   S    
C48   C53   S    
C134  F20   S    
C91   H13   S    
C9    H18   S    
C16   H33   S    
C39   C40   S    
C125  O44   A    
C3    C128  S    
C128  O47   A    
O68   Zn5   S    
C46   C51   S    
C50   C56   S    
C99   C117  S    
C40   H94   S    
C58   C65   S    
C132  C136  D    
O21   Zn11  S    
C17   C18   S    
C5    C61   S    
C52   C93   S    
C103  C105  S    
C113  O24   A    
C7    C63   S    
C32   O61   S    
C54   C76   S    
O34   Zn15  S    
C33   H77   S    
C105  C109  D    
C69   C115  S    
C10   H21   S    
C107  C111  D    
C30   O60   S    
O46   Zn9   S    
C101  O51   S    
O13   Zn4   S    
C65   C72   S    
C102  O52   S    
C15   H32   S    
C19   H43   S    
C91   C114  S    
C89   C98   S    
C122  O41   A    
C90   H1    S    
C54   C67   S    
C82   O53   S    
C5    F6    S    
C42   H99   S    
C96   C100  D    
C94   C112  S    
C9    H19   S    
C34   C36   S    
C10   C11   S    
C87   O63   S    
C88   O64   S    
C41   O65   S    
C65   F10   S    
C116  O67   A    
O29   Zn3   S    
C48   C55   S    
C119  O3    A    
C27   H63   S    
O26   Zn15  S    
C37   H87   S    
O23   Zn14  S    
O16   Zn7   S    
C41   C42   S    
C69   O59   S    
C116  O26   A    
C70   O60   S    
C127  O46   A    
C117  O68   A    
C53   C75   S    
C26   C27   S    
C50   C54   S    
C28   C29   S    
C4    C48   S    
C30   C31   S    
C40   H96   S    
C86   O62   S    
C26   H60   S    
C80   O13   A    
C94   H35   S    
C62   C84   S    
C110  C124  S    
C108  F16   S    
C12   H26   S    
C107  H5    S    
O17   Zn8   S    
C109  F17   S    
C92   C113  S    
C119  O29   A    
O6    Zn13  S    
C136  F3    S    
C111  C123  S    
C57   C62   S    
O67   Zn11  S    
C61   C83   S    
C108  C122  S    
C4    F5    S    
O45   Zn1   S    
C96   H57   S    
C7    C47   S    
C25   H56   S    
C114  O25   A    
C54   C115  S    
C112  O45   A    
C8    C9    S    
C50   H14   S    
C66   F11   S    
C16   H34   S    
C72   C93   S    
C23   H54   S    
C27   H61   S    
C5    C50   S    
C100  C118  S    
C55   C66   S    
C102  C120  S    
C19   O54   S    
C29   H67   S    
O12   Zn2   S    
O27   Zn16  S    
C46   H10   S    
C18   H39   S    
C77   O18   A    
C68   C104  S    
C44   C84   T    
O30   Zn4   S    
C4    C104  S    
C38   H88   S    
C97   H68   S    
C32   C33   S    
C6    C62   S    
C120  O4    A    
C22   H51   S    
C106  H4    S    
C37   O63   S    
C77   O9    A    
O12   Zn13  S    
C123  O33   A    
O36   Zn5   S    
C72   O61   S    
C63   C72   S    
C21   O55   S    
C56   C61   S    
O47   Zn10  S    
C130  F1    S    
C77   C126  S    
C8    H16   S    
C36   H84   S    
C135  F2    S    
C66   C68   S    
O37   Zn6   S    
C45   C60   S    
C6    C82   S    
O12   Zn6   S    
C64   F9    S    
O8    Zn15  S    
O40   Zn16  S    
C17   H37   S    
C29   H69   S    
C124  O35   A    
C35   C81   T    
O31   Zn12  S    
O1    Zn16  S    
C56   H7    S    
O48   Zn11  S    
C25   H58   S    
C131  C135  D    
C14   H30   S    
C15   C16   S    
C31   H74   S    
C12   O51   S    
C44   C71   S    
C121  O31   A    
C21   H49   S    
C34   H81   S    
C122  O32   A    
C16   H36   S    
C24   C80   S    
C98   H79   S    
C88   C92   D    
C28   H65   S    
C79   O11   A    
C103  C108  D    
C64   C70   S    
O3    Zn7   S    
C2    C74   T    
C100  O50   S    
O18   Zn1   S    
C32   H75   S    
O12   Zn9   S    
C21   H48   S    
C78   O19   A    
C7    F8    S    
C10   H20   S    
O66   Zn10  S    
C103  H90   S    
C101  C119  S    
O23   Zn3   S    
C132  C133  S    
C1    O14   A    
C23   H53   S    
C15   H31   S    
C41   H98   S    
C3    C133  D    
C117  O27   A    
C45   C85   T    
O24   Zn13  S    
C118  O28   A    
C110  F18   S    
O34   Zn11  S    
C129  C136  S    
C47   H11   S    
C48   H12   S    
C42   H100  S    
C87   C96   S    
C68   O58   S    
C131  F12   S    
C11   H22   S    
C60   O16   A    
C53   C66   S    
C124  O43   A    
C51   C82   S    
C1    O5    A    
C12   C14   S    
C46   C57   S    
C123  O42   A    
O34   Zn4   S    
C34   O62   S    
C57   C64   S    
C106  C110  D    
C61   C69   S    
C58   C63   S    
C37   H86   S    
C6    C46   S    
O28   Zn2   S    
C51   C73   S    
C55   H6    S    
O23   Zn7   S    
C14   H28   S    
C56   C67   S    
C89   O65   S    
C47   C58   S    
C80   O21   A    
C57   H8    S    
C38   H91   S    
C4    C59   S    
C23   C25   S    
O23   Zn10  S    
C115  O57   S    
C125  O36   A    
O15   Zn6   S    
C121  O40   A    
C3    F4    S    
C114  O66   A    
C6    F7    S    
C97   C101  D    
C33   H78   S    
O34   Zn8   S    
O41   Zn2   S    
O10   Zn2   S    
