data_mof_unit_54952.cif
_audit_creation_date              2012-10-26T18:25:41-0400
_audit_creation_method            fapswitch 2.2
_symmetry_space_group_name_H-M    P1
_symmetry_Int_Tables_number       1
_space_group_crystal_system       triclinic
_cell_length_a                    7.461166
_cell_length_b                    8.677638
_cell_length_c                    11.083082
_cell_angle_alpha                 88.914704
_cell_angle_beta                  72.641339
_cell_angle_gamma                 102.801289
_cell_volume                      665.078369043

loop_
_atom_site_label
_atom_site_type_symbol
_atom_type_description
_atom_site_fract_x
_atom_site_fract_y
_atom_site_fract_z
_atom_type_partial_charge
C1    C     C_R   0.452127 0.199642 0.503821 0.536471
C2    C     C_2   0.574701 0.968235 0.494888 -0.161701
C3    C     C_3   0.238409 0.239871 0.124092 -0.018115
C4    C     C_3   0.233980 0.140852 0.240290 -0.345470
C5    C     C_3   0.763777 0.735436 0.844186 -0.006233
C6    C     C_3   0.974459 0.795937 0.764691 -0.339932
C7    C     C_R   0.547889 0.800369 0.496232 0.536215
C8    C     C_R   0.424195 0.495359 0.741892 0.543922
C9    C     C_R   0.575828 0.504061 0.258274 0.550783
C10   C     C_2   0.383019 0.488220 0.878237 -0.117638
C11   C     C_2   0.618127 0.510486 0.122169 -0.096031
C12   C     C_2   0.525607 0.513204 0.931490 0.213595
C13   C     C_2   0.477851 0.471250 0.068091 0.235596
C14   C     C_2   0.425594 0.031858 0.504637 -0.169324
Cu1   Cu    Cu3+1 0.688910 0.517800 0.485820 0.965115
Cu2   Cu    Cu3+1 0.311090 0.482200 0.514180 0.956640
H1    H     H_    0.768285 0.555582 0.065362 0.106816
H2    H     H_    0.183856 0.012843 0.229997 0.085925
H3    H     H_    0.133247 0.172386 0.327005 0.188428
H4    H     H_    0.743048 0.785498 0.937832 0.102844
H5    H     H_    0.672705 0.779470 0.794483 0.136464
H6    H     H_    0.998235 0.751028 0.669426 0.191218
H7    H     H_    0.012571 0.927718 0.753166 0.084518
H8    H     H_    0.069787 0.754750 0.811861 0.155088
H9    H     H_    0.232158 0.453539 0.935980 0.105681
H10   H     H_    0.282255 0.960428 0.512834 0.119519
H11   H     H_    0.718314 0.039782 0.486087 0.126410
H12   H     H_    0.915982 0.375126 0.600425 0.249162
H13   H     H_    0.084007 0.625052 0.399713 0.244028
H14   H     H_    0.335431 0.203187 0.037352 0.102633
H15   H     H_    0.090997 0.211207 0.114379 0.142886
H16   H     H_    0.381111 0.162231 0.249967 0.147155
N1    N     N_2   0.027170 0.455360 0.535550 -0.254148
N2    N     N_2   0.972830 0.544640 0.464450 -0.254866
O1    O     O_R   0.622710 0.286400 0.490790 -0.504069
O2    O     O_3   0.718477 0.567723 0.859077 -0.555912
O3    O     O_R   0.377290 0.713600 0.509210 -0.517554
O4    O     O_R   0.303660 0.256330 0.514730 -0.514550
O5    O     O_R   0.696340 0.743670 0.485270 -0.512515
O6    O     O_R   0.600900 0.509520 0.671740 -0.449056
O7    O     O_R   0.399100 0.490480 0.328260 -0.444967
O8    O     O_R   0.281840 0.479450 0.695690 -0.507138
O9    O     O_R   0.718160 0.520550 0.304310 -0.505393
O10   O     O_3   0.287625 0.403811 0.140719 -0.552501

loop_
_geom_bond_atom_site_label_1
_geom_bond_atom_site_label_2
_ccdc_geom_bond_type
C3    H14   S    
C2    H11   S    
Cu2   N1    S    
C12   O2    S    
C11   C13   D    
Cu1   N2    S    
C9    O7    A    
C2    C7    S    
Cu2   O3    S    
C6    H8    S    
Cu1   O6    S    
N1    N2    D    
C7    O3    A    
C4    H2    S    
C5    H4    S    
C14   H10   S    
C3    H15   S    
C9    C11   S    
Cu1   O5    S    
C4    H16   S    
C10   C12   D    
C1    O4    A    
C6    H7    S    
H13   N2    S    
C10   H9    S    
Cu1   O1    S    
C8    O8    A    
H12   N1    S    
C5    C6    S    
C2    C14   D    
C3    O10   S    
C9    O9    A    
Cu1   O9    S    
Cu1   Cu2   S    
C6    H6    S    
C5    O2    S    
Cu2   O8    S    
C5    H5    S    
C12   C13   S    
C1    O1    A    
C8    C10   S    
C7    O5    A    
C11   H1    S    
C1    C14   S    
C8    O6    A    
C4    H3    S    
Cu2   O7    S    
C13   O10   S    
C3    C4    S    
Cu2   O4    S    
