data_mof_unit_45405.cif
_audit_creation_date              2012-12-10T16:55:00-0500
_audit_creation_method            fapswitch 2.2
_symmetry_space_group_name_H-M    P1
_symmetry_Int_Tables_number       1
_space_group_crystal_system       triclinic
_cell_length_a                    9.756502
_cell_length_b                    10.885078
_cell_length_c                    15.495031
_cell_angle_alpha                 89.130535
_cell_angle_beta                  73.86623
_cell_angle_gamma                 88.354757
_cell_volume                      1580.07052329

loop_
_atom_site_label
_atom_site_type_symbol
_atom_type_description
_atom_site_fract_x
_atom_site_fract_y
_atom_site_fract_z
_atom_type_partial_charge
C1    C     C_R   0.003199 0.265321 0.497296 0.882932
C2    C     C_R   0.669101 0.527472 0.906546 0.093042
C3    C     C_R   0.761434 0.572150 0.954383 0.103225
C4    C     C_R   0.520975 0.514749 0.951102 0.066118
C5    C     C_R   0.470867 0.535958 0.045311 0.068365
C6    C     C_R   0.567550 0.579731 0.090339 -0.211218
C7    C     C_R   0.709546 0.597953 0.045424 -0.208587
C8    C     C_R   0.420547 0.485739 0.904246 -0.170021
C9    C     C_R   0.277017 0.472806 0.948755 -0.185207
C10   C     C_R   0.228191 0.485965 0.041520 0.144675
C11   C     C_R   0.324891 0.515345 0.091040 0.087219
C12   C     C_R   0.917168 0.504869 0.672112 0.863164
C13   C     C_R   0.083348 0.468798 0.085539 -0.200745
C14   C     C_R   0.033723 0.476920 0.178764 -0.198980
C15   C     C_R   0.272811 0.519273 0.185138 -0.240725
C16   C     C_2   0.937164 0.937373 0.443663 0.176187
C17   C     C_2   0.993372 0.867366 0.498769 -0.320715
C18   C     C_2   0.919478 0.070625 0.459283 -0.133998
C19   C     C_2   0.015320 0.133159 0.486960 -0.349873
C20   C     C_2   0.393414 0.465918 0.567915 -0.077230
C21   C     C_2   0.549419 0.440080 0.557260 0.490038
C22   C     C_R   0.999271 0.734573 0.497369 0.834062
C23   C     C_R   0.082937 0.500254 0.327882 0.772167
C24   C     C_R   0.870997 0.521897 0.770454 -0.138590
C25   C     C_R   0.129035 0.499899 0.229130 -0.041659
C26   C     C_R   0.904846 0.593454 0.910392 -0.249534
C27   C     C_R   0.959535 0.571653 0.818727 0.368835
C28   C     C_R   0.728588 0.497439 0.815628 -0.285657
Cu1   Cu    Cu3+1 0.138640 0.500020 0.499980 0.976201
Cu2   Cu    Cu3+1 0.861360 0.499980 0.500020 0.970511
H1    H     H_    0.779316 0.633116 0.082400 0.143169
H2    H     H_    0.008800 0.447141 0.047922 0.142590
H3    H     H_    0.030252 0.908352 0.551421 0.144629
H4    H     H_    0.831016 0.118598 0.442392 0.180893
H5    H     H_    0.111616 0.088084 0.495319 0.157733
H6    H     H_    0.318289 0.451818 0.633163 0.216870
H7    H     H_    0.411342 0.472285 0.439386 0.194710
H8    H     H_    0.343300 0.533166 0.226289 0.148596
H9    H     H_    0.921984 0.461781 0.211440 0.152823
H10   H     H_    0.203842 0.450625 0.910264 0.183383
H11   H     H_    0.973873 0.631042 0.946923 0.171214
H12   H     H_    0.665906 0.454351 0.778037 0.206489
H13   H     H_    0.536206 0.605631 0.159994 0.134694
H14   H     H_    0.448279 0.476039 0.832348 0.184300
N1    N     N_2   0.346430 0.498660 0.500980 -0.306216
N2    N     N_2   0.652550 0.498630 0.501000 -0.185473
O1    O     O_R   0.117050 0.321960 0.499980 -0.579919
O2    O     O_R   0.882890 0.321920 0.500020 -0.527541
O3    O     O_R   0.052910 0.500040 0.629810 -0.533317
O4    O     O_R   0.818750 0.499990 0.629840 -0.545391
O5    O     O_R   0.117110 0.678080 0.499980 -0.546559
O6    O     O_R   0.882950 0.678040 0.500020 -0.597893
O7    O     O_R   0.181250 0.500010 0.370160 -0.591885
O8    O     O_R   0.947090 0.499960 0.370190 -0.608873
C29   C     C_3   0.890743 0.886497 0.365633 -0.396191
C30   C     C_3   0.972304 0.944914 0.276588 -0.824202
H15   H     H_    0.948379 0.045263 0.276259 0.252472
H16   H     H_    0.089005 0.929136 0.265080 0.258350
H17   H     H_    0.940004 0.902747 0.220647 0.243110
H18   H     H_    0.909917 0.786042 0.358019 0.204197
H19   H     H_    0.774675 0.905442 0.376907 0.196992
Cl1   Cl    Cl    0.589484 0.325580 0.628209 -0.632809
C31   C     C_3   0.623352 0.614009 0.458304 -0.195070
C32   C     C_3   0.563458 0.716243 0.526664 -0.742452
H20   H     H_    0.447951 0.705085 0.558984 0.259970
H21   H     H_    0.619838 0.716184 0.579779 0.271182
H22   H     H_    0.576696 0.806881 0.491978 0.211433
H23   H     H_    0.724672 0.644973 0.412469 0.208965
H24   H     H_    0.559280 0.604846 0.410702 0.121878
Cl2   Cl    Cl    0.136219 0.616246 0.768129 -0.660854

loop_
_geom_bond_atom_site_label_1
_geom_bond_atom_site_label_2
_ccdc_geom_bond_type
C9    H10   S    
C2    C4    A    
C29   C30   S    
C24   C27   A    
C15   H8    S    
C23   O7    A    
Cu1   Cu2   S    
C8    C9    A    
C23   O8    A    
Cu2   O8    S    
C9    C10   A    
C12   C24   S    
C13   H2    S    
C12   O4    A    
C17   C22   S    
C30   H17   S    
N2    C31   S    
C4    C8    A    
C32   H20   S    
C2    C3    A    
Cu2   O4    S    
C16   C29   S    
C31   H24   S    
C1    O2    A    
C16   C18   S    
Cu1   O3    S    
C13   C14   A    
C30   H15   S    
C18   H4    S    
C26   C27   A    
C6    C7    A    
C27   Cl2   S    
C17   H3    S    
Cu1   O1    S    
C29   H19   S    
C21   N2    D    
Cu2   O2    S    
C30   H16   S    
C5    C11   A    
C3    C7    A    
C6    H13   S    
C23   C25   S    
C14   C25   A    
C22   O5    A    
C5    C6    A    
C1    C19   S    
C12   O3    A    
C7    H1    S    
C10   C11   A    
H7    N1    S    
C31   C32   S    
C20   H6    S    
C32   H22   S    
C8    H14   S    
C20   C21   S    
C15   C25   A    
C22   O6    A    
C18   C19   D    
Cu1   O5    S    
C20   N1    D    
C28   H12   S    
C19   H5    S    
Cu2   O6    S    
C31   H23   S    
C4    C5    A    
C2    C28   A    
C21   Cl1   S    
C14   H9    S    
C29   H18   S    
C11   C15   A    
Cu2   N2    S    
C3    C26   A    
C1    O1    A    
C24   C28   A    
C26   H11   S    
Cu1   N1    S    
C16   C17   D    
Cu1   O7    S    
C10   C13   A    
C32   H21   S    
