data_mof_unit_5080.cif
_audit_creation_date              2012-12-10T18:22:27-0500
_audit_creation_method            fapswitch 2.2
_symmetry_space_group_name_H-M    P1
_symmetry_Int_Tables_number       1
_space_group_crystal_system       triclinic
_cell_length_a                    23.581858
_cell_length_b                    10.643794
_cell_length_c                    9.515963
_cell_angle_alpha                 91.375078
_cell_angle_beta                  89.605076
_cell_angle_gamma                 91.149679
_cell_volume                      2387.29324742

loop_
_atom_site_label
_atom_site_type_symbol
_atom_type_description
_atom_site_fract_x
_atom_site_fract_y
_atom_site_fract_z
_atom_type_partial_charge
C1    C     C_R   0.499488 0.259840 0.499032 0.820451
C2    C     C_R   0.499927 0.739924 0.501111 0.812354
C3    C     C_R   0.241518 0.593777 0.415124 0.546177
C4    C     C_R   0.761304 0.426640 0.389115 0.544700
C5    C     C_R   0.300891 0.603133 0.430893 -0.155222
C6    C     C_R   0.701330 0.427887 0.390148 -0.154441
C7    C     C_R   0.328780 0.507573 0.502919 -0.277171
C8    C     C_R   0.672146 0.491887 0.501364 -0.263667
C9    C     C_R   0.296314 0.418017 0.578143 -0.021062
C10   C     C_R   0.704012 0.549225 0.613525 -0.028670
C11   C     C_R   0.237663 0.437505 0.598175 -0.029077
C12   C     C_R   0.763103 0.530210 0.620874 -0.061495
C13   C     C_R   0.209413 0.515118 0.503987 0.077662
C14   C     C_R   0.791808 0.478947 0.503349 0.127667
C15   C     C_3   0.506958 0.045957 0.633862 -0.277451
C16   C     C_3   0.491327 0.953370 0.367282 -0.328008
C17   C     C_3   0.549057 0.962986 0.550291 -0.126417
C18   C     C_3   0.449177 0.036071 0.451228 -0.138465
C19   C     C_3   0.499681 0.876399 0.501830 -0.190024
C20   C     C_3   0.498763 0.122904 0.499073 -0.196343
C21   C     C_3   0.457666 0.958493 0.583274 0.551547
C22   C     C_3   0.540810 0.040047 0.418084 0.536531
C23   C     C_R   0.391364 0.501834 0.500636 0.775254
C24   C     C_R   0.609019 0.499431 0.499985 0.764751
C25   C     C_3   0.546273 0.550644 0.050792 0.006319
C26   C     C_3   0.454109 0.449252 0.949313 0.024417
C27   C     C_3   0.504112 0.612644 0.954125 -0.047914
C28   C     C_3   0.496434 0.387302 0.045568 -0.045857
C29   C     C_3   0.542488 0.438203 0.946689 0.035945
C30   C     C_3   0.457922 0.562006 0.052423 0.073691
C31   C     C_R   0.880124 0.598537 0.487916 0.551099
C32   C     C_R   0.120612 0.398677 0.470060 0.496879
C33   C     C_R   0.882799 0.375286 0.506254 0.565615
C34   C     C_R   0.118271 0.620474 0.514184 0.608071
C35   C     C_R   0.942023 0.378240 0.492394 -0.015338
C36   C     C_R   0.058948 0.618179 0.502767 -0.043140
C37   C     C_R   0.970564 0.495565 0.489892 -0.011159
C38   C     C_R   0.030324 0.501355 0.488713 -0.016728
C39   C     C_R   0.939524 0.607085 0.491510 -0.025140
C40   C     C_R   0.061278 0.390146 0.475521 -0.017046
C41   C     C_R   0.973324 0.267416 0.483078 -0.163219
C42   C     C_R   0.027589 0.729135 0.507673 -0.147257
C43   C     C_R   0.032329 0.273403 0.470649 -0.143224
C44   C     C_R   0.968498 0.723733 0.498511 -0.149632
Cu1   Cu    Cu3+1 0.500010 0.499990 0.643150 0.953924
Cu2   Cu    Cu3+1 0.499990 0.500010 0.356850 0.940548
H1    H     H_    0.952297 0.175995 0.483076 0.186639
H2    H     H_    0.048603 0.820357 0.516885 0.193045
H3    H     H_    0.055233 0.186345 0.461730 0.196398
H4    H     H_    0.945582 0.810946 0.500862 0.190526
H5    H     H_    0.513376 0.085576 0.741702 0.191004
H6    H     H_    0.484698 0.913932 0.259454 0.184077
N1    N     N_R   0.852892 0.483849 0.497552 -0.449375
N2    N     N_R   0.148178 0.511827 0.495687 -0.466405
N3    N     N_3   0.500040 0.499970 0.858290 -0.259799
N4    N     N_3   0.499960 0.500030 0.141710 -0.257130
O1    O     O_R   0.500030 0.316850 0.620870 -0.626176
O2    O     O_R   0.499970 0.683150 0.379130 -0.631126
O3    O     O_R   0.500000 0.316860 0.379090 -0.565685
O4    O     O_R   0.500000 0.683140 0.620910 -0.561120
O5    O     O_R   0.417890 0.499960 0.620920 -0.550351
O6    O     O_R   0.582110 0.500040 0.379080 -0.581301
O7    O     O_R   0.417870 0.499970 0.379140 -0.599159
O8    O     O_R   0.582130 0.500030 0.620860 -0.609484
O9    O     O_2   0.849716 0.703989 0.477974 -0.511330
O10   O     O_2   0.150626 0.294284 0.441916 -0.503641
O11   O     O_2   0.855504 0.265517 0.531393 -0.550467
O12   O     O_2   0.145654 0.730008 0.545417 -0.469761
C45   C     C_2   0.512951 0.743885 0.904030 0.406970
H7    H     H_    0.550684 0.767696 0.843838 0.100841
O13   O     O_2   0.478969 0.825117 0.934142 -0.564402
C46   C     C_2   0.489374 0.255539 0.094958 0.391752
H8    H     H_    0.450758 0.227829 0.148615 0.061860
O14   O     O_2   0.525997 0.178394 0.071734 -0.550548
C47   C     C_2   0.596100 0.622013 0.111971 0.423997
H9    H     H_    0.589037 0.697403 0.188339 0.044966
O15   O     O_2   0.644343 0.598325 0.074754 -0.443959
C48   C     C_2   0.404128 0.378309 0.889868 0.449009
H10   H     H_    0.410940 0.291198 0.831620 0.000018
O16   O     O_2   0.356096 0.415686 0.908695 -0.464721
C49   C     C_2   0.588071 0.360041 0.880242 0.545072
H11   H     H_    0.576635 0.274473 0.822283 0.079755
O17   O     O_2   0.637854 0.391779 0.889608 -0.465159
C50   C     C_2   0.412099 0.641899 0.112911 0.520929
H12   H     H_    0.423309 0.723511 0.177750 0.055537
O18   O     O_2   0.362457 0.618248 0.086777 -0.506347
O19   O     O_3   0.214278 0.668674 0.321075 -0.510658
C51   C     C_3   0.207274 0.599535 0.193936 -0.149963
H13   H     H_    0.179146 0.515553 0.208293 0.147347
H14   H     H_    0.248828 0.570875 0.148602 0.212306
H15   H     H_    0.186762 0.660251 0.116830 0.197714
O20   O     O_3   0.791184 0.381519 0.272850 -0.533048
C52   C     C_3   0.790944 0.248315 0.268692 -0.130985
H16   H     H_    0.835414 0.216251 0.266963 0.189334
H17   H     H_    0.768226 0.202722 0.357928 0.140969
H18   H     H_    0.771361 0.213503 0.169168 0.203924
C53   C     C_2   0.333138 0.714691 0.379122 0.574596
H19   H     H_    0.377109 0.730308 0.408284 0.034935
O21   O     O_2   0.310947 0.792511 0.306280 -0.432994
C54   C     C_2   0.669632 0.360522 0.275682 0.476947
H20   H     H_    0.629907 0.312099 0.298095 0.129614
O22   O     O_2   0.687186 0.359468 0.154830 -0.418671
C55   C     C_2   0.322108 0.297530 0.618094 0.554001
H21   H     H_    0.367440 0.285078 0.609601 -0.024243
O23   O     O_2   0.292725 0.207195 0.651512 -0.469286
C56   C     C_2   0.678107 0.642045 0.713632 0.513512
H22   H     H_    0.637804 0.624977 0.764816 0.103655
O24   O     O_2   0.702785 0.741549 0.740813 -0.483776
C57   C     C_2   0.206331 0.385583 0.721310 0.546222
H23   H     H_    0.160412 0.383502 0.724921 0.045200
O25   O     O_2   0.231495 0.352112 0.825249 -0.474098
C58   C     C_2   0.795586 0.559040 0.752488 0.550442
H24   H     H_    0.841361 0.569767 0.750139 0.043272
O26   O     O_2   0.771900 0.564505 0.866945 -0.434173
C59   C     C_2   0.604496 0.919805 0.604998 0.419515
H25   H     H_    0.629235 0.853052 0.543973 0.052818
O27   O     O_2   0.621866 0.958826 0.718687 -0.488003
C60   C     C_2   0.393482 0.077896 0.396135 0.396398
H26   H     H_    0.392280 0.147708 0.315599 0.056219
O28   O     O_2   0.349091 0.033658 0.441396 -0.440985
O29   O     O_3   0.413986 0.904261 0.665517 -0.547600
C61   C     C_3   0.393259 0.994827 0.762095 -0.087905
H27   H     H_    0.382589 0.083235 0.710154 0.147257
H28   H     H_    0.424374 0.015356 0.847003 0.162187
H29   H     H_    0.353956 0.956938 0.811404 0.219602
O30   O     O_3   0.584958 0.092362 0.336056 -0.585782
C62   C     C_3   0.608072 0.998651 0.247008 -0.200246
H30   H     H_    0.577289 0.967530 0.164779 0.199572
H31   H     H_    0.622375 0.916666 0.306493 0.111845
H32   H     H_    0.645740 0.039120 0.192721 0.207622

loop_
_geom_bond_atom_site_label_1
_geom_bond_atom_site_label_2
_ccdc_geom_bond_type
O19   C51   S    
Cu1   O4    S    
O30   C62   S    
Cu2   O3    S    
C11   C57   S    
C18   C21   S    
C36   C42   A    
C25   N4    S    
C26   N3    S    
C58   O26   D    
C53   H19   S    
C28   N4    S    
Cu1   Cu2   S    
Cu1   O1    S    
C52   H16   S    
Cu2   O6    S    
C28   C29   S    
C35   C37   A    
C50   O18   D    
C1    O3    A    
C48   O16   D    
C22   O30   S    
C56   H22   S    
C59   H25   S    
C15   C17   S    
C45   O13   D    
C60   H26   S    
C54   H20   S    
C8    C24   S    
C50   H12   S    
C40   C43   A    
C59   O27   D    
C4    C14   A    
C24   O6    A    
C15   H5    S    
C18   C60   S    
C18   C20   S    
C27   C45   S    
C23   O7    A    
C24   O8    A    
Cu2   O2    S    
C27   C30   S    
C21   O29   S    
C41   C43   A    
C28   C46   S    
C42   C44   A    
C32   N2    A    
C58   H24   S    
C53   O21   D    
C49   H11   S    
C25   C29   S    
C15   C20   S    
C3    O19   S    
C33   N1    A    
C4    C6    A    
C34   O12   S    
C5    C7    A    
C48   H10   S    
C43   H3    S    
C6    C8    A    
C29   N3    S    
C30   N4    S    
C25   C47   S    
C6    C54   S    
C47   H9    S    
C62   H31   S    
C29   C49   S    
C37   C38   A    
C1    O1    A    
C47   O15   D    
C51   H15   S    
C23   O5    A    
C9    C55   S    
C54   O22   D    
C41   H1    S    
C55   O23   D    
C42   H2    S    
C31   N1    A    
C9    C11   A    
O29   C61   S    
C10   C12   A    
C46   O14   D    
C51   H14   S    
C26   C30   S    
C52   H18   S    
C10   C56   S    
C61   H28   S    
C62   H30   S    
C12   C58   S    
C17   C59   S    
C32   O10   S    
C13   N2    S    
C44   H4    S    
C31   O9    S    
C1    C20   S    
C16   C22   S    
Cu1   O8    S    
C19   C21   S    
C2    C19   S    
C8    C10   A    
C16   H6    S    
C20   C22   S    
C46   H8    S    
C3    C5    A    
C3    C13   A    
C49   O17   D    
C2    O2    A    
C34   N2    A    
C39   C44   A    
C25   C27   S    
C27   N3    S    
C26   C28   S    
C17   C22   S    
Cu2   O7    S    
C61   H29   S    
C57   O25   D    
C12   C14   A    
C62   H32   S    
C37   C39   A    
C33   O11   S    
C57   H23   S    
C36   C38   A    
C38   C40   A    
C11   C13   A    
C52   H17   S    
C56   O24   D    
C16   C19   S    
C7    C23   S    
Cu1   O5    S    
O20   C52   S    
C33   C35   A    
C34   C36   A    
C31   C39   A    
C5    C53   S    
C2    O4    A    
C32   C40   A    
C30   C50   S    
C45   H7    S    
C35   C41   A    
C60   O28   D    
C26   C48   S    
C17   C19   S    
C7    C9    A    
C15   C21   S    
C14   N1    S    
C51   H13   S    
Cu1   N3    S    
C16   C18   S    
Cu2   N4    S    
C55   H21   S    
C61   H27   S    
C4    O20   S    
