data_mof_unit_63483.cif
_audit_creation_date              2012-12-10T16:41:29-0500
_audit_creation_method            fapswitch 2.2
_symmetry_space_group_name_H-M    P1
_symmetry_Int_Tables_number       1
_space_group_crystal_system       triclinic
_cell_length_a                    19.168201
_cell_length_b                    18.840144
_cell_length_c                    18.926851
_cell_angle_alpha                 109.291404
_cell_angle_beta                  109.741176
_cell_angle_gamma                 109.437948
_cell_volume                      5257.89195969

loop_
_atom_site_label
_atom_site_type_symbol
_atom_type_description
_atom_site_fract_x
_atom_site_fract_y
_atom_site_fract_z
_atom_type_partial_charge
C1    C     C_R   0.383432 0.378622 0.496478 0.833257
C2    C     C_R   0.416946 0.670909 0.677136 0.012786
C3    C     C_R   0.495823 0.679541 0.684915 -0.210263
C4    C     C_R   0.574062 0.752697 0.754590 0.436508
C5    C     C_R   0.574423 0.816105 0.818994 -0.152159
C6    C     C_R   0.496459 0.811194 0.809488 -0.212652
C7    C     C_2   0.183630 0.176511 0.426165 -0.203397
C8    C     C_2   0.174674 0.189446 0.496288 -0.164249
C9    C     C_2   0.242780 0.248227 0.423370 -0.154952
C10   C     C_2   0.321823 0.304209 0.491514 -0.295838
C11   C     C_2   0.494387 0.174997 0.248545 -0.156458
C12   C     C_R   0.497904 0.615520 0.618207 0.837861
C13   C     C_2   0.509173 0.185154 0.187226 -0.310508
C14   C     C_2   0.506502 0.248167 0.321688 -0.156398
C15   C     C_2   0.491066 0.309605 0.311752 -0.305720
C16   C     C_2   0.821163 0.743719 0.501475 0.008623
C17   C     C_2   0.822389 0.817538 0.507601 -0.359049
C18   C     C_2   0.758471 0.684651 0.513092 -0.191562
C19   C     C_2   0.680345 0.675727 0.489049 -0.344748
C20   C     C_R   0.383098 0.996127 0.877998 0.835689
C21   C     C_R   0.498467 0.878562 0.877457 0.812665
C22   C     C_R   0.617082 0.997902 0.115895 0.885656
C23   C     C_R   0.616940 0.615494 0.497453 0.855765
C24   C     C_R   0.502358 0.115614 0.116811 0.841538
C25   C     C_R   0.884837 0.002613 0.382735 0.881060
C26   C     C_R   0.115038 0.118360 0.498221 0.801628
C27   C     C_R   0.115567 0.997816 0.617233 0.842354
C28   C     C_R   0.884747 0.882454 0.502102 0.835661
C29   C     C_2   0.182879 0.924286 0.674733 -0.143902
C30   C     C_2   0.177625 0.995991 0.685902 -0.312367
C31   C     C_2   0.243907 0.923795 0.746999 -0.157434
C32   C     C_2   0.319848 0.995218 0.807846 -0.308756
C33   C     C_2   0.819554 0.077414 0.322725 0.525376
C34   C     C_R   0.497769 0.379983 0.381240 0.837214
C35   C     C_2   0.823560 0.005200 0.313770 -0.391089
C36   C     C_2   0.758422 0.072549 0.244940 -0.268936
C37   C     C_2   0.680367 0.002239 0.189185 -0.374084
C38   C     C_R   0.337709 0.594616 0.611654 -0.162887
C39   C     C_R   0.260363 0.590206 0.600947 0.040017
C40   C     C_R   0.260716 0.661733 0.654887 -0.183005
C41   C     C_R   0.338074 0.735911 0.722094 -0.152735
C42   C     C_R   0.417227 0.740001 0.736908 0.089232
Cu1   Cu    Cu3+1 0.561020 0.499620 0.560640 0.985884
Cu2   Cu    Cu3+1 0.438980 0.500380 0.439360 0.956944
Cu3   Cu    Cu3+1 0.561070 0.057880 0.996780 0.970833
Cu4   Cu    Cu3+1 0.439050 0.935860 0.996810 0.958398
Cu5   Cu    Cu3+1 0.000000 0.061410 0.561410 0.995828
Cu6   Cu    Cu3+1 1.000000 0.938590 0.438590 0.980491
H1    H     H_    0.344288 0.292238 0.545020 0.160850
H2    H     H_    0.477938 0.113713 0.247988 0.163534
H3    H     H_    0.534712 0.248853 0.192888 0.156220
H4    H     H_    0.523448 0.248595 0.382757 0.162791
H5    H     H_    0.465105 0.304059 0.248291 0.156487
H6    H     H_    0.780560 0.835943 0.526072 0.147836
H7    H     H_    0.775480 0.644994 0.538184 0.172616
H8    H     H_    0.659647 0.708604 0.456186 0.157003
H9    H     H_    0.138839 0.863933 0.613393 0.177708
H10   H     H_    0.335003 0.537478 0.569187 0.152225
H11   H     H_    0.215029 0.053525 0.749700 0.156610
H12   H     H_    0.228061 0.863010 0.747443 0.158362
H13   H     H_    0.339645 0.053223 0.802116 0.156123
H14   H     H_    0.785013 0.946517 0.250709 0.125089
H15   H     H_    0.776511 0.128371 0.235604 0.180982
H16   H     H_    0.659333 0.949146 0.202036 0.153905
H17   H     H_    0.201058 0.659875 0.645743 0.140479
H18   H     H_    0.334712 0.789859 0.761422 0.144051
H19   H     H_    0.144537 0.112752 0.368385 0.170586
H20   H     H_    0.222279 0.253176 0.365092 0.175359
O1    O     O_R   0.462500 0.410660 0.551220 -0.592794
O2    O     O_R   0.359500 0.945890 0.908340 -0.584559
O3    O     O_R   0.551580 0.958790 0.907180 -0.580312
O4    O     O_R   0.448540 0.855750 0.907210 -0.588290
O5    O     O_R   0.640630 0.047850 0.085250 -0.572644
O6    O     O_R   0.537580 0.944800 0.085280 -0.591309
O7    O     O_R   0.551590 0.137990 0.086380 -0.589880
O8    O     O_R   0.448540 0.034950 0.086410 -0.579080
O9    O     O_R   0.910970 0.052410 0.463390 -0.536939
O10   O     O_R   0.910970 0.948690 0.359670 -0.596708
O11   O     O_R   0.089030 0.140870 0.551850 -0.573253
O12   O     O_R   0.359440 0.411300 0.448810 -0.587433
O13   O     O_R   0.089030 0.037160 0.448130 -0.587311
O14   O     O_R   0.089030 0.051310 0.640330 -0.588824
O15   O     O_R   0.089030 0.947590 0.536610 -0.575063
O16   O     O_R   0.910970 0.962840 0.551870 -0.591433
O17   O     O_R   0.910970 0.859130 0.448150 -0.571175
O18   O     O_R   0.551530 0.589280 0.640810 -0.532456
O19   O     O_R   0.448470 0.589920 0.538390 -0.603269
O20   O     O_R   0.640560 0.588700 0.551190 -0.573012
O21   O     O_R   0.537500 0.589340 0.448780 -0.588798
O22   O     O_R   0.551530 0.410080 0.461610 -0.586462
O23   O     O_R   0.448470 0.410720 0.359190 -0.588564
O24   O     O_R   0.462540 0.048930 0.908310 -0.586153
O25   O     O_3   0.650942 0.759930 0.762146 -0.555544
C43   C     C_3   0.675783 0.805658 0.721109 -0.276472
H21   H     H_    0.627466 0.771114 0.651038 0.136298
H22   H     H_    0.736589 0.810232 0.725917 0.196298
H23   H     H_    0.687560 0.873005 0.753451 0.154150
C44   C     C_1   0.885206 0.723761 0.491846 0.277673
N1    N     N_1   0.936465 0.707823 0.484248 -0.295666
O26   O     O_3   0.879772 0.155517 0.400177 -0.554777
C45   C     C_3   0.848750 0.213958 0.415296 -0.266763
H24   H     H_    0.782485 0.181889 0.403786 0.149461
H25   H     H_    0.852358 0.245699 0.375539 0.163044
H26   H     H_    0.890447 0.265906 0.484243 0.193140
C46   C     C_1   0.180419 0.512217 0.533776 0.238353
N2    N     N_1   0.116221 0.449497 0.479829 -0.265194
C47   C     C_1   0.655881 0.884880 0.895660 0.338100
N3    N     N_1   0.720914 0.939705 0.956860 -0.268600
C48   C     C_1   0.213581 0.276622 0.567961 0.305593
N4    N     N_1   0.244291 0.345836 0.624882 -0.280315

loop_
_geom_bond_atom_site_label_1
_geom_bond_atom_site_label_2
_ccdc_geom_bond_type
C19   H8    S    
O25   C43   S    
Cu3   O3    S    
C8    C26   S    
C41   C42   A    
Cu5   O11   S    
Cu4   O8    S    
C7    C8    D    
Cu3   Cu4   S    
C20   O24   A    
C45   H24   S    
C21   O3    A    
C25   O9    A    
Cu1   O20   S    
C15   H5    S    
C36   C37   D    
C32   H13   S    
C20   C32   S    
C5    C6    A    
C11   C14   S    
C28   O16   A    
C11   C13   D    
C33   C36   S    
Cu6   O13   S    
Cu3   O5    S    
C18   C19   D    
Cu5   O14   S    
Cu6   O10   S    
Cu3   O24   S    
C34   O23   A    
C3    C12   S    
C38   H10   S    
C14   H4    S    
C31   C32   D    
C16   C17   D    
C47   N3    T    
C23   O21   A    
C36   H15   S    
C9    C10   D    
C15   C34   S    
Cu4   O4    S    
C45   H25   S    
C13   H3    S    
C27   C30   S    
C17   C28   S    
C20   O2    A    
Cu1   O22   S    
C21   O4    A    
C25   O10   A    
Cu2   O12   S    
C39   C40   A    
C24   O8    A    
C43   H23   S    
C22   C37   S    
C1    O1    A    
C13   C24   S    
C31   H12   S    
C19   C23   S    
Cu1   Cu2   S    
C34   O22   A    
C29   C30   D    
C2    C38   A    
Cu5   Cu6   S    
C30   H11   S    
Cu5   O16   S    
C43   H22   S    
Cu2   O23   S    
C18   H7    S    
C25   C35   S    
C40   C41   A    
C29   H9    S    
C26   O13   A    
C23   O20   A    
Cu5   O9    S    
C3    C4    A    
Cu2   O19   S    
Cu4   O6    S    
C37   H16   S    
C5    C47   S    
C39   C46   S    
C12   O19   A    
C14   C15   D    
Cu1   O18   S    
C27   O14   A    
C1    C10   S    
Cu1   O1    S    
C4    C5    A    
C24   O7    A    
C41   H18   S    
C45   H26   S    
C46   N2    T    
C26   O11   A    
Cu6   O15   S    
C12   O18   A    
Cu3   O7    S    
C33   O26   S    
C27   O15   A    
C2    C3    A    
C9    H20   S    
C29   C31   S    
C11   H2    S    
C8    C48   S    
C6    C21   S    
C16   C44   S    
C38   C39   A    
C2    C42   A    
O26   C45   S    
C33   C35   D    
C35   H14   S    
C43   H21   S    
C40   H17   S    
Cu4   O2    S    
C7    H19   S    
C4    O25   S    
C7    C9    S    
C16   C18   S    
C44   N1    T    
C6    C42   A    
C28   O17   A    
C1    O12   A    
C22   O6    A    
Cu6   O17   S    
C22   O5    A    
C48   N4    T    
C10   H1    S    
C17   H6    S    
Cu2   O21   S    
