data_mof_unit_40973.cif
_audit_creation_date              2012-12-10T18:33:41-0500
_audit_creation_method            fapswitch 2.2
_symmetry_space_group_name_H-M    P1
_symmetry_Int_Tables_number       1
_space_group_crystal_system       triclinic
_cell_length_a                    10.508532
_cell_length_b                    15.002817
_cell_length_c                    15.473743
_cell_angle_alpha                 82.59337
_cell_angle_beta                  89.458164
_cell_angle_gamma                 104.032218
_cell_volume                      2344.90538717

loop_
_atom_site_label
_atom_site_type_symbol
_atom_type_description
_atom_site_fract_x
_atom_site_fract_y
_atom_site_fract_z
_atom_type_partial_charge
C1    C     C_R   0.478099 0.442065 0.662136 0.863022
C2    C     C_R   0.515069 0.557817 0.337921 0.865130
C3    C     C_R   0.446179 0.472938 0.811162 -0.259278
C4    C     C_R   0.465667 0.525115 0.189529 -0.263078
C5    C     C_R   0.404438 0.445897 0.898402 0.092581
C6    C     C_R   0.437112 0.550103 0.103426 0.092079
C7    C     C_R   0.368743 0.349927 0.930242 0.163691
C8    C     C_R   0.456138 0.645557 0.071996 0.164224
C9    C     C_R   0.407433 0.512399 0.955888 0.068747
C10   C     C_R   0.399773 0.482603 0.046455 0.069945
C11   C     C_R   0.357488 0.386499 0.076748 -0.224421
C12   C     C_R   0.420442 0.607650 0.926104 -0.226012
C13   C     C_R   0.339715 0.321293 0.018973 -0.214697
C14   C     C_R   0.441742 0.672925 0.983904 -0.216615
C15   C     C_R   0.697021 0.842219 0.635986 -0.254505
C16   C     C_R   0.306407 0.158758 0.361707 -0.255806
C17   C     C_R   0.663086 0.753089 0.614169 0.003143
C18   C     C_R   0.338568 0.247409 0.384755 0.004410
C19   C     C_R   0.515022 0.794098 0.510819 -0.035814
C20   C     C_R   0.485039 0.205878 0.489050 -0.034329
C21   C     C_R   0.544653 0.886271 0.529793 -0.020143
C22   C     C_R   0.458026 0.114415 0.468312 -0.020559
C23   C     C_R   0.742416 0.500362 0.500061 0.866921
C24   C     C_R   0.257599 0.499641 0.499929 0.861911
C25   C     C_R   0.638648 0.909995 0.593976 0.100435
C26   C     C_R   0.365298 0.091064 0.403316 0.103778
C27   C     C_R   0.484661 0.954697 0.487335 0.031255
C28   C     C_R   0.519206 0.046282 0.509960 0.030547
C29   C     C_R   0.614318 0.067126 0.573110 -0.252595
C30   C     C_R   0.391438 0.934353 0.422939 -0.253169
C31   C     C_R   0.672847 0.000752 0.614581 0.265381
C32   C     C_R   0.333128 0.000816 0.381361 0.265481
C33   C     C_3   0.930230 0.417393 0.482013 -0.123996
C34   C     C_3   0.069840 0.582614 0.517948 -0.124106
C35   C     C_3   0.017462 0.432156 0.561113 -0.165080
C36   C     C_3   0.982611 0.567853 0.438850 -0.164915
C37   C     C_3   0.122286 0.499713 0.499908 0.014726
C38   C     C_3   0.877769 0.500297 0.500057 0.012278
C39   C     C_3   0.037758 0.485154 0.420848 -0.181624
C40   C     C_3   0.962320 0.514857 0.579113 -0.183057
C41   C     C_R   0.444947 0.407784 0.754353 -0.066236
C42   C     C_R   0.502281 0.591143 0.246184 -0.065711
C43   C     C_R   0.365831 0.284086 0.873069 -0.178865
C44   C     C_R   0.492278 0.712301 0.128894 -0.177462
C45   C     C_R   0.403022 0.312925 0.785183 -0.177806
C46   C     C_R   0.514204 0.685102 0.216019 -0.178956
H1    H     H_    0.036303 0.376925 0.610687 0.156132
H2    H     H_    0.963833 0.623106 0.389279 0.155391
H3    H     H_    0.551549 0.230407 0.537943 0.127923
H4    H     H_    0.446323 0.768926 0.463327 0.127305
H5    H     H_    0.293866 0.300067 0.352969 0.131646
H6    H     H_    0.707949 0.700504 0.645901 0.137417
H7    H     H_    0.768601 0.856954 0.685210 0.196534
H8    H     H_    0.236002 0.144383 0.311724 0.193431
H9    H     H_    0.647205 0.135128 0.592077 0.166715
H10   H     H_    0.360807 0.866925 0.402440 0.166183
H11   H     H_    0.869616 0.349818 0.467402 0.155665
H12   H     H_    0.130469 0.650182 0.532564 0.154858
H13   H     H_    0.073158 0.472951 0.356610 0.141876
H14   H     H_    0.927007 0.527084 0.643360 0.141297
H15   H     H_    0.308921 0.248217 0.044298 0.162481
H16   H     H_    0.452705 0.745404 0.958947 0.159726
H17   H     H_    0.463774 0.453940 0.212886 0.163963
H18   H     H_    0.484647 0.545272 0.786972 0.163192
H19   H     H_    0.540492 0.737223 0.259420 0.167529
H20   H     H_    0.399639 0.261351 0.741748 0.168773
H21   H     H_    0.336589 0.210532 0.896566 0.152865
H22   H     H_    0.504780 0.785352 0.105810 0.153602
H23   H     H_    0.334988 0.360081 0.144865 0.145759
H24   H     H_    0.411776 0.633194 0.858476 0.153331
N1    N     N_R   0.574200 0.731700 0.552740 -0.102534
N2    N     N_R   0.425800 0.268300 0.447260 -0.101165
O1    O     O_R   0.462600 0.383110 0.605620 -0.616080
O2    O     O_R   0.537400 0.616890 0.394380 -0.615382
O3    O     O_R   0.510210 0.531900 0.639510 -0.624794
O4    O     O_R   0.489790 0.468100 0.360490 -0.623661
O5    O     O_R   0.662240 0.425610 0.483080 -0.624840
O6    O     O_R   0.337760 0.574390 0.516920 -0.627700
O7    O     O_R   0.709860 0.574400 0.516970 -0.615224
O8    O     O_R   0.290140 0.425600 0.483030 -0.617051
Zn1   Zn    Zn3+2 0.468210 0.400660 0.477370 0.946481
Zn2   Zn    Zn3+2 0.531790 0.599340 0.522630 0.945034
Br1   Br    Br    0.800661 0.040007 0.699117 -0.541925
Br2   Br    Br    0.208445 0.962395 0.294779 -0.545606

loop_
_geom_bond_atom_site_label_1
_geom_bond_atom_site_label_2
_ccdc_geom_bond_type
C25   C31   A    
C7    C13   A    
C38   C40   S    
C26   C32   A    
C40   H14   S    
C34   C37   S    
C19   N1    A    
C35   H1    S    
C3    H18   S    
C4    H17   S    
C33   C39   S    
C34   C40   S    
C15   H7    S    
C28   C29   A    
C35   C37   S    
C15   C25   A    
C14   H16   S    
C31   Br1   S    
C42   C46   A    
C12   H24   S    
C24   O8    A    
C8    C14   A    
C7    C43   A    
C9    C10   A    
N2    Zn1   S    
C2    O2    A    
N1    Zn2   S    
C21   C27   A    
C22   C28   A    
C27   C30   A    
C18   N2    A    
O2    Zn2   S    
C17   H6    S    
O1    Zn1   S    
C44   C46   A    
C18   H5    S    
C16   C26   A    
C32   Br2   S    
C1    O3    A    
C46   H19   S    
C4    C6    A    
C5    C7    A    
C6    C8    A    
C29   H9    S    
C30   H10   S    
C43   H21   S    
C5    C9    A    
C20   H3    S    
O6    Zn2   S    
O5    Zn1   S    
C39   H13   S    
C24   C37   S    
C23   O5    A    
C43   C45   A    
C24   O6    A    
C12   C14   A    
C17   N1    A    
C44   H22   S    
C45   H20   S    
C2    O4    A    
C1    C41   S    
C15   C17   A    
C21   C25   A    
C3    C41   A    
C33   H11   S    
C19   C21   A    
C36   C39   S    
C8    C44   A    
C20   C22   A    
O8    Zn1   S    
C3    C5    A    
O4    Zn1   S    
C6    C10   A    
O7    Zn2   S    
C11   H23   S    
O3    Zn2   S    
C23   C38   S    
C33   C38   S    
C1    O1    A    
C36   C38   S    
C35   C40   S    
C29   C31   A    
C30   C32   A    
C11   C13   A    
C19   H4    S    
C4    C42   A    
C2    C42   S    
C33   C35   S    
C36   H2    S    
C34   C36   S    
C9    C12   A    
C16   H8    S    
C10   C11   A    
C37   C39   S    
C13   H15   S    
C16   C18   A    
C22   C26   A    
C27   C28   A    
C34   H12   S    
C41   C45   A    
C20   N2    A    
C23   O7    A    
