data_mof_unit_49088.cif
_audit_creation_date              2012-10-26T20:03:20-0400
_audit_creation_method            fapswitch 2.2
_symmetry_space_group_name_H-M    P1
_symmetry_Int_Tables_number       1
_space_group_crystal_system       triclinic
_cell_length_a                    10.615148
_cell_length_b                    12.398762
_cell_length_c                    13.306001
_cell_angle_alpha                 116.967245
_cell_angle_beta                  76.842536
_cell_angle_gamma                 101.359244
_cell_volume                      1510.97716672

loop_
_atom_site_label
_atom_site_type_symbol
_atom_type_description
_atom_site_fract_x
_atom_site_fract_y
_atom_site_fract_z
_atom_type_partial_charge
C1    C     C_R   0.513577 0.854479 0.286929 0.536691
C2    C     C_R   0.525523 0.560945 0.013918 0.028490
C3    C     C_R   0.478781 0.645364 0.125984 0.035916
C4    C     C_R   0.739944 0.000549 0.500994 0.544784
C5    C     C_R   0.481231 0.434843 0.979386 0.025144
C6    C     C_R   0.390624 0.395833 0.056214 0.052555
C7    C     C_R   0.341651 0.480468 0.163160 -0.125161
C8    C     C_R   0.381761 0.602910 0.196021 -0.092682
C9    C     C_R   0.520223 0.346199 0.869422 -0.129667
C10   C     C_R   0.380496 0.187841 0.912318 -0.129864
C11   C     C_R   0.529743 0.770206 0.164776 0.014619
C12   C     C_3   0.014176 0.994443 0.595042 -0.135127
C13   C     C_R   0.697229 0.338779 0.318126 -0.151183
C14   C     C_R   0.314758 0.755347 0.635983 0.058105
C15   C     C_R   0.259534 0.650105 0.648310 -0.151677
C16   C     C_R   0.483504 0.144594 0.712816 0.554294
C17   C     C_R   0.322448 0.545119 0.588299 -0.105934
C18   C     C_R   0.446732 0.545863 0.521542 0.010733
C19   C     C_R   0.491787 0.651604 0.501757 0.177314
C20   C     C_R   0.523057 0.443347 0.467385 -0.022612
C21   C     C_R   0.627340 0.440628 0.378894 0.016945
C22   C     C_R   0.663456 0.541110 0.353702 -0.165573
C23   C     C_3   0.933258 0.897670 0.503878 -0.102262
C24   C     C_R   0.600240 0.645749 0.416491 -0.101191
C25   C     C_R   0.505316 0.346402 0.500968 0.191970
C26   C     C_R   0.667211 0.241057 0.347366 0.020049
C27   C     C_R   0.259801 0.999562 0.499043 0.587418
C28   C     C_3   0.984444 0.006807 0.405571 -0.112383
C29   C     C_3   0.043260 0.904037 0.407998 0.080507
C30   C     C_3   0.122730 0.999848 0.498487 0.054882
C31   C     C_3   0.065418 0.103304 0.496556 -0.113150
C32   C     C_3   0.954792 0.097685 0.592943 -0.126745
C33   C     C_2   0.431284 0.366035 0.615067 0.590496
C34   C     C_3   0.876554 0.000896 0.501720 0.022930
C35   C     C_R   0.344699 0.272523 0.023404 -0.127145
C36   C     C_R   0.464484 0.225791 0.834171 0.007539
C37   C     C_R   0.612642 0.811378 0.088079 -0.124898
C38   C     C_R   0.652683 0.730093 0.976772 -0.125669
C39   C     C_R   0.613074 0.606346 0.940547 -0.105622
Cu1   Cu    Cu3+1 0.529830 0.098270 0.475420 0.988308
Cu2   Cu    Cu3+1 0.470170 0.901730 0.524580 0.926081
H1    H     H_    0.589767 0.368395 0.807141 0.139108
H2    H     H_    0.969490 0.011797 0.327927 0.128253
H3    H     H_    0.268553 0.463145 0.591005 0.141587
H4    H     H_    0.165787 0.648619 0.701233 0.108715
H5    H     H_    0.637433 0.718941 0.393015 0.185322
H6    H     H_    0.121417 0.187551 0.493159 0.150720
H7    H     H_    0.915117 0.176982 0.668807 0.122475
H8    H     H_    0.029028 0.989372 0.672667 0.114917
H9    H     H_    0.877148 0.813181 0.506684 0.138459
H10   H     H_    0.337532 0.094239 0.886182 0.126347
H11   H     H_    0.268625 0.452275 0.220756 0.116659
H12   H     H_    0.651755 0.906129 0.115536 0.124480
H13   H     H_    0.276219 0.242543 0.082111 0.109012
H14   H     H_    0.408797 0.476245 0.783618 0.339173
H15   H     H_    0.652751 0.549479 0.854220 0.140380
H16   H     H_    0.718777 0.762763 0.918978 0.123054
H17   H     H_    0.331169 0.663005 0.276246 0.184678
H18   H     H_    0.719693 0.161734 0.299014 0.121886
H19   H     H_    0.744385 0.540444 0.286942 0.135472
H20   H     H_    0.775145 0.334904 0.248320 0.105623
H21   H     H_    0.263916 0.835907 0.679978 0.124840
I1    I     I_    0.100706 0.750810 0.254385 -0.467039
N1    N     N_R   0.575030 0.246270 0.438190 -0.258599
N2    N     N_R   0.425760 0.754330 0.561190 -0.239173
O1    O     O_R   0.537510 0.972500 0.318130 -0.509193
O2    O     O_R   0.472081 0.465620 0.710928 -0.729979
O3    O     O_R   0.487140 0.806530 0.359650 -0.534691
O4    O     O_R   0.708330 0.082950 0.479220 -0.510475
O5    O     O_R   0.657960 0.916980 0.520740 -0.524080
O6    O     O_R   0.512860 0.193470 0.640350 -0.470807
O7    O     O_R   0.462490 0.027500 0.681870 -0.514209
O8    O     O_R   0.342040 0.083020 0.479260 -0.457945
O9    O     O_R   0.291670 0.917050 0.520780 -0.513178
O10   O     O_2   0.329813 0.302954 0.625631 -0.529022

loop_
_geom_bond_atom_site_label_1
_geom_bond_atom_site_label_2
_ccdc_geom_bond_type
C29   I1    S    
Cu1   O6    S    
C16   O7    A    
C4    O5    A    
C12   H8    S    
C7    C8    A    
C6    C35   A    
C12   C23   S    
C9    H1    S    
C37   C38   A    
C23   C29   S    
C28   C29   S    
C7    H11   S    
C22   H19   S    
C5    C6    A    
C20   C25   A    
C14   H21   S    
C1    O3    A    
Cu1   O8    S    
C18   C19   A    
C11   C37   A    
C26   N1    A    
C8    H17   S    
Cu2   O9    S    
C2    C39   A    
C33   O10   D    
C39   H15   S    
C1    C11   S    
C9    C36   A    
C19   N2    A    
C10   C35   A    
C27   O9    A    
C26   H18   S    
C37   H12   S    
C28   C34   S    
C31   H6    S    
C21   C22   A    
C12   C32   S    
C27   C30   S    
C32   H7    S    
C16   O6    A    
C10   H10   S    
C4    O4    A    
C17   C18   A    
Cu2   O3    S    
C38   C39   A    
C4    C34   S    
Cu1   O4    S    
C3    C8    A    
C23   H9    S    
Cu2   N2    S    
C25   N1    A    
C32   C34   S    
C5    C9    A    
C29   C30   S    
C38   H16   S    
C31   C32   S    
C23   C34   S    
C1    O1    A    
C13   C21   A    
Cu2   O7    S    
Cu1   Cu2   S    
C22   C24   A    
C13   C26   A    
C2    C5    A    
C15   H4    S    
C33   O2    S    
C15   C17   A    
C12   C30   S    
C28   C31   S    
H14   O2    S    
C6    C7    A    
C28   H2    S    
Cu1   N1    S    
C24   H5    S    
C2    C3    A    
C17   H3    S    
C16   C36   S    
C30   C31   S    
C14   N2    A    
C10   C36   A    
C19   C24   A    
C18   C20   A    
C3    C11   A    
C13   H20   S    
C20   C21   A    
C14   C15   A    
Cu1   O1    S    
C27   O8    A    
C25   C33   S    
Cu2   O5    S    
C35   H13   S    
