data_mof_unit_67140.cif
_audit_creation_date              2013-03-05T15:58:56-0500
_audit_creation_method            fapswitch 2.2
_symmetry_space_group_name_H-M    P1
_symmetry_Int_Tables_number       1
_space_group_crystal_system       triclinic
_cell_length_a                    8.237889
_cell_length_b                    13.120943
_cell_length_c                    15.069885
_cell_angle_alpha                 98.517304
_cell_angle_beta                  96.90072
_cell_angle_gamma                 99.143551
_cell_volume                      1573.1376006

loop_
_atom_site_label
_atom_site_type_symbol
_atom_site_description
_atom_site_fract_x
_atom_site_fract_y
_atom_site_fract_z
_atom_type_partial_charge
P1    P     P_3+3 0.998730 0.403530 0.291970 0.462347
O1    O     O_2   0.827880 0.435260 0.277750 -0.377103
O2    O     O_3   0.100280 0.438960 0.391170 -0.381591
O3    O     O_3   0.625580 0.634130 0.333250 -0.368250
O4    O     O_2   0.708440 0.559256 0.174423 -0.426227
O5    O     O_3   0.978774 0.269258 0.254732 -0.629725
O6    O     O_3   0.641841 0.747544 0.192844 -0.539465
C1    C     C_3   0.450239 0.861047 0.165844 -1.017184
H1    H     H_    0.365362 0.904793 0.200658 0.291460
H2    H     H_    0.536106 0.913058 0.133363 0.278857
P2    P     P_3+3 0.687380 0.751030 0.571310 0.475814
P3    P     P_3+3 0.112272 0.826444 0.384266 0.433257
O7    O     O_2   0.857130 0.766340 0.543890 -0.365887
O8    O     O_3   0.056550 0.691050 0.379010 -0.395430
O9    O     O_2   0.990015 0.876653 0.438884 -0.391425
O10   O     O_3   0.732198 0.790003 0.692122 -0.588928
O11   O     O_3   0.064943 0.858359 0.276226 -0.532747
C2    C     C_3   0.048977 0.767909 0.210611 0.512224
H3    H     H_    0.949115 0.706188 0.221674 0.181365
H4    H     H_    0.166902 0.737141 0.212983 0.019109
C3    C     C_3   0.003213 0.793682 0.116521 -1.008886
H5    H     H_    0.991070 0.722359 0.064527 0.231446
H6    H     H_    0.883473 0.822511 0.111797 0.289416
C4    C     C_3   0.303482 0.771864 0.660612 0.441355
H7    H     H_    0.393430 0.726727 0.633354 0.107466
H8    H     H_    0.198447 0.767244 0.605722 0.087347
C5    C     C_3   0.387706 0.885587 0.693566 -1.108673
H9    H     H_    0.519756 0.891372 0.721240 0.303514
H10   H     H_    0.377819 0.932200 0.638280 0.245659
H11   H     H_    0.328045 0.920497 0.749337 0.262230
Ba1   Ba    Ba6+2 0.843750 0.550210 0.455600 1.556802
C6    C     C_3   0.858144 0.209076 0.291143 0.496034
H12   H     H_    0.771370 0.254677 0.322297 0.138729
C7    C     C_3   0.764403 0.123790 0.213520 -0.852108
H13   H     H_    0.715226 0.159775 0.156177 0.279712
H14   H     H_    0.658892 0.076060 0.235539 0.267886
H15   H     H_    0.848143 0.071264 0.187777 0.220521
C8    C     C_3   0.786192 0.720052 0.748089 1.028082
C9    C     C_3   0.678032 0.716172 0.824520 -1.083791
H16   H     H_    0.702316 0.789513 0.874763 0.237706
H17   H     H_    0.694207 0.650231 0.861351 0.242688
H18   H     H_    0.548256 0.710851 0.795049 0.276258
P4    P     P_3+3 0.190990 0.596560 0.708040 0.485068
O12   O     O_2   0.361830 0.564780 0.722310 -0.388122
O13   O     O_3   0.089430 0.561130 0.608830 -0.410523
O14   O     O_3   0.564130 0.365960 0.666760 -0.345892
O15   O     O_3   0.245436 0.732514 0.734256 -0.536431
P5    P     P_3+3 0.096440 0.179627 0.633789 0.493179
O16   O     O_3   0.601940 0.368240 0.453770 -0.381392
O17   O     O_3   0.133170 0.309040 0.621000 -0.333930
O18   O     O_2   0.219030 0.129707 0.578486 -0.381514
O19   O     O_3   0.177654 0.180332 0.746347 -0.474308
Ba2   Ba    Ba6+2 0.346090 0.449880 0.544410 1.566233
P6    P     P_3+3 0.584722 0.622260 0.216026 0.418325
C10   C     C_3   0.544465 0.812453 0.235920 0.517764
H19   H     H_    0.451812 0.773646 0.274147 0.021348
H20   H     H_    0.373816 0.799323 0.112352 0.250843
O20   O     O_3   0.587780 0.631850 0.546230 -0.426054
C11   C     C_3   0.388844 0.217772 0.266025 0.995161
H21   H     H_    0.324642 0.276127 0.303361 -0.080021
C12   C     C_3   0.254003 0.134141 0.205844 0.161072
H22   H     H_    0.178504 0.091532 0.249611 0.084542
H23   H     H_    0.168367 0.172623 0.164314 0.049814
P7    P     P_3+3 0.514964 0.230967 0.437299 0.420819
O21   O     O_2   0.332590 0.233690 0.456160 -0.373930
O22   O     O_3   0.483144 0.168394 0.324237 -0.653598
H24   H     H_    0.100097 0.855370 0.102099 0.268246
C13   C     C_3   0.054466 0.192684 0.801580 0.328047
H25   H     H_    0.034676 0.274918 0.810024 0.075712
H26   H     H_    0.936181 0.138159 0.773253 0.049937
C14   C     C_3   0.115165 0.166771 0.893434 -0.577727
H27   H     H_    0.141962 0.085969 0.883992 0.163092
H28   H     H_    0.230775 0.221819 0.924265 0.223759
P8    P     P_3+3 0.607765 0.379225 0.783431 0.474198
C15   C     C_3   0.613656 0.189006 0.806146 0.475294
H29   H     H_    0.743138 0.224375 0.836510 -0.001878
O23   O     O_2   0.502944 0.459415 0.819408 -0.369073
O24   O     O_3   0.508299 0.262906 0.811222 -0.458730
H30   H     H_    0.609213 0.152471 0.734181 0.079752
H31   H     H_    0.571001 0.140064 0.933750 0.248559
C16   C     C_3   0.554380 0.105503 0.860688 -0.995622
H32   H     H_    0.626461 0.040971 0.851774 0.236902
H33   H     H_    0.420364 0.074508 0.838488 0.268256
C17   C     C_R   0.830884 0.429903 0.833097 0.079970
C18   C     C_R   0.891374 0.448256 0.927787 -0.044608
C19   C     C_R   0.038025 0.461455 0.112841 -0.052607
C20   C     C_R   0.877338 0.407700 0.080435 -0.123244
C21   C     C_R   0.798554 0.411353 0.994236 -0.038292
C22   C     C_R   0.105990 0.473025 0.206719 0.275397
H34   H     H_    0.806189 0.366286 0.123591 0.174666
C23   C     C_R   0.264596 0.532450 0.234889 -0.529062
C24   C     C_R   0.088833 0.529451 0.799336 0.308829
C25   C     C_R   0.152808 0.547069 0.894430 -0.007148
C26   C     C_R   0.058654 0.500140 0.957142 0.025291
C27   C     C_R   0.311510 0.604812 0.928549 -0.101898
C28   C     C_R   0.383546 0.608681 0.018072 -0.199319
C29   C     C_R   0.294488 0.562135 0.080333 -0.004322
C30   C     C_R   0.129752 0.509013 0.050409 0.013723
C31   C     C_R   0.363537 0.569052 0.172268 0.150549
C32   C     C_R   0.942402 0.455124 0.772186 -0.491020
H35   H     H_    0.509663 0.650454 0.037883 0.189978
H36   H     H_    0.384070 0.645001 0.885668 0.172127
H37   H     H_    0.317772 0.541891 0.305477 0.186232
H38   H     H_    0.909285 0.421367 0.701334 0.164945
C33   C     C_R   0.775123 0.181279 0.550046 -0.507676
C34   C     C_R   0.427517 0.814117 0.470340 -0.534415
C35   C     C_R   0.390363 0.988220 0.449110 -0.168026
C36   C     C_R   0.328066 0.881035 0.438375 0.199322
C37   C     C_R   0.584432 0.852367 0.521387 0.339885
C38   C     C_R   0.647989 0.964746 0.538144 -0.148062
C39   C     C_R   0.550063 0.032301 0.497382 -0.102012
C40   C     C_R   0.614324 0.141896 0.505299 0.282876
C41   C     C_R   0.873959 0.118048 0.589935 0.029503
C42   C     C_R   0.805754 0.011655 0.591135 0.494499
H39   H     H_    0.311076 0.036370 0.419993 0.184326
H40   H     H_    0.827283 0.262330 0.549898 0.177679
H41   H     H_    0.377960 0.731006 0.459339 0.167420
C43   C     C_1   0.655106 0.893497 0.301207 0.155375
N1    N     N_1   0.743476 0.957563 0.353131 -0.064904
C44   C     C_1   0.944493 0.160740 0.359250 0.009471
N2    N     N_1   0.014910 0.121219 0.411472 -0.016781
O25   O     O_3   0.957380 0.752194 0.783729 -0.635899
C45   C     C_3   0.994461 0.847936 0.845866 -0.232259
H42   H     H_    0.983817 0.832739 0.915662 0.153063
H43   H     H_    0.125711 0.883964 0.846531 0.157186
H44   H     H_    0.915854 0.905613 0.828181 0.179046
C46   C     C_1   0.766886 0.615110 0.696830 0.127050
N3    N     N_1   0.749028 0.535564 0.649533 0.005571
O26   O     O_3   0.496927 0.260053 0.209930 -0.654884
C47   C     C_3   0.458855 0.355062 0.192272 -0.284755
H45   H     H_    0.329908 0.344558 0.156253 0.098335
H46   H     H_    0.543165 0.384764 0.147625 0.207554
H47   H     H_    0.482759 0.412194 0.256536 0.187029
O27   O     O_3   0.330286 0.061503 0.154281 -0.585675
C48   C     C_3   0.292945 0.061973 0.060939 -0.210441
H48   H     H_    0.336061 0.140978 0.045123 0.166181
H49   H     H_    0.157795 0.034375 0.037599 0.137983
H50   H     H_    0.360122 0.006643 0.023685 0.166426
C49   C     C_1   0.992256 0.173295 0.955665 0.060931
N4    N     N_1   0.896675 0.177345 0.005753 -0.083773
C50   C     C_1   0.620088 0.387014 0.984050 0.185033
N5    N     N_1   0.476733 0.369115 0.978476 -0.066194
O28   O     O_3   0.864279 0.964236 0.661308 -0.641671
C51   C     C_3   0.028494 0.947971 0.659183 -0.042400
H51   H     H_    0.110715 0.998457 0.717064 0.132869
H52   H     H_    0.076202 0.955637 0.594544 0.154661
H53   H     H_    0.035026 0.868534 0.671814 0.203322

loop_
_geom_bond_atom_site_label_1
_geom_bond_atom_site_label_2
_geom_bond_distance
_ccdc_geom_bond_type
C48   H50   1.109101 S    
O5    C6    1.386396 S    
C10   H19   1.114778 S    
C25   C26   1.438970 A    
C5    H10   1.106937 S    
C2    C3    1.523513 S    
P2    O7    1.496909 D    
C33   H40   1.082272 S    
C39   C40   1.433301 A    
C4    C5    1.524205 S    
O6    C10   1.403111 S    
O8    Ba1   2.812232 S    
C15   H29   1.106793 S    
C16   H32   1.110333 S    
C45   H42   1.110181 S    
C9    H17   1.111544 S    
Ba1   O20   2.904445 S    
C33   C41   1.399065 A    
C4    H8    1.110439 S    
C7    H13   1.109665 S    
C11   O22   1.399062 S    
C8    C9    1.540364 S    
C45   H43   1.107319 S    
P2    C37   1.885350 S    
C26   C30   1.436703 A    
O28   C51   1.405961 S    
C7    H15   1.112461 S    
C29   C30   1.410700 A    
P1    Ba1   3.397973 S    
P1    O1    1.529812 D    
P2    O10   1.793094 S    
C12   H23   1.115801 S    
C43   N1    1.150064 T    
C29   C31   1.417127 A    
C38   C39   1.443342 A    
C50   N5    1.157157 T    
O12   Ba2   2.852045 S    
P4    Ba2   3.398520 S    
C32   H38   1.078035 S    
C27   C28   1.397338 A    
C1    H1    1.104589 S    
P8    O23   1.542374 D    
P3    O11   1.754864 S    
C35   C36   1.396669 A    
C22   C23   1.392906 A    
P2    O20   1.613697 S    
Ba2   O21   2.928169 S    
C38   C42   1.434021 A    
C7    H14   1.102563 S    
O19   C13   1.401505 S    
C27   H36   1.070758 S    
P5    O17   1.720353 S    
P2    Ba1   3.449699 S    
C11   H21   1.120337 S    
C25   C27   1.398530 A    
O16   P7    1.798284 S    
C3    H5    1.110825 S    
C3    H24   1.108078 S    
C5    H11   1.102047 S    
Ba1   O16   2.850486 S    
C51   H53   1.095266 S    
C1    C10   1.511307 S    
C16   H33   1.106522 S    
O7    Ba1   2.927818 S    
C12   O27   1.412582 S    
C8    C46   1.450442 S    
C9    H18   1.094550 S    
P5    O18   1.547337 D    
C11   C12   1.528480 S    
O17   Ba2   2.812793 S    
P1    O5    1.743190 S    
C17   C32   1.411393 A    
O4    P6    1.543691 D    
C48   H48   1.110885 S    
C28   H35   1.079332 S    
C17   C18   1.425389 A    
C51   H52   1.105401 S    
P8    C17   1.874634 S    
C9    H16   1.107209 S    
P3    C36   1.847190 S    
C19   C20   1.390720 A    
C2    H3    1.105266 S    
C45   H44   1.112243 S    
C14   C49   1.464221 S    
Ba1   Ba2   4.522896 S    
C6    H12   1.105792 S    
O1    Ba1   2.851487 S    
P1    O2    1.587699 S    
C6    C7    1.528878 S    
C47   H46   1.091285 S    
P4    O12   1.530076 D    
C1    H20   1.106652 S    
C18   C26   1.422773 A    
P3    O9    1.541180 D    
Ba2   O20   2.849958 S    
C28   C29   1.408656 A    
O11   C2    1.405351 S    
C4    H7    1.099590 S    
O2    Ba1   2.931381 S    
P4    O13   1.587856 S    
C35   H39   1.078283 S    
C8    O25   1.420190 S    
C1    H2    1.111029 S    
C33   C40   1.393206 A    
P3    O8    1.750243 S    
P4    O15   1.741762 S    
C3    H6    1.109427 S    
C34   H41   1.082594 S    
P8    O24   1.746576 S    
P6    C31   1.847400 S    
C47   H47   1.109425 S    
C46   N3    1.150940 T    
C21   C50   1.438408 S    
O14   P8    1.728703 S    
C44   N2    1.153922 T    
C24   C32   1.401052 A    
C14   H28   1.104639 S    
C41   C42   1.423177 A    
C18   C21   1.425436 A    
C48   H49   1.111053 S    
C11   O26   1.406383 S    
P1    C22   1.904324 S    
O3    P6    1.737017 S    
C4    O15   1.394887 S    
C35   C39   1.413528 A    
C13   H25   1.107799 S    
C15   C16   1.519085 S    
C23   H37   1.081921 S    
H31   C16   1.110316 S    
C19   C22   1.434224 A    
C49   N4    1.156197 T    
O27   C48   1.404456 S    
P4    C24   1.943713 S    
C51   H51   1.096684 S    
C42   O28   1.380422 S    
C47   H45   1.111205 S    
O26   C47   1.387683 S    
C14   H27   1.109167 S    
P7    O22   1.748060 S    
C37   C38   1.457625 A    
P7    O21   1.567120 D    
O2    Ba2   2.853062 S    
C34   C36   1.390412 A    
C13   C14   1.519486 S    
O16   Ba2   2.903690 S    
O14   Ba2   2.876192 S    
C24   C25   1.437528 A    
C2    H4    1.108405 S    
C12   H22   1.109826 S    
C19   C30   1.428442 A    
C15   O24   1.400286 S    
O3    Ba1   2.876843 S    
P7    C40   1.882327 S    
O13   Ba2   2.932228 S    
P5    O19   1.745158 S    
C20   C21   1.391645 A    
C13   H26   1.109759 S    
Ba1   O13   2.852307 S    
C20   H34   1.075559 S    
C5    H9    1.103813 S    
O6    P6    1.734772 S    
C23   C31   1.407204 A    
O25   C45   1.417431 S    
C6    C44   1.456853 S    
C15   H30   1.112733 S    
C34   C37   1.398247 A    
O10   C8    1.421440 S    
P5    C41   1.878502 S    
C10   C43   1.447781 S    
