data_mof_unit_19057.cif
_audit_creation_date              2013-03-05T16:07:32-0500
_audit_creation_method            fapswitch 2.2
_symmetry_space_group_name_H-M    P1
_symmetry_Int_Tables_number       1
_space_group_crystal_system       triclinic
_cell_length_a                    10.826776
_cell_length_b                    10.876509
_cell_length_c                    9.508279
_cell_angle_alpha                 90.588887
_cell_angle_beta                  89.345032
_cell_angle_gamma                 90.103335
_cell_volume                      1119.53753417

loop_
_atom_site_label
_atom_site_type_symbol
_atom_site_description
_atom_site_fract_x
_atom_site_fract_y
_atom_site_fract_z
_atom_type_partial_charge
O1    O     O_R   0.499990 0.319660 0.618740 -0.611761
O2    O     O_R   0.500010 0.680340 0.381260 -0.611746
O3    O     O_R   0.499990 0.319630 0.381170 -0.537451
O4    O     O_R   0.500010 0.680370 0.618830 -0.537435
C1    C     C_R   0.503574 0.262112 0.498845 0.834490
C2    C     C_R   0.496411 0.737887 0.501154 0.834528
O5    O     O_R   0.319650 0.500020 0.618780 -0.536011
O6    O     O_R   0.680350 0.499980 0.381220 -0.536070
O7    O     O_R   0.319640 0.500000 0.381210 -0.582470
O8    O     O_R   0.680360 0.500000 0.618790 -0.582467
C3    C     C_R   0.262431 0.498314 0.500550 0.857167
C4    C     C_R   0.737569 0.501679 0.499451 0.857193
Cu1   Cu    Cu3+1 0.500000 0.500020 0.640660 1.029612
Cu2   Cu    Cu3+1 0.500000 0.499980 0.359340 1.029579
H1    H     H_    0.255954 0.994771 0.197546 0.191720
H2    H     H_    0.744057 0.005338 0.802195 0.191649
C5    C     C_R   0.180292 0.173238 0.155310 -0.199786
C6    C     C_R   0.819802 0.826928 0.844539 -0.199688
H3    H     H_    0.185779 0.159124 0.042548 0.181866
H4    H     H_    0.814389 0.841114 0.957294 0.181852
C7    C     C_R   0.134864 0.284457 0.212484 0.365909
C8    C     C_R   0.865231 0.715692 0.787425 0.365984
C9    C     C_R   0.129163 0.299189 0.360959 0.063486
C10   C     C_R   0.870835 0.700839 0.638972 0.063384
C11   C     C_R   0.174236 0.205718 0.447074 -0.242054
C12   C     C_R   0.825689 0.794233 0.552802 -0.242054
H5    H     H_    0.170778 0.215834 0.560545 0.156477
H6    H     H_    0.829089 0.784037 0.439340 0.156505
C13   C     C_R   0.219137 0.096654 0.388024 -0.162243
C14   C     C_R   0.780799 0.903330 0.611785 -0.162321
H7    H     H_    0.252589 0.024958 0.455127 0.142285
H8    H     H_    0.747299 0.974970 0.544639 0.142326
C15   C     C_R   0.221117 0.079832 0.242687 -0.090828
C16   C     C_R   0.778893 0.920256 0.757108 -0.090947
C17   C     C_R   0.934858 0.405372 0.431218 0.489769
C18   C     C_R   0.065141 0.594617 0.568790 0.489855
C19   C     C_R   0.871354 0.502181 0.498850 -0.218810
C20   C     C_R   0.128646 0.497809 0.501154 -0.218744
C21   C     C_R   0.935885 0.595774 0.570366 -0.097023
C22   C     C_R   0.064113 0.404221 0.429632 -0.097014
C23   C     C_R   0.526106 0.059508 0.371565 0.330366
C24   C     C_R   0.473847 0.940491 0.628429 0.330382
C25   C     C_R   0.517227 0.932389 0.376135 -0.313480
C26   C     C_R   0.482716 0.067610 0.623857 -0.313460
H9    H     H_    0.533646 0.880705 0.279697 0.214119
H10   H     H_    0.466299 0.119294 0.720295 0.214091
C27   C     C_R   0.492973 0.871805 0.502901 -0.216172
C28   C     C_R   0.506983 0.128193 0.497094 -0.216156
C29   C     C_R   0.434237 0.414047 0.074287 0.094193
C30   C     C_R   0.565771 0.585948 0.925713 0.094160
H11   H     H_    0.382265 0.344954 0.130362 0.134881
H12   H     H_    0.617758 0.655033 0.869638 0.134902
C31   C     C_R   0.433917 0.414240 0.925438 0.046200
C32   C     C_R   0.566085 0.585758 0.074562 0.046046
H13   H     H_    0.380737 0.345634 0.869325 0.131574
H14   H     H_    0.619267 0.654363 0.130676 0.131524
N1    N     N_R   0.500030 0.500030 0.852070 -0.183109
N2    N     N_R   0.499970 0.499970 0.147930 -0.183100
N3    N     N_R   0.098068 0.380999 0.119246 0.140855
O9    O     O_R   0.101185 0.495506 0.160019 -0.303088
O10   O     O_R   0.077523 0.356508 0.987248 -0.311331
N4    N     N_R   0.902173 0.619252 0.880719 0.140845
O11   O     O_R   0.898736 0.504686 0.840213 -0.303201
O12   O     O_R   0.923235 0.643942 0.012528 -0.310950
O13   O     O_3   0.870703 0.311126 0.365820 -0.524189
C33   C     C_3   0.846197 0.218562 0.465380 -0.224921
H15   H     H_    0.768284 0.245678 0.535931 0.145748
H16   H     H_    0.927976 0.195054 0.529602 0.141727
H17   H     H_    0.819632 0.133801 0.407791 0.202804
O14   O     O_3   0.129299 0.688868 0.634177 -0.524147
C34   C     C_3   0.153798 0.781428 0.534610 -0.224980
H18   H     H_    0.072000 0.804961 0.470431 0.141791
H19   H     H_    0.231678 0.754293 0.464020 0.145767
H20   H     H_    0.180410 0.866181 0.592188 0.202787
N5    N     N_R   0.554651 0.115647 0.238888 0.123907
O15   O     O_R   0.652074 0.184822 0.225452 -0.312785
O16   O     O_R   0.497849 0.079156 0.126081 -0.351766
N6    N     N_R   0.445333 0.884348 0.761111 0.123913
O17   O     O_R   0.347919 0.815165 0.774575 -0.312720
O18   O     O_R   0.502168 0.920831 0.873900 -0.351738

loop_
_geom_bond_atom_site_label_1
_geom_bond_atom_site_label_2
_geom_bond_distance
_ccdc_geom_bond_type
C8    N4    1.440775 S    
C33   H16   1.112918 S    
N5    O15   1.300376 A    
O5    C3    1.289697 A    
C30   C32   1.415371 A    
C24   C26   1.386867 A    
O1    C1    1.295101 A    
C17   C19   1.404826 A    
C10   C12   1.403607 A    
C7    N3    1.440812 S    
N6    O18   1.300642 A    
C33   H17   1.106676 S    
Cu1   N1    2.010148 S    
C17   O13   1.383508 S    
C9    C22   1.484741 S    
C13   C15   1.392019 A    
C4    C19   1.448406 S    
C10   C21   1.484743 S    
O4    Cu1   1.974649 S    
N4    O12   1.301621 A    
H2    C16   1.082496 S    
C26   H10   1.083727 S    
C29   H11   1.079581 S    
C30   H12   1.079600 S    
O14   C34   1.411736 S    
C14   H8    1.078352 S    
O7    C3    1.286809 A    
C31   H13   1.081791 S    
C33   H15   1.110155 S    
N3    O9    1.301063 A    
Cu1   Cu2   2.674866 S    
C23   C25   1.386866 A    
O2    C2    1.295095 A    
C5    C15   1.394669 A    
C18   O14   1.383515 S    
C6    C16   1.394655 A    
C11   C13   1.393154 A    
Cu2   N2    2.010148 S    
C1    C28   1.457014 S    
C32   H14   1.081790 S    
N3    O10   1.301898 A    
C2    C27   1.457017 S    
C14   C16   1.392025 A    
O4    C2    1.288517 A    
C34   H19   1.110156 S    
C31   N1    1.367194 A    
N6    O17   1.300378 A    
C5    C7    1.408283 A    
C29   N2    1.365907 A    
C3    C20   1.448408 S    
O7    Cu2   1.961394 S    
N4    O11   1.301049 A    
C23   N5    1.437371 S    
N5    O16   1.300643 A    
O6    C4    1.289701 A    
C25   H9    1.083726 S    
O3    Cu2   1.974649 S    
O8    C4    1.286802 A    
C12   C14   1.393164 A    
C7    C9    1.419820 A    
C8    C10   1.419723 A    
O1    Cu1   1.970597 S    
C32   N2    1.367196 A    
O6    Cu2   1.966023 S    
C6    C8    1.408235 A    
C30   N1    1.365918 A    
C18   C21   1.399414 A    
O3    C1    1.288511 A    
O8    Cu1   1.961393 S    
C34   H20   1.106679 S    
C24   N6    1.437364 S    
C11   H5    1.083614 S    
C12   H6    1.083596 S    
C18   C20   1.404832 A    
C17   C22   1.399402 A    
C34   H18   1.112912 S    
C19   C21   1.407426 A    
C20   C22   1.407427 A    
C29   C31   1.415366 A    
C5    H3    1.082518 S    
C23   C28   1.414973 A    
C6    H4    1.082517 S    
C24   C27   1.414968 A    
C9    C11   1.403628 A    
O2    Cu2   1.970597 S    
O5    Cu1   1.966024 S    
C13   H7    1.078372 S    
O13   C33   1.411735 S    
C25   C27   1.401578 A    
H1    C15   1.082502 S    
C26   C28   1.401577 A    
