data_mof_unit_29614.cif
_audit_creation_date              2012-12-11T14:38:17-0500
_audit_creation_method            fapswitch 2.2
_symmetry_space_group_name_H-M    P1
_symmetry_Int_Tables_number       1
_space_group_crystal_system       triclinic
_cell_length_a                    19.59096
_cell_length_b                    11.064282
_cell_length_c                    19.651648
_cell_angle_alpha                 90.029614
_cell_angle_beta                  96.860917
_cell_angle_gamma                 90.076418
_cell_volume                      4229.18125057

loop_
_atom_site_label
_atom_site_type_symbol
_atom_type_description
_atom_site_fract_x
_atom_site_fract_y
_atom_site_fract_z
_atom_type_partial_charge
C1    C     C_R   0.706649 0.999378 0.366209 0.553260
C2    C     C_R   0.293345 0.999264 0.633840 0.553068
C3    C     C_R   0.206649 0.499376 0.366209 0.553045
C4    C     C_R   0.793345 0.499262 0.633840 0.553826
C5    C     C_3   0.692369 0.472238 0.454310 -0.242065
C6    C     C_3   0.307686 0.472505 0.545727 -0.242095
C7    C     C_3   0.192369 0.972236 0.454311 -0.242121
C8    C     C_3   0.807684 0.972516 0.545730 -0.242010
C9    C     C_3   0.833613 0.534872 0.517228 -0.244424
C10   C     C_3   0.166466 0.534789 0.482972 -0.244765
C11   C     C_3   0.333613 0.034879 0.517227 -0.244439
C12   C     C_3   0.666465 0.034792 0.482975 -0.244614
C13   C     C_3   0.792990 0.333652 0.549855 -0.240348
C14   C     C_3   0.206832 0.333744 0.450080 -0.240033
C15   C     C_3   0.292997 0.833657 0.549854 -0.240312
C16   C     C_3   0.706833 0.833747 0.450080 -0.240043
C17   C     C_3   0.780954 0.469349 0.559581 0.021548
C18   C     C_3   0.219037 0.469468 0.440477 0.021965
C19   C     C_3   0.280956 0.969352 0.559581 0.021779
C20   C     C_3   0.719036 0.969472 0.440478 0.021801
C21   C     C_3   0.756952 0.414716 0.429480 0.049903
C22   C     C_3   0.243107 0.414670 0.570529 0.049674
C23   C     C_3   0.256953 0.914716 0.429480 0.049984
C24   C     C_3   0.743107 0.914673 0.570531 0.049543
C25   C     C_3   0.819246 0.503144 0.439111 -0.033783
C26   C     C_3   0.180831 0.502837 0.561032 -0.034411
C27   C     C_3   0.319246 0.003147 0.439110 -0.033971
C28   C     C_3   0.680829 0.002834 0.561035 -0.034177
C29   C     C_3   0.780721 0.303931 0.474929 -0.266608
C30   C     C_3   0.219313 0.303851 0.524962 -0.266673
C31   C     C_3   0.280723 0.803932 0.474929 -0.266604
C32   C     C_3   0.719317 0.803854 0.524963 -0.266699
C33   C     C_3   0.555127 0.235999 0.953172 -0.248592
C34   C     C_3   0.571743 0.237349 0.031204 -0.219236
C35   C     C_3   0.923618 0.774790 0.974072 -0.240859
C36   C     C_3   0.947693 0.774623 0.051251 -0.233281
C37   C     C_3   0.428274 0.236901 0.968845 -0.219613
C38   C     C_3   0.508905 0.039412 0.039087 -0.235264
C39   C     C_3   0.943363 0.551080 0.969178 -0.231832
C40   C     C_3   0.063436 0.692899 0.027756 -0.228750
C41   C     C_3   0.491299 0.039467 0.960727 -0.235084
C42   C     C_3   0.444880 0.235396 0.046874 -0.248838
C43   C     C_3   0.039745 0.694469 0.950737 -0.223252
C44   C     C_3   0.967255 0.550078 0.047231 -0.239608
C45   C     C_R   0.536129 0.180330 0.338651 0.544729
C46   C     C_R   0.463885 0.180365 0.661358 0.544996
C47   C     C_R   0.036128 0.680330 0.338651 0.542213
C48   C     C_R   0.963884 0.680365 0.661358 0.552257
C49   C     C_3   0.485733 0.171846 0.933911 0.052168
C50   C     C_3   0.514334 0.171738 0.066061 0.052217
C51   C     C_3   0.961010 0.674781 0.937547 0.043826
C52   C     C_3   0.001452 0.672914 0.068992 0.052832
C53   C     C_1   0.761832 0.425692 0.904080 -0.017154
C54   C     C_1   0.237433 0.427046 0.095444 -0.010439
C55   C     C_1   0.262755 0.927551 0.904687 -0.010361
C56   C     C_1   0.736459 0.929410 0.094667 -0.014804
C57   C     C_1   0.747175 0.405028 0.034069 -0.054623
C58   C     C_1   0.252275 0.406592 0.965519 -0.050969
C59   C     C_1   0.248023 0.907016 0.034638 -0.051446
C60   C     C_1   0.750484 0.910811 0.964401 -0.055632
C61   C     C_1   0.753350 0.414110 0.963454 -0.053929
C62   C     C_1   0.245814 0.415840 0.036042 -0.048947
C63   C     C_1   0.254480 0.916410 0.964119 -0.048985
C64   C     C_1   0.744256 0.919493 0.035026 -0.052534
C65   C     C_1   0.742674 0.391363 0.094192 -0.016840
C66   C     C_1   0.257066 0.392471 0.905500 -0.012567
C67   C     C_1   0.243137 0.892676 0.094618 -0.011909
C68   C     C_1   0.755760 0.895827 0.904520 -0.017712
C69   C     C_R   0.741097 0.366139 0.359525 0.594121
C70   C     C_R   0.258945 0.366102 0.640450 0.594419
C71   C     C_R   0.241097 0.866139 0.359526 0.593773
C72   C     C_R   0.758945 0.866103 0.640451 0.595329
C73   C     C_R   0.721765 0.954634 0.162924 0.548992
C74   C     C_R   0.278076 0.954297 0.836855 0.550321
C75   C     C_R   0.221986 0.454084 0.163204 0.551182
C76   C     C_R   0.777816 0.453721 0.836596 0.542980
C77   C     C_R   0.534021 0.178897 0.140035 0.544479
C78   C     C_R   0.466008 0.178988 0.859949 0.544658
C79   C     C_R   0.029357 0.678834 0.142032 0.538731
C80   C     C_R   0.938613 0.682067 0.863108 0.547842
C81   C     C_R   0.735776 0.358084 0.163476 0.556565
C82   C     C_R   0.264154 0.358477 0.836393 0.558378
C83   C     C_R   0.235887 0.858440 0.163644 0.558942
C84   C     C_R   0.763791 0.859566 0.835953 0.552439
C85   C     C_1   0.485067 0.173326 0.594228 0.024255
C86   C     C_1   0.514996 0.173291 0.405801 0.023695
C87   C     C_1   0.985064 0.673326 0.594226 0.022771
C88   C     C_1   0.014993 0.673291 0.405799 0.024231
C89   C     C_1   0.504618 0.170667 0.464981 -0.009502
C90   C     C_1   0.495476 0.170686 0.535055 -0.009245
C91   C     C_1   0.004615 0.670667 0.464980 -0.009224
C92   C     C_1   0.995472 0.670686 0.535054 -0.009607
C93   C     C_3   0.704371 0.492169 0.531239 -0.246314
C94   C     C_3   0.295666 0.492374 0.468801 -0.246164
C95   C     C_3   0.204372 0.992165 0.531240 -0.246276
C96   C     C_3   0.795665 0.992378 0.468803 -0.246171
Cr1   Cr    Cr6+3 0.765780 0.160710 0.267420 1.024255
Cr2   Cr    Cr6+3 0.234220 0.160710 0.732580 1.028098
Cr3   Cr    Cr6+3 0.265780 0.660710 0.267420 1.026107
Cr4   Cr    Cr6+3 0.734220 0.660710 0.732580 1.021333
Cr5   Cr    Cr6+3 0.612200 0.009560 0.248850 1.015863
Cr6   Cr    Cr6+3 0.387800 0.009560 0.751150 1.016007
Cr7   Cr    Cr6+3 0.112200 0.509560 0.248850 1.016654
Cr8   Cr    Cr6+3 0.887800 0.509560 0.751150 1.016473
Cr9   Cr    Cr6+3 0.616030 0.323720 0.248510 1.035564
Cr10  Cr    Cr6+3 0.383970 0.323720 0.751490 1.035821
Cr11  Cr    Cr6+3 0.116030 0.823720 0.248510 1.036208
Cr12  Cr    Cr6+3 0.883970 0.823720 0.751490 1.033379
H1    H     H_    0.685844 0.581209 0.544287 0.125113
H2    H     H_    0.314341 0.581407 0.455791 0.124825
H3    H     H_    0.185840 0.081202 0.544288 0.125065
H4    H     H_    0.814342 0.081408 0.455790 0.124826
H5    H     H_    0.830653 0.270243 0.460732 0.130114
H6    H     H_    0.169454 0.269765 0.539229 0.130089
H7    H     H_    0.330654 0.770241 0.460730 0.130122
H8    H     H_    0.669459 0.769761 0.539229 0.130052
H9    H     H_    0.885649 0.499616 0.535965 0.108858
H10   H     H_    0.114375 0.499536 0.464193 0.109157
H11   H     H_    0.385650 0.999628 0.535964 0.109060
H12   H     H_    0.614374 0.999539 0.464194 0.109049
H13   H     H_    0.865368 0.454275 0.425235 0.103752
H14   H     H_    0.134701 0.453688 0.574818 0.104538
H15   H     H_    0.365368 0.954279 0.425236 0.103894
H16   H     H_    0.634700 0.953680 0.574818 0.104148
H17   H     H_    0.553177 0.330582 0.933711 0.143196
H18   H     H_    0.622252 0.192525 0.045838 0.118565
H19   H     H_    0.867279 0.758350 0.965713 0.112752
H20   H     H_    0.969988 0.864949 0.065648 0.150916
H21   H     H_    0.596515 0.188197 0.929727 0.121429
H22   H     H_    0.577235 0.333148 0.048405 0.149808
H23   H     H_    0.933360 0.865561 0.952772 0.148313
H24   H     H_    0.902887 0.761063 0.080336 0.122365
H25   H     H_    0.422722 0.332710 0.951780 0.149279
H26   H     H_    0.558539 0.991195 0.052530 0.149601
H27   H     H_    0.887058 0.534983 0.960168 0.123611
H28   H     H_    0.089648 0.780071 0.042550 0.137944
H29   H     H_    0.446733 0.329928 0.066482 0.142814
H30   H     H_    0.531665 0.989931 0.936677 0.130088
H31   H     H_    0.922493 0.533689 0.075950 0.124695
H32   H     H_    0.054382 0.782667 0.929373 0.149857
H33   H     H_    0.441716 0.990862 0.947228 0.149408
H34   H     H_    0.403529 0.187172 0.070234 0.120306
H35   H     H_    0.066827 0.622314 0.924995 0.135722
H36   H     H_    0.004267 0.474693 0.059281 0.144815
H37   H     H_    0.468589 0.989473 0.063068 0.129573
H38   H     H_    0.377796 0.191751 0.954131 0.117627
H39   H     H_    0.102118 0.619801 0.039419 0.124648
H40   H     H_    0.968959 0.475872 0.944496 0.149009
H41   H     H_    0.670965 0.428306 0.556122 0.179043
H42   H     H_    0.328960 0.428496 0.443872 0.179559
H43   H     H_    0.170968 0.928296 0.556122 0.179178
H44   H     H_    0.828959 0.928497 0.443876 0.179511
H45   H     H_    0.646826 0.411985 0.442910 0.142385
H46   H     H_    0.353228 0.412478 0.557094 0.142472
H47   H     H_    0.146826 0.911982 0.442911 0.142476
H48   H     H_    0.853229 0.912497 0.557099 0.142301
H49   H     H_    0.680016 0.559583 0.427826 0.160144
H50   H     H_    0.320046 0.559911 0.572254 0.160244
H51   H     H_    0.180015 0.059581 0.427828 0.160069
H52   H     H_    0.820039 0.059925 0.572255 0.160430
H53   H     H_    0.340382 0.132058 0.526953 0.110739
H54   H     H_    0.659767 0.131992 0.473476 0.110676
H55   H     H_    0.840385 0.632050 0.526955 0.110581
H56   H     H_    0.159768 0.631989 0.473470 0.110687
H57   H     H_    0.846377 0.305860 0.569726 0.144362
H58   H     H_    0.153348 0.306017 0.430335 0.143864
H59   H     H_    0.346388 0.805874 0.569721 0.144232
H60   H     H_    0.653349 0.806020 0.430337 0.143909
H61   H     H_    0.758048 0.281779 0.578061 0.194051
H62   H     H_    0.241545 0.281905 0.421640 0.194234
H63   H     H_    0.258061 0.781779 0.578064 0.193925
H64   H     H_    0.741545 0.781908 0.421638 0.194298
H65   H     H_    0.743237 0.232124 0.466185 0.122562
H66   H     H_    0.256892 0.232327 0.533447 0.122689
H67   H     H_    0.243237 0.732127 0.466189 0.122541
H68   H     H_    0.756899 0.732334 0.533446 0.122789
O1    O     O_R   0.783100 0.287550 0.345460 -0.548004
O2    O     O_R   0.216900 0.287550 0.654540 -0.547501
O3    O     O_R   0.283100 0.787550 0.345460 -0.548141
O4    O     O_R   0.716900 0.787550 0.654540 -0.546808
O5    O     O_R   0.554710 0.081900 0.170950 -0.506690
O6    O     O_R   0.445290 0.081900 0.829050 -0.506569
O7    O     O_R   0.054710 0.581900 0.170950 -0.503700
O8    O     O_R   0.945290 0.581900 0.829050 -0.500749
O9    O     O_R   0.545650 0.284910 0.163740 -0.522490
O10   O     O_R   0.454350 0.284910 0.836260 -0.522391
O11   O     O_R   0.045650 0.784910 0.163740 -0.522099
O12   O     O_R   0.954350 0.784910 0.836260 -0.517078
O13   O     O_R   0.677950 0.374280 0.185410 -0.491339
O14   O     O_R   0.322050 0.374280 0.814590 -0.492350
O15   O     O_R   0.177950 0.874280 0.185410 -0.488082
O16   O     O_R   0.822050 0.874280 0.814590 -0.503216
O17   O     O_3   0.664670 0.164660 0.254930 -0.285290
O18   O     O_3   0.335330 0.164660 0.745070 -0.286094
O19   O     O_3   0.164670 0.664660 0.254930 -0.283273
O20   O     O_3   0.835330 0.664660 0.745070 -0.301232
O21   O     O_R   0.760020 0.037400 0.337700 -0.500822
O22   O     O_R   0.239980 0.037400 0.662300 -0.500590
O23   O     O_R   0.260020 0.537400 0.337700 -0.501162
O24   O     O_R   0.739980 0.537400 0.662300 -0.499480
O25   O     O_R   0.666600 0.921990 0.332020 -0.518026
O26   O     O_R   0.333400 0.921990 0.667980 -0.517881
O27   O     O_R   0.166600 0.421990 0.332020 -0.518612
O28   O     O_R   0.833400 0.421990 0.667980 -0.517394
O29   O     O_R   0.557260 0.082670 0.312540 -0.517817
O30   O     O_R   0.442740 0.082670 0.687460 -0.517561
O31   O     O_R   0.057260 0.582670 0.312540 -0.519468
O32   O     O_R   0.942740 0.582670 0.687460 -0.513352
O33   O     O_R   0.548410 0.285740 0.316480 -0.505553
O34   O     O_R   0.451590 0.285740 0.683520 -0.505677
O35   O     O_R   0.048410 0.785740 0.316480 -0.507097
O36   O     O_R   0.951590 0.785740 0.683520 -0.502099
O37   O     O_R   0.680500 0.375040 0.327000 -0.483746
O38   O     O_R   0.319500 0.375040 0.673000 -0.484012
O39   O     O_R   0.180500 0.875040 0.327000 -0.484154
O40   O     O_R   0.819500 0.875040 0.673000 -0.483535
O41   O     O_R   0.780350 0.286720 0.192720 -0.505524
O42   O     O_R   0.219650 0.286720 0.807280 -0.503193
O43   O     O_R   0.280350 0.786720 0.192720 -0.505564
O44   O     O_R   0.719650 0.786720 0.807280 -0.503779
O45   O     O_R   0.757470 0.036630 0.196110 -0.489656
O46   O     O_R   0.242530 0.036630 0.803890 -0.488556
O47   O     O_R   0.257470 0.536630 0.196110 -0.489725
O48   O     O_R   0.742530 0.536630 0.803890 -0.490076
O49   O     O_R   0.663840 0.921160 0.179280 -0.508516
O50   O     O_R   0.336160 0.921160 0.820720 -0.509170
O51   O     O_R   0.163840 0.421160 0.179280 -0.505114
O52   O     O_R   0.836160 0.421160 0.820720 -0.512906
C97   C     C_2   0.313675 0.111301 0.391867 0.518133
O53   O     O_2   0.357427 0.190517 0.399685 -0.555519
O54   O     O_R   0.261134 0.118867 0.337128 -0.711285
H69   H     H_    0.264564 0.194329 0.308463 0.349106
C98   C     C_2   0.686416 0.110846 0.608475 0.518276
O55   O     O_2   0.642519 0.189621 0.600974 -0.555166
O56   O     O_R   0.739189 0.118827 0.662991 -0.710553
H70   H     H_    0.735785 0.194191 0.691773 0.349782
C99   C     C_2   0.813677 0.611300 0.391868 0.517749
O57   O     O_2   0.857429 0.690516 0.399687 -0.555947
O58   O     O_R   0.761140 0.618865 0.337125 -0.711305
H71   H     H_    0.764572 0.694324 0.308459 0.348997
C100  C     C_2   0.186423 0.610853 0.608467 0.519246
O59   O     O_2   0.142527 0.689629 0.600966 -0.554133
O60   O     O_R   0.239201 0.618838 0.662979 -0.710350
H72   H     H_    0.235803 0.694210 0.691754 0.350178

loop_
_geom_bond_atom_site_label_1
_geom_bond_atom_site_label_2
_ccdc_geom_bond_type
C58   C62   S    
C39   C51   S    
C67   C83   S    
C8    C24   S    
Cr4   O44   S    
C47   O35   A    
C76   O52   A    
C3    O27   A    
C14   C18   S    
C93   H41   S    
C35   C36   S    
C8    C96   S    
Cr6   O50   S    
C14   H62   S    
C11   H11   S    
Cr11  O19   S    
C26   C100  S    
C9    C25   S    
Cr10  O18   S    
C31   H67   S    
C76   O48   A    
C15   C19   S    
C100  O60   S    
C40   H28   S    
C11   C19   S    
C79   O11   A    
C48   O32   A    
C12   C28   S    
Cr7   O7    S    
Cr8   O28   S    
C13   C29   S    
C16   C20   S    
C6    C22   S    
O58   H71   S    
Cr7   O31   S    
C73   O45   A    
C36   H24   S    
C16   H60   S    
C7    C23   S    
C4    O28   A    
Cr11  O35   S    
Cr4   O48   S    
Cr7   O51   S    
O60   H72   S    
C96   H44   S    
Cr3   O19   S    
C11   H53   S    
Cr9   O33   S    
C49   C78   S    
Cr2   O18   S    
C3    C18   S    
Cr5   O49   S    
C100  O59   D    
C95   H3    S    
Cr1   O17   S    
C37   C42   S    
C9    H55   S    
C51   C80   S    
C21   C25   S    
C84   O44   A    
C59   C67   T    
C43   C51   S    
C12   H12   S    
C55   C74   S    
C43   H35   S    
C27   C97   S    
C40   C43   S    
C48   O36   A    
Cr1   O45   S    
C6    C94   S    
C55   C63   T    
C39   H40   S    
C42   H34   S    
C77   O5    A    
O56   H70   S    
C56   C64   T    
C78   O10   A    
Cr8   O32   S    
C23   C27   S    
C37   H38   S    
Cr2   O2    S    
C52   C79   S    
C93   H1    S    
C98   O55   D    
C75   O47   A    
C36   C52   S    
C34   H18   S    
C28   C98   S    
C46   C85   S    
C69   O1    A    
C44   C52   S    
C7    H47   S    
C13   H61   S    
C20   C96   S    
C1    O25   A    
Cr3   O23   S    
C99   O57   D    
C82   O14   A    
C42   H29   S    
C15   H59   S    
Cr12  O20   S    
C36   H20   S    
Cr7   O19   S    
C14   C30   S    
C77   O9    A    
Cr6   O18   S    
C31   H7    S    
C22   C70   S    
Cr12  O36   S    
Cr5   O17   S    
C11   C27   S    
Cr8   O52   S    
Cr4   O20   S    
C80   O12   A    
Cr10  O38   S    
C7    H51   S    
Cr3   O47   S    
C34   C50   S    
Cr9   O37   S    
Cr2   O22   S    
C15   H63   S    
C68   C84   S    
Cr1   O21   S    
C69   O37   A    
Cr10  O10   S    
C38   C41   S    
C29   H65   S    
C91   C92   S    
C33   H21   S    
C27   H15   S    
C70   O2    A    
C39   H27   S    
C54   C62   T    
C46   O34   A    
C12   H54   S    
C94   H2    S    
C45   O33   A    
C21   C69   S    
C78   O6    A    
Cr6   O6    S    
Cr9   O17   S    
C24   C32   S    
C38   H37   S    
Cr3   O3    S    
C97   O53   D    
C10   H10   S    
C23   C71   S    
C66   C82   S    
C32   H68   S    
C16   H64   S    
Cr1   O1    S    
C82   O42   A    
C88   C91   T    
C25   C99   S    
C44   H36   S    
C81   O41   A    
C12   C20   S    
C33   H17   S    
C33   C34   S    
Cr8   O20   S    
C48   C87   S    
C5    C21   S    
C43   H32   S    
Cr12  O40   S    
C13   H57   S    
C32   H8    S    
C3    O23   A    
C15   C31   S    
Cr6   O30   S    
C81   O13   A    
C37   C49   S    
C6    H46   S    
C22   C26   S    
Cr5   O29   S    
C42   C50   S    
C45   O29   A    
C4    C17   S    
Cr4   O24   S    
C9    C17   S    
C72   O40   A    
Cr3   O43   S    
C44   H31   S    
C5    H49   S    
C25   H13   S    
Cr2   O42   S    
C35   C51   S    
C18   C94   S    
C37   H25   S    
C53   C76   S    
C17   C93   S    
Cr10  O14   S    
Cr11  O15   S    
C8    H52   S    
C50   C77   S    
C35   H23   S    
C35   H19   S    
C19   C95   S    
C24   C72   S    
C58   C66   T    
C30   H6    S    
C83   O15   A    
C46   O30   A    
C29   H5    S    
C1    C20   S    
C10   H56   S    
C56   C73   S    
C22   C30   S    
C40   H39   S    
Cr8   O8    S    
C2    C19   S    
C2    O22   A    
C53   C61   T    
Cr12  O12   S    
C1    O21   A    
C24   C28   S    
C80   O8    A    
C57   C65   T    
C86   C89   T    
C6    H50   S    
C5    C93   S    
C85   C90   T    
C28   H16   S    
C57   C61   S    
C39   C44   S    
C38   C50   S    
C47   O31   A    
C16   C32   S    
C41   C49   S    
C7    C95   S    
C41   H33   S    
C74   O46   A    
C59   C63   S    
C13   C17   S    
C60   C64   S    
C60   C68   T    
C47   C88   S    
C99   O58   S    
C45   C86   S    
Cr6   O26   S    
Cr10  O34   S    
C97   O54   S    
C40   C52   S    
C73   O49   A    
C10   C26   S    
C21   C29   S    
C30   H66   S    
C10   C18   S    
C71   O39   A    
Cr2   O46   S    
C75   O51   A    
C2    O26   A    
C96   H4    S    
Cr9   O13   S    
C79   O7    A    
C84   O16   A    
C70   O38   A    
Cr1   O41   S    
C38   H26   S    
C8    H48   S    
Cr5   O5    S    
Cr7   O27   S    
Cr9   O9    S    
C71   O3    A    
C54   C75   S    
C5    H45   S    
C94   H42   S    
C4    O24   A    
C95   H43   S    
C34   H22   S    
C74   O50   A    
C14   H58   S    
C83   O43   A    
C98   O56   S    
O54   H69   S    
C72   O4    A    
C65   C81   S    
Cr12  O16   S    
Cr11  O11   S    
Cr5   O25   S    
C26   H14   S    
C41   H30   S    
C89   C90   S    
C87   C92   T    
C33   C49   S    
Cr11  O39   S    
C9    H9    S    
C23   C31   S    
Cr4   O4    S    
