data_mof_unit_58207.cif
_audit_creation_date              2012-12-11T16:13:05-0500
_audit_creation_method            fapswitch 2.2
_symmetry_space_group_name_H-M    P1
_symmetry_Int_Tables_number       1
_space_group_crystal_system       triclinic
_cell_length_a                    23.462511
_cell_length_b                    13.584658
_cell_length_c                    28.446298
_cell_angle_alpha                 89.999989
_cell_angle_beta                  90.509978
_cell_angle_gamma                 90.0
_cell_volume                      9066.3347543

loop_
_atom_site_label
_atom_site_type_symbol
_atom_type_description
_atom_site_fract_x
_atom_site_fract_y
_atom_site_fract_z
_atom_type_partial_charge
C1    C     C_R   0.284743 0.005347 0.816093 0.542985
C2    C     C_3   0.479595 0.734552 0.974758 -0.235693
C3    C     C_R   0.213668 0.010089 0.523900 0.289365
C4    C     C_R   0.286508 0.519073 0.525553 -0.105288
C5    C     C_R   0.713490 0.519079 0.474449 -0.105281
C6    C     C_R   0.786510 0.019079 0.525551 -0.105281
C7    C     C_R   0.213492 0.019072 0.474447 -0.105288
C8    C     C_R   0.259170 0.598708 0.546775 -0.004734
C9    C     C_R   0.740826 0.598718 0.453228 -0.004791
C10   C     C_R   0.759174 0.098718 0.546772 -0.004791
C11   C     C_R   0.240830 0.098708 0.453225 -0.004734
C12   C     C_R   0.256021 0.580283 0.449328 0.051813
C13   C     C_3   0.020404 0.234552 0.025242 -0.235693
C14   C     C_R   0.743975 0.580290 0.550674 0.051764
C15   C     C_R   0.756025 0.080290 0.449326 0.051764
C16   C     C_R   0.243979 0.080283 0.550672 0.051813
C17   C     C_1   0.245745 0.563973 0.400366 -0.012158
C18   C     C_1   0.754252 0.563979 0.599636 -0.012233
C19   C     C_1   0.745748 0.063979 0.400364 -0.012233
C20   C     C_1   0.254255 0.063973 0.599634 -0.012158
C21   C     C_1   0.262237 0.612593 0.596447 -0.047899
C22   C     C_1   0.737760 0.612601 0.403556 -0.047959
C23   C     C_1   0.762240 0.112601 0.596444 -0.047959
C24   C     C_3   0.009933 0.233240 0.971439 -0.230184
C25   C     C_1   0.237763 0.112593 0.403553 -0.047899
C26   C     C_1   0.233622 0.543176 0.360602 -0.000580
C27   C     C_1   0.766376 0.543180 0.639400 -0.000556
C28   C     C_1   0.733624 0.043180 0.360600 -0.000556
C29   C     C_1   0.266377 0.043176 0.639398 -0.000580
C30   C     C_R   0.284353 0.007199 0.684021 0.541471
C31   C     C_R   0.715647 0.007201 0.315978 0.540715
C32   C     C_R   0.784353 0.507200 0.684021 0.540715
C33   C     C_R   0.215647 0.507199 0.315979 0.541471
C34   C     C_R   0.445801 0.825280 0.684420 0.543976
C35   C     C_1   0.514245 0.835816 0.097461 -0.000613
C36   C     C_R   0.554199 0.825280 0.315580 0.544292
C37   C     C_R   0.945801 0.325280 0.684420 0.544292
C38   C     C_R   0.054198 0.325280 0.315580 0.543977
C39   C     C_R   0.274289 0.674213 0.682876 0.546492
C40   C     C_R   0.725710 0.674216 0.317125 0.545443
C41   C     C_R   0.774289 0.174216 0.682875 0.545442
C42   C     C_R   0.225711 0.174213 0.317124 0.546493
C43   C     C_3   0.446632 0.908757 0.977019 -0.253654
C44   C     C_3   0.561060 0.870597 0.022525 -0.251511
C45   C     C_3   0.938940 0.370597 0.977475 -0.251511
C46   C     C_1   0.482643 0.836685 0.903316 -0.011785
C47   C     C_3   0.053367 0.408757 0.022981 -0.253653
C48   C     C_3   0.551666 0.877885 0.968309 0.179361
C49   C     C_3   0.456200 0.911466 0.031996 0.187511
C50   C     C_3   0.043799 0.411466 0.968003 0.187514
C51   C     C_3   0.948334 0.377885 0.031691 0.179360
C52   C     C_1   0.528427 0.831597 0.138016 0.012474
C53   C     C_1   0.469892 0.831942 0.862506 0.002108
C54   C     C_1   0.030108 0.331942 0.137494 0.002108
C55   C     C_1   0.971573 0.331597 0.861984 0.012474
C56   C     C_3   0.563068 0.053866 0.451933 0.007374
C57   C     C_1   0.017357 0.336685 0.096684 -0.011786
C58   C     C_3   0.566190 0.149893 0.424614 -0.363290
C59   C     C_3   0.436940 0.053871 0.548068 0.007490
C60   C     C_3   0.433821 0.149904 0.575382 -0.363640
C61   C     C_3   0.063061 0.553869 0.451931 0.007489
C62   C     C_3   0.066181 0.649898 0.424614 -0.363641
C63   C     C_3   0.936932 0.553867 0.548066 0.007374
C64   C     C_3   0.933812 0.649898 0.575382 -0.363291
C65   C     C_3   0.365478 0.407834 0.471609 -0.028542
C66   C     C_3   0.399270 0.351587 0.434935 -0.360050
C67   C     C_3   0.634523 0.407836 0.528394 -0.028419
C68   C     C_1   0.985755 0.335816 0.902539 -0.000614
C69   C     C_3   0.600733 0.351581 0.565068 -0.360407
C70   C     C_3   0.865477 0.907835 0.471606 -0.028419
C71   C     C_3   0.899267 0.851581 0.434932 -0.360407
C72   C     C_3   0.134522 0.907835 0.528391 -0.028542
C73   C     C_3   0.100730 0.851587 0.565065 -0.360050
C74   C     C_3   0.617021 0.747654 0.949043 0.006972
C75   C     C_3   0.615726 0.688249 0.903666 -0.355330
C76   C     C_3   0.360179 0.852994 0.042987 0.015967
C77   C     C_3   0.320663 0.824103 0.082739 -0.349626
C78   C     C_3   0.139821 0.352994 0.957013 0.015966
C79   C     C_1   0.265889 0.632532 0.860568 0.037408
C80   C     C_3   0.179336 0.324102 0.917261 -0.349628
C81   C     C_3   0.882979 0.247653 0.050957 0.006972
C82   C     C_3   0.884274 0.188249 0.096334 -0.355330
C83   C     C_1   0.733964 0.632977 0.139372 0.043014
C84   C     C_1   0.766036 0.132977 0.860628 0.043014
C85   C     C_R   0.715254 0.005306 0.183878 0.544138
C86   C     C_1   0.234111 0.132532 0.139432 0.037404
C87   C     C_R   0.299883 0.555461 0.976339 -0.174813
C88   C     C_R   0.707042 0.535521 0.025261 -0.156644
C89   C     C_R   0.792958 0.035522 0.974739 -0.156644
C90   C     C_R   0.200117 0.055462 0.023660 -0.174812
C91   C     C_R   0.296374 0.546066 0.025096 -0.135163
C92   C     C_R   0.709875 0.525429 0.976532 -0.134948
C93   C     C_R   0.790125 0.025429 0.023468 -0.134948
C94   C     C_R   0.203626 0.046066 0.974904 -0.135159
C95   C     C_R   0.199116 0.606111 0.022158 -0.121400
C96   C     C_R   0.784746 0.505306 0.816122 0.544138
C97   C     C_R   0.790380 0.637061 0.974897 -0.096376
C98   C     C_R   0.709620 0.137061 0.025103 -0.096376
C99   C     C_R   0.300884 0.106113 0.977842 -0.121399
C100  C     C_R   0.202153 0.615919 0.973245 0.228166
C101  C     C_R   0.787736 0.648304 0.023772 0.229476
C102  C     C_R   0.712264 0.148304 0.976227 0.229476
C103  C     C_R   0.297846 0.115922 0.026755 0.228141
C104  C     C_R   0.253053 0.590135 0.950253 0.010857
C105  C     C_R   0.746020 0.596035 0.049103 0.012586
C106  C     C_R   0.753980 0.096035 0.950897 0.012585
C107  C     C_R   0.215256 0.505347 0.183907 0.542985
C108  C     C_R   0.246947 0.090136 0.049746 0.010851
C109  C     C_R   0.246085 0.571884 0.048001 -0.022003
C110  C     C_R   0.751566 0.576069 0.951335 -0.032599
C111  C     C_R   0.748434 0.076069 0.048665 -0.032599
C112  C     C_R   0.253914 0.071885 0.951998 -0.021996
C113  C     C_R   0.446099 0.824210 0.816557 0.543652
C114  C     C_R   0.553705 0.824161 0.183529 0.544534
C115  C     C_R   0.946295 0.324161 0.816471 0.544533
C116  C     C_R   0.053900 0.324210 0.183443 0.543652
C117  C     C_1   0.240340 0.556134 0.097559 -0.050230
C118  C     C_3   0.491187 0.838670 0.954270 0.026975
C119  C     C_1   0.758463 0.558369 0.901998 -0.048807
C120  C     C_1   0.741537 0.058369 0.098002 -0.048807
C121  C     C_1   0.259660 0.056134 0.902440 -0.050226
C122  C     C_1   0.259844 0.608561 0.900888 0.006116
C123  C     C_1   0.739754 0.610816 0.098793 0.007998
C124  C     C_1   0.760246 0.110816 0.901207 0.007998
C125  C     C_1   0.240156 0.108562 0.099112 0.006106
C126  C     C_1   0.231419 0.537372 0.138121 0.003481
C127  C     C_1   0.768107 0.538333 0.861671 0.010215
C128  C     C_1   0.731893 0.038333 0.138329 0.010215
C129  C     C_3   0.504586 0.837949 0.046542 0.022297
C130  C     C_1   0.268581 0.037372 0.861879 0.003483
C131  C     C_1   0.470314 0.833794 0.638921 -0.002411
C132  C     C_1   0.529687 0.833794 0.361080 -0.001826
C133  C     C_1   0.970312 0.333795 0.638920 -0.001827
C134  C     C_1   0.029685 0.333794 0.361079 -0.002411
C135  C     C_R   0.497552 0.752502 0.524361 -0.175070
C136  C     C_R   0.502449 0.752502 0.475639 -0.175055
C137  C     C_R   0.997549 0.252502 0.524360 -0.175055
C138  C     C_R   0.002447 0.252502 0.475638 -0.175070
C139  C     C_R   0.503792 0.931574 0.475437 0.279908
C140  C     C_3   0.995414 0.337949 0.953458 0.022296
C141  C     C_R   0.496213 0.931574 0.524565 0.279848
C142  C     C_R   0.003787 0.431574 0.475435 0.279848
C143  C     C_R   0.996208 0.431574 0.524563 0.279908
C144  C     C_R   0.494868 0.841474 0.548942 0.005034
C145  C     C_R   0.505135 0.841474 0.451059 0.005030
C146  C     C_R   0.994865 0.341474 0.548941 0.005030
C147  C     C_R   0.005131 0.341474 0.451058 0.005034
C148  C     C_1   0.515685 0.838726 0.401509 -0.015035
C149  C     C_1   0.484317 0.838726 0.598492 -0.015266
C150  C     C_1   0.015682 0.338726 0.401508 -0.015266
C151  C     C_3   0.008813 0.338670 0.045730 0.026975
C152  C     C_1   0.984314 0.338726 0.598490 -0.015036
C153  C     C_1   0.266295 0.634343 0.637136 0.000268
C154  C     C_1   0.733703 0.634349 0.362865 0.000331
C155  C     C_1   0.766297 0.134349 0.637134 0.000330
C156  C     C_1   0.233705 0.134343 0.362863 0.000268
C157  C     C_R   0.232090 0.670404 0.519438 -0.126689
C158  C     C_R   0.767903 0.670416 0.480565 -0.126767
C159  C     C_R   0.732097 0.170416 0.519435 -0.126767
C160  C     C_R   0.267910 0.170404 0.480562 -0.126690
C161  C     C_R   0.274555 0.673911 0.815063 0.547432
C162  C     C_3   0.490066 0.733241 0.028561 -0.230184
C163  C     C_R   0.725506 0.673660 0.185031 0.548730
C164  C     C_R   0.774494 0.173660 0.814969 0.548731
C165  C     C_R   0.225444 0.173911 0.184937 0.547431
C166  C     C_R   0.230115 0.660910 0.470853 -0.171035
C167  C     C_R   0.769878 0.660922 0.529150 -0.171050
C168  C     C_R   0.730122 0.160922 0.470850 -0.171050
C169  C     C_R   0.269885 0.160910 0.529147 -0.171035
C170  C     C_R   0.286332 0.510089 0.476099 0.289365
C171  C     C_R   0.713667 0.510095 0.523902 0.289304
C172  C     C_R   0.786334 0.010095 0.476098 0.289304
Cr1   Cr    Cr6+3 0.250680 0.837130 0.748990 1.070267
Cr2   Cr    Cr6+3 0.623910 0.707720 0.250330 1.034405
Cr3   Cr    Cr6+3 0.876090 0.207720 0.749670 1.034404
Cr4   Cr    Cr6+3 0.123910 0.207720 0.250330 1.031821
Cr5   Cr    Cr6+3 0.749320 0.837130 0.251010 1.072109
Cr6   Cr    Cr6+3 0.750680 0.337130 0.748990 1.072109
Cr7   Cr    Cr6+3 0.249320 0.337130 0.251010 1.070266
Cr8   Cr    Cr6+3 0.378160 0.960100 0.750430 1.042773
Cr9   Cr    Cr6+3 0.621840 0.960100 0.249570 1.047475
Cr10  Cr    Cr6+3 0.878160 0.460100 0.750430 1.047475
Cr11  Cr    Cr6+3 0.121840 0.460100 0.249570 1.042772
Cr12  Cr    Cr6+3 0.376090 0.707720 0.749670 1.031821
H1    H     H_    0.473487 0.986217 0.039513 0.186076
H2    H     H_    0.787786 0.733366 0.464202 0.167407
H3    H     H_    0.306888 0.890757 0.102207 0.183968
H4    H     H_    0.282370 0.786494 0.068167 0.104628
H5    H     H_    0.342992 0.773297 0.107332 0.158837
H6    H     H_    0.127699 0.284748 0.975790 0.115143
H7    H     H_    0.164079 0.402691 0.980920 0.146951
H8    H     H_    0.193111 0.390757 0.897792 0.183968
H9    H     H_    0.217630 0.286494 0.931832 0.104626
H10   H     H_    0.157007 0.273297 0.892668 0.158837
H11   H     H_    0.906559 0.207118 0.023681 0.114707
H12   H     H_    0.838089 0.252493 0.038430 0.154898
H13   H     H_    0.712214 0.233366 0.535798 0.167408
H14   H     H_    0.855632 0.222335 0.122605 0.168311
H15   H     H_    0.869910 0.111798 0.089462 0.117678
H16   H     H_    0.928244 0.185782 0.110979 0.159820
H17   H     H_    0.287796 0.233352 0.464199 0.167413
H18   H     H_    0.207476 0.715479 0.450131 0.108500
H19   H     H_    0.792515 0.715491 0.549872 0.108561
H20   H     H_    0.707485 0.215492 0.450128 0.108561
H21   H     H_    0.292524 0.215478 0.549868 0.108501
H22   H     H_    0.307230 0.464466 0.547518 0.093708
H23   H     H_    0.692770 0.464470 0.452484 0.093803
H24   H     H_    0.807230 0.964470 0.547516 0.093802
H25   H     H_    0.550357 0.958379 0.960881 0.170040
H26   H     H_    0.192770 0.964466 0.452482 0.093708
H27   H     H_    0.451676 0.984580 0.962760 0.123398
H28   H     H_    0.574379 0.943952 0.036271 0.109846
H29   H     H_    0.925621 0.443952 0.963729 0.109845
H30   H     H_    0.048323 0.484580 0.037239 0.123400
H31   H     H_    0.596291 0.819778 0.032258 0.123787
H32   H     H_    0.403444 0.885936 0.965482 0.110829
H33   H     H_    0.096556 0.385936 0.034518 0.110828
H34   H     H_    0.903709 0.319777 0.967742 0.123787
H35   H     H_    0.434554 0.713375 0.967433 0.110965
H36   H     H_    0.949643 0.458379 0.039119 0.170040
H37   H     H_    0.525726 0.682001 0.036964 0.116710
H38   H     H_    0.974274 0.182001 0.963036 0.116709
H39   H     H_    0.065446 0.213375 0.032567 0.110964
H40   H     H_    0.505312 0.677130 0.957175 0.130918
H41   H     H_    0.452122 0.703601 0.046867 0.140599
H42   H     H_    0.047878 0.203600 0.953133 0.140597
H43   H     H_    0.994688 0.177130 0.042825 0.130917
H44   H     H_    0.339416 0.536977 0.959017 0.125542
H45   H     H_    0.674232 0.496577 0.044331 0.146240
H46   H     H_    0.825768 0.996577 0.955669 0.146239
H47   H     H_    0.026513 0.486217 0.960487 0.186079
H48   H     H_    0.160584 0.036977 0.040983 0.125538
H49   H     H_    0.332691 0.518490 0.044855 0.141874
H50   H     H_    0.679780 0.477798 0.958593 0.190737
H51   H     H_    0.820220 0.977798 0.041407 0.190737
H52   H     H_    0.167309 0.018491 0.955144 0.141861
H53   H     H_    0.160166 0.624928 0.040256 0.154367
H54   H     H_    0.823029 0.674826 0.955134 0.161922
H55   H     H_    0.676971 0.174826 0.044866 0.161922
H56   H     H_    0.339833 0.124930 0.959743 0.154369
H57   H     H_    0.172136 0.814109 0.949514 0.326470
H58   H     H_    0.495158 0.682909 0.542875 0.126316
H59   H     H_    0.768140 0.825864 0.070512 0.315818
H60   H     H_    0.731860 0.325864 0.929488 0.315818
H61   H     H_    0.327833 0.314097 0.050494 0.326451
H62   H     H_    0.592253 0.999834 0.435101 0.132166
H63   H     H_    0.577865 0.068282 0.488618 0.166236
H64   H     H_    0.538611 0.206203 0.441281 0.148300
H65   H     H_    0.610725 0.177232 0.424373 0.089079
H66   H     H_    0.551761 0.137965 0.387759 0.174589
H67   H     H_    0.407754 0.999845 0.564903 0.132250
H68   H     H_    0.422142 0.068280 0.511383 0.166317
H69   H     H_    0.504842 0.682909 0.457126 0.126410
H70   H     H_    0.461401 0.206209 0.558711 0.148243
H71   H     H_    0.389288 0.177247 0.575623 0.089051
H72   H     H_    0.448252 0.137984 0.612238 0.174042
H73   H     H_    0.092247 0.499840 0.435099 0.132248
H74   H     H_    0.077858 0.568283 0.488616 0.166319
H75   H     H_    0.038601 0.706206 0.441283 0.148243
H76   H     H_    0.110715 0.677240 0.424373 0.089052
H77   H     H_    0.051751 0.637972 0.387759 0.174044
H78   H     H_    0.907748 0.499839 0.564901 0.132168
H79   H     H_    0.922135 0.568278 0.511382 0.166234
H80   H     H_    0.995157 0.182909 0.542874 0.126410
H81   H     H_    0.961391 0.706205 0.558712 0.148301
H82   H     H_    0.889278 0.677238 0.575623 0.089078
H83   H     H_    0.948242 0.637975 0.612238 0.174588
H84   H     H_    0.361315 0.359973 0.503098 0.118495
H85   H     H_    0.390157 0.475382 0.480979 0.125876
H86   H     H_    0.404781 0.397761 0.403077 0.167163
H87   H     H_    0.441951 0.332270 0.449406 0.091421
H88   H     H_    0.376676 0.282748 0.424999 0.165142
H89   H     H_    0.638684 0.359979 0.496903 0.118562
H90   H     H_    0.609841 0.475383 0.519026 0.125871
H91   H     H_    0.004840 0.182909 0.457125 0.126316
H92   H     H_    0.595224 0.397751 0.596928 0.166746
H93   H     H_    0.558052 0.332265 0.550599 0.091381
H94   H     H_    0.623330 0.282743 0.575000 0.164968
H95   H     H_    0.861315 0.859978 0.503097 0.118562
H96   H     H_    0.890159 0.975382 0.480974 0.125871
H97   H     H_    0.904776 0.897751 0.403073 0.166746
H98   H     H_    0.941948 0.832264 0.449402 0.091382
H99   H     H_    0.876670 0.782743 0.424999 0.164969
H100  H     H_    0.138684 0.859974 0.496902 0.118495
H101  H     H_    0.109842 0.975383 0.519021 0.125876
H102  H     H_    0.212204 0.733352 0.535801 0.167413
H103  H     H_    0.095219 0.897761 0.596923 0.167163
H104  H     H_    0.058049 0.832271 0.550595 0.091421
H105  H     H_    0.123324 0.782748 0.575001 0.165142
H106  H     H_    0.593441 0.707118 0.976319 0.114707
H107  H     H_    0.661911 0.752494 0.961570 0.154898
H108  H     H_    0.644368 0.722336 0.877395 0.168310
H109  H     H_    0.630090 0.611799 0.910538 0.117679
H110  H     H_    0.571756 0.685782 0.889021 0.159820
H111  H     H_    0.372301 0.784748 0.024209 0.115144
H112  H     H_    0.335920 0.902692 0.019080 0.146955
O1    O     O_R   0.237900 0.735050 0.799950 -0.468303
O2    O     O_R   0.566580 0.739640 0.301090 -0.507544
O3    O     O_R   0.933420 0.239640 0.698910 -0.507545
O4    O     O_R   0.066580 0.239640 0.301090 -0.507823
O5    O     O_R   0.323550 0.666510 0.701520 -0.498287
O6    O     O_R   0.676450 0.666510 0.298480 -0.498235
O7    O     O_R   0.823550 0.166510 0.701520 -0.498235
O8    O     O_R   0.176450 0.166510 0.298480 -0.498287
O9    O     O_3   0.334980 0.834990 0.749700 -0.260087
O10   O     O_3   0.665020 0.834990 0.250300 -0.261669
O11   O     O_3   0.834980 0.334990 0.749700 -0.261669
O12   O     O_R   0.762100 0.735050 0.200050 -0.462621
O13   O     O_3   0.165020 0.334990 0.250300 -0.260087
O14   O     O_R   0.256160 0.936210 0.796950 -0.486314
O15   O     O_R   0.743840 0.936210 0.203050 -0.481503
O16   O     O_R   0.756160 0.436210 0.796950 -0.481503
O17   O     O_R   0.243840 0.436210 0.203050 -0.486315
O18   O     O_R   0.333710 0.029860 0.801630 -0.506169
O19   O     O_R   0.666290 0.029860 0.198370 -0.505009
O20   O     O_R   0.833710 0.529860 0.801630 -0.505009
O21   O     O_R   0.166290 0.529860 0.198370 -0.506169
O22   O     O_R   0.425340 0.901920 0.798280 -0.488846
O23   O     O_R   0.737900 0.235050 0.799950 -0.462620
O24   O     O_R   0.574660 0.901920 0.201720 -0.487009
O25   O     O_R   0.925340 0.401920 0.798280 -0.487009
O26   O     O_R   0.074660 0.401920 0.201720 -0.488846
O27   O     O_R   0.433530 0.738890 0.801610 -0.509783
O28   O     O_R   0.566470 0.738890 0.198390 -0.508371
O29   O     O_R   0.933530 0.238890 0.801610 -0.508372
O30   O     O_R   0.066470 0.238890 0.198390 -0.509783
O31   O     O_R   0.323650 0.665810 0.796720 -0.508993
O32   O     O_R   0.676350 0.665810 0.203280 -0.509351
O33   O     O_R   0.823650 0.165810 0.796720 -0.509351
O34   O     O_R   0.262100 0.235050 0.200050 -0.468305
O35   O     O_R   0.176350 0.165810 0.203280 -0.508993
O36   O     O_R   0.237790 0.735800 0.697250 -0.499316
O37   O     O_R   0.762210 0.735800 0.302750 -0.501012
O38   O     O_R   0.737790 0.235800 0.697250 -0.501012
O39   O     O_R   0.262210 0.235800 0.302750 -0.499316
O40   O     O_R   0.256050 0.936910 0.701750 -0.487514
O41   O     O_R   0.743950 0.936910 0.298250 -0.488503
O42   O     O_R   0.756050 0.436910 0.701750 -0.488503
O43   O     O_R   0.243950 0.436910 0.298250 -0.487514
O44   O     O_R   0.333600 0.030610 0.698930 -0.514866
O45   O     O_R   0.425240 0.902610 0.703070 -0.491430
O46   O     O_R   0.666400 0.030610 0.301070 -0.514618
O47   O     O_R   0.833600 0.530610 0.698930 -0.514618
O48   O     O_R   0.166400 0.530610 0.301070 -0.514866
O49   O     O_2   0.129086 0.598358 0.900880 -0.210682
O50   O     O_2   0.091524 0.671492 0.972944 -0.290382
O51   O     O_3   0.159434 0.776556 0.921466 -0.491968
O52   O     O_2   0.877325 0.665834 0.081349 -0.222310
O53   O     O_2   0.870496 0.785839 0.017289 -0.294202
O54   O     O_3   0.802539 0.805141 0.088366 -0.504029
O55   O     O_2   0.622675 0.165833 0.918651 -0.222310
O56   O     O_R   0.574760 0.902610 0.296930 -0.491167
O57   O     O_2   0.629504 0.285838 0.982711 -0.294200
O58   O     O_3   0.697461 0.305141 0.911633 -0.504029
O59   O     O_2   0.370916 0.098359 0.099118 -0.210682
O60   O     O_2   0.408474 0.171505 0.027054 -0.290359
O61   O     O_3   0.340563 0.276556 0.078537 -0.491952
O62   O     O_3   0.506288 0.019489 0.451043 -0.557265
O63   O     O_3   0.493719 0.019489 0.548958 -0.557453
O64   O     O_3   0.006281 0.519488 0.451042 -0.557452
O65   O     O_3   0.993712 0.519489 0.548956 -0.557265
O66   O     O_3   0.310871 0.430439 0.453053 -0.563973
O67   O     O_R   0.925240 0.402610 0.703070 -0.491166
O68   O     O_3   0.689130 0.430441 0.546949 -0.564023
O69   O     O_3   0.810870 0.930441 0.453051 -0.564022
O70   O     O_3   0.189129 0.930439 0.546947 -0.563974
O71   O     O_3   0.597284 0.844168 0.939678 -0.538913
O72   O     O_3   0.407738 0.903459 0.061943 -0.506428
O73   O     O_3   0.092261 0.403460 0.938057 -0.506426
O74   O     O_3   0.902715 0.344168 0.060322 -0.538913
O75   O     O_R   0.074760 0.402610 0.296930 -0.491430
O76   O     O_R   0.433420 0.739640 0.698910 -0.507823
S1    S     S_3+6 0.142878 0.664092 0.941911 0.021547
S2    S     S_3+6 0.837016 0.727404 0.052418 0.009529
S3    S     S_3+6 0.662984 0.227404 0.947582 0.009530
S4    S     S_3+6 0.357121 0.164096 0.058088 0.021552

loop_
_geom_bond_atom_site_label_1
_geom_bond_atom_site_label_2
_ccdc_geom_bond_type
C99   C103  A    
C87   C91   A    
C5    C171  A    
Cr12  O27   S    
C7    H26   S    
C41   O7    A    
O58   S3    S    
C24   C140  S    
C47   H33   S    
C82   H14   S    
Cr1   O40   S    
C23   C155  T    
C64   H81   S    
C169  H21   S    
C50   C140  S    
C164  O33   A    
C100  C104  A    
C70   H96   S    
C105  C123  S    
C166  H18   S    
O59   S4    D    
Cr1   O1    S    
C89   C106  A    
Cr3   O3    S    
Cr2   O6    S    
C72   H100  S    
C77   H5    S    
C32   O42   A    
C117  C126  T    
C50   O73   S    
C107  O21   A    
C56   O62   S    
C59   C60   S    
C113  O22   A    
C80   H8    S    
C86   C165  S    
C61   H74   S    
C79   C161  S    
C8    C157  A    
C53   C113  S    
C158  C167  A    
C72   H101  S    
C137  C146  A    
C147  C150  S    
C13   C151  S    
C95   C109  A    
C141  C144  A    
C160  H17   S    
C98   H55   S    
C98   C102  A    
C96   C127  S    
C42   C156  S    
C6    C10   A    
C66   H86   S    
C5    H23   S    
H59   O54   S    
C16   C20   S    
C60   H70   S    
C99   H56   S    
C37   O67   A    
C131  C149  T    
C34   O76   A    
C145  C148  S    
C71   H98   S    
C78   H7    S    
C72   C73   S    
C64   H83   S    
C13   H43   S    
C48   C118  S    
Cr2   O28   S    
C157  H102  S    
Cr12  O31   S    
Cr12  O76   S    
C170  O66   S    
C56   H62   S    
C9    C158  A    
C46   C53   T    
C15   C172  A    
C38   C134  S    
C74   H107  S    
C43   H27   S    
C43   C118  S    
C137  H80   S    
Cr7   O43   S    
C87   H44   S    
C106  C124  S    
C74   O71   S    
C21   C153  T    
C44   H28   S    
C65   H84   S    
C44   C48   S    
Cr4   O30   S    
C37   O3    A    
C1    O14   A    
C38   O4    A    
C70   O69   S    
C36   O56   A    
C121  C130  T    
C76   O72   S    
C2    C162  S    
C115  O25   A    
Cr8   O22   S    
C4    C170  A    
C49   O72   S    
Cr11  O21   S    
C75   H110  S    
C171  O68   S    
C36   C132  S    
C78   C80   S    
C104  C122  S    
C11   C25   S    
C47   H30   S    
C60   H72   S    
C82   H15   S    
C95   H53   S    
C16   C169  A    
C165  O34   A    
O60   S4    D    
C6    H24   S    
C1    O18   A    
Cr9   O10   S    
C25   C156  T    
C45   H34   S    
C90   H48   S    
Cr1   O36   S    
C43   H32   S    
C62   H77   S    
C8    C21   S    
C47   C50   S    
C165  O35   A    
O50   S1    D    
C136  H69   S    
C76   H111  S    
Cr3   O29   S    
Cr3   O7    S    
Cr2   O2    S    
C54   C116  S    
Cr4   O8    S    
C5    C9    A    
C29   C30   S    
C19   C28   T    
C81   H11   S    
C107  O17   A    
C26   C33   S    
C36   O2    A    
C162  H37   S    
C172  O69   S    
C2    H40   S    
Cr9   O56   S    
Cr6   O23   S    
C33   O48   A    
C34   C131  S    
C59   H67   S    
Cr4   O13   S    
O53   S2    D    
C63   H78   S    
C116  O30   A    
Cr5   O15   S    
C142  C147  A    
Cr6   O16   S    
C14   C171  A    
Cr7   O13   S    
C110  C119  S    
C52   C114  S    
C91   H49   S    
Cr1   O9    S    
C138  H91   S    
C30   O40   A    
C67   H90   S    
C58   H64   S    
C90   C108  A    
C112  C121  S    
C31   O46   A    
C64   H82   S    
C88   C105  A    
C139  C141  A    
C73   H104  S    
C92   C110  A    
C69   H94   S    
C57   C151  S    
C94   C112  A    
C56   C58   S    
C163  O32   A    
C37   C133  S    
C89   C93   A    
C61   C62   S    
C15   C168  A    
C72   O70   S    
C63   C64   S    
C61   O64   S    
C49   H1    S    
C48   H25   S    
C77   H4    S    
C58   H65   S    
C73   H105  S    
C32   O47   A    
C62   H75   S    
C3    C16   A    
C41   C155  S    
C54   C57   T    
C119  C127  T    
C143  C146  A    
C38   O75   A    
C61   H73   S    
C55   C68   T    
C2    C118  S    
C109  C117  S    
C135  C136  A    
C39   O36   A    
C15   C19   S    
C80   H9    S    
C33   O43   A    
Cr11  O75   S    
C39   C153  S    
Cr5   O37   S    
C139  O62   S    
C3    C7    A    
Cr7   O39   S    
C78   O73   S    
C65   O66   S    
Cr10  O11   S    
C46   C118  S    
Cr5   O10   S    
C163  O12   A    
Cr2   O10   S    
C66   H87   S    
C12   C17   S    
C160  C169  A    
C70   C71   S    
C167  H19   S    
C89   H46   S    
C96   O20   A    
C31   O41   A    
Cr7   O34   S    
Cr12  O5    S    
C88   H45   S    
Cr9   O19   S    
C51   C151  S    
Cr10  O20   S    
C133  C152  T    
C13   H39   S    
C158  H2    S    
Cr8   O45   S    
C79   C122  T    
C11   C160  A    
C90   C94   A    
C30   O44   A    
Cr10  O47   S    
C56   H63   S    
C71   H97   S    
C48   O71   S    
C1    C130  S    
Cr5   O41   S    
C95   C100  A    
C75   H108  S    
C6    C172  A    
C100  S1    S    
O55   S3    D    
C44   C129  S    
C45   C140  S    
C102  S3    S    
O57   S3    D    
Cr9   O46   S    
C164  O23   A    
C40   O6    A    
C113  O27   A    
C93   C111  A    
C101  S2    S    
Cr6   O38   S    
O49   S1    D    
C2    H35   S    
C10   C23   S    
C114  O24   A    
C3    O70   S    
Cr3   O33   S    
C83   C163  S    
Cr3   O11   S    
C27   C32   S    
Cr4   O4    S    
C28   C31   S    
C63   H79   S    
C85   O19   A    
C120  C128  T    
C24   H38   S    
C63   O65   S    
Cr5   O12   S    
Cr6   O11   S    
C71   H99   S    
C42   O39   A    
C75   H109  S    
C55   C115  S    
H61   O61   S    
Cr1   O14   S    
Cr12  O9    S    
C51   O74   S    
C70   H95   S    
C87   C104  A    
C159  H13   S    
Cr6   O42   S    
C35   C52   T    
C161  O31   A    
C142  C143  A    
C83   C123  T    
C14   C167  A    
C10   C159  A    
H60   O58   S    
C34   O45   A    
C44   H31   S    
C115  O29   A    
C14   C18   S    
C78   H6    S    
C4    C8    A    
C116  O26   A    
C143  O65   S    
C81   C82   S    
C45   H29   S    
C85   O15   A    
C42   O8    A    
C93   H51   S    
C7    C11   A    
C97   H54   S    
Cr7   O17   S    
C17   C26   T    
C135  H58   S    
C76   H112  S    
C12   C166  A    
C9    C22   S    
C45   C51   S    
C134  C150  T    
C159  C168  A    
C74   H106  S    
O52   S2    D    
C88   C92   A    
O51   S1    S    
C103  C108  A    
C108  C125  S    
C65   H85   S    
C35   C129  S    
C136  C145  A    
C84   C164  S    
C59   O63   S    
Cr10  O25   S    
C86   C125  T    
C40   C154  S    
C114  O28   A    
Cr10  O67   S    
C24   H42   S    
C157  C166  A    
C20   C29   T    
C101  C105  A    
Cr9   O24   S    
C74   C75   S    
C132  C148  T    
C66   H88   S    
C76   C77   S    
Cr11  O48   S    
Cr8   O44   S    
C40   O37   A    
C43   C49   S    
C12   C170  A    
C49   C129  S    
C60   H71   S    
C13   C24   S    
C111  C120  S    
C67   C69   S    
C67   H89   S    
C82   H16   S    
C144  C149  S    
C141  O63   S    
C73   H103  S    
Cr2   O32   S    
C103  S4    S    
C138  C147  A    
C69   H93   S    
Cr11  O26   S    
C161  O1    A    
Cr11  O13   S    
C50   H47   S    
Cr4   O35   S    
C146  C152  S    
C135  C144  A    
C96   O16   A    
C77   H3    S    
C168  H20   S    
C67   O68   S    
C58   H66   S    
C62   H76   S    
C41   O38   A    
C162  H41   S    
C22   C154  T    
C69   H92   S    
Cr8   O9    S    
C139  C145  A    
C98   C111  A    
O61   S4    S    
C18   C27   T    
C107  C126  S    
C47   C151  S    
C85   C128  S    
C81   O74   S    
C4    H22   S    
C51   H36   S    
C84   C124  T    
C80   H10   S    
C137  C138  A    
C142  O64   S    
C39   O5    A    
C91   C109  A    
C81   H12   S    
C97   C110  A    
O54   S2    S    
C94   H52   S    
Cr8   O18   S    
C99   C112  A    
C92   H50   S    
C129  C162  S    
C102  C106  A    
C68   C140  S    
C65   C66   S    
C59   H68   S    
H57   O51   S    
C97   C101  A    
