data_mof_unit_63277.cif
_audit_creation_date              2012-10-26T17:39:29-0400
_audit_creation_method            fapswitch 2.2
_symmetry_space_group_name_H-M    P1
_symmetry_Int_Tables_number       1
_space_group_crystal_system       triclinic
_cell_length_a                    30.412729
_cell_length_b                    30.412726
_cell_length_c                    23.67209
_cell_angle_alpha                 90.000753
_cell_angle_beta                  90.000544
_cell_angle_gamma                 89.99997
_cell_volume                      21895.1207469

loop_
_atom_site_label
_atom_site_type_symbol
_atom_type_description
_atom_site_fract_x
_atom_site_fract_y
_atom_site_fract_z
_atom_type_partial_charge
C1    C     C_R   0.584881 0.000000 0.500000 0.491301
C2    C     C_R   0.007619 0.843187 0.550255 -0.118461
C3    C     C_R   0.520204 0.843654 0.955038 -0.000596
C4    C     C_R   0.843658 0.479888 0.045032 -0.000603
C5    C     C_R   0.520074 0.156341 0.045057 -0.000590
C6    C     C_R   0.156342 0.520114 0.045029 -0.000597
C7    C     C_R   0.479795 0.843655 0.044961 -0.000605
C8    C     C_R   0.633097 1.000000 0.500000 -0.040846
C9    C     C_R   0.000000 0.633098 0.500000 -0.040853
C10   C     C_R   0.366908 0.000000 0.499999 -0.040737
C11   C     C_R   1.000000 0.366901 0.500000 -0.040857
C12   C     C_R   0.133099 0.500000 0.999999 -0.040859
C13   C     C_R   0.156813 0.992228 0.550217 -0.118443
C14   C     C_R   0.500000 0.133098 0.999999 -0.040831
C15   C     C_R   0.866901 0.500000 0.000000 -0.040857
C16   C     C_R   0.500000 0.866900 0.000000 -0.040889
C17   C     C_R   0.725532 0.000000 0.499999 -0.026833
C18   C     C_R   0.000001 0.725534 0.499999 -0.026824
C19   C     C_R   0.274472 0.000006 0.499997 -0.026806
C20   C     C_R   0.000001 0.274466 0.500000 -0.026827
C21   C     C_R   0.225534 0.500005 0.999997 -0.026821
C22   C     C_R   0.500001 0.225532 0.999998 -0.026831
C23   C     C_R   0.774466 0.499999 0.000000 -0.026819
C24   C     C_R   0.992387 0.156814 0.550257 -0.118448
C25   C     C_R   0.499998 0.774465 0.000000 -0.026830
C26   C     C_R   0.797385 0.007764 0.550213 -0.107269
C27   C     C_R   0.007793 0.797384 0.550208 -0.107273
C28   C     C_R   0.202616 0.992051 0.550168 -0.107262
C29   C     C_R   0.992214 0.202617 0.550210 -0.107270
C30   C     C_R   0.202614 0.007960 0.449830 -0.107256
C31   C     C_R   0.992209 0.797383 0.449791 -0.107269
C32   C     C_R   0.797384 0.992236 0.449786 -0.107271
C33   C     C_R   0.007789 0.202616 0.449791 -0.107274
C34   C     C_R   0.297384 0.492230 0.050211 -0.107273
C35   C     C_R   0.156811 0.007779 0.449782 -0.118441
C36   C     C_R   0.492171 0.297383 0.050196 -0.107266
C37   C     C_R   0.702616 0.507773 0.050214 -0.107268
C38   C     C_R   0.507699 0.702618 0.050232 -0.107280
C39   C     C_R   0.702616 0.492225 0.949787 -0.107271
C40   C     C_R   0.507831 0.297383 0.949801 -0.107269
C41   C     C_R   0.297384 0.507778 0.949785 -0.107267
C42   C     C_R   0.492297 0.702617 0.949770 -0.107274
C43   C     C_2   0.633177 0.039863 0.405683 0.248445
C44   C     C_2   0.039889 0.633180 0.405697 0.248502
C45   C     C_2   0.366835 0.960546 0.405389 0.248250
C46   C     C_R   0.992382 0.843186 0.449744 -0.118447
C47   C     C_2   0.960100 0.366816 0.405704 0.248501
C48   C     C_2   0.366839 0.039463 0.594600 0.248307
C49   C     C_2   0.960112 0.633183 0.594303 0.248501
C50   C     C_2   0.633179 0.960137 0.594316 0.248440
C51   C     C_2   0.039901 0.366819 0.594295 0.248502
C52   C     C_2   0.133183 0.460086 0.905712 0.248504
C53   C     C_2   0.460160 0.133177 0.905667 0.248519
C54   C     C_2   0.866816 0.539917 0.905717 0.248514
C55   C     C_2   0.540104 0.866811 0.905850 0.248575
C56   C     C_2   0.866818 0.460085 0.094285 0.248512
C57   C     C_R   0.843187 0.992412 0.449739 -0.118458
C58   C     C_2   0.539845 0.133179 0.094329 0.248518
C59   C     C_2   0.133182 0.539920 0.094280 0.248538
C60   C     C_2   0.459893 0.866814 0.094148 0.248598
C61   C     C_R   0.007615 0.156813 0.449744 -0.118461
C62   C     C_R   0.343186 0.492402 0.050258 -0.118460
C63   C     C_R   0.492345 0.343186 0.050243 -0.118454
C64   C     C_R   0.656814 0.507600 0.050260 -0.118450
C65   C     C_R   1.000000 0.584882 0.500000 0.491295
C66   C     C_R   0.507528 0.656815 0.050278 -0.118464
C67   C     C_R   0.656813 0.492399 0.949740 -0.118459
C68   C     C_R   0.507656 0.343186 0.949755 -0.118457
C69   C     C_R   0.343187 0.507603 0.949739 -0.118451
C70   C     C_R   0.492469 0.656814 0.949724 -0.118461
C71   C     C_R   0.866455 0.000000 0.499999 0.015928
C72   C     C_R   0.000001 0.866455 0.499999 0.015940
C73   C     C_R   0.133544 0.000003 0.500000 0.015966
C74   C     C_R   0.000001 0.133545 0.500001 0.015940
C75   C     C_R   0.366455 0.500002 0.999999 0.015941
C76   C     C_R   0.415121 0.000000 0.499999 0.491275
C77   C     C_R   0.500000 0.366455 0.999999 0.015943
C78   C     C_R   0.633545 0.500000 0.000000 0.015941
C79   C     C_R   0.499999 0.633546 0.000001 0.015926
C80   C     C_R   0.774069 0.000000 0.499999 0.029879
C81   C     C_R   0.000001 0.774070 0.499999 0.029883
C82   C     C_R   0.225932 0.000006 0.499998 0.029872
C83   C     C_R   0.000001 0.225930 0.500001 0.029882
C84   C     C_R   0.274070 0.500005 0.999998 0.029891
C85   C     C_R   0.500001 0.274069 0.999998 0.029878
C86   C     C_R   0.725930 0.499999 0.000000 0.029891
C87   C     C_R   0.000000 0.415118 0.500000 0.491295
C88   C     C_R   0.499998 0.725931 0.000000 0.029891
C89   C     C_R   0.000000 0.914763 0.500000 0.552474
C90   C     C_R   0.085237 0.000000 0.500000 0.552465
C91   C     C_R   0.000000 0.085237 0.500000 0.552473
C92   C     C_R   0.914763 0.000000 0.500000 0.552486
C93   C     C_R   0.500000 0.414763 1.000000 0.552486
C94   C     C_R   0.585237 0.500000 0.000000 0.552492
C95   C     C_R   0.500000 0.585237 0.000000 0.552500
C96   C     C_R   0.414763 0.500000 1.000000 0.552491
C97   C     C_R   0.500000 0.000000 0.608133 0.528074
C98   C     C_R   0.084882 0.500000 0.999999 0.491290
C99   C     C_R   0.000000 0.500000 0.608133 0.528056
C100  C     C_R   0.500000 1.000000 0.391867 0.528081
C101  C     C_R   1.000000 0.500000 0.391867 0.528056
C102  C     C_R   1.000000 0.500000 0.108133 0.528051
C103  C     C_R   0.500000 0.999999 0.108133 0.528059
C104  C     C_R   1.000000 0.500000 0.891867 0.528057
C105  C     C_R   0.500000 1.000000 0.891867 0.528064
C106  C     C_1   0.500000 0.000001 0.668989 -0.000889
C107  C     C_1   0.000000 0.500000 0.668989 -0.000989
C108  C     C_1   0.500000 0.999999 0.331011 -0.000878
C109  C     C_R   0.500000 0.084881 0.999999 0.491249
C110  C     C_1   0.999999 0.500000 0.331011 -0.000991
C111  C     C_1   1.000000 0.500001 0.168989 -0.000996
C112  C     C_1   0.500000 0.999999 0.168989 -0.000955
C113  C     C_1   0.000000 0.499999 0.831011 -0.000986
C114  C     C_1   0.499999 0.000000 0.831011 -0.000949
C115  C     C_1   0.499999 0.000001 0.720060 -0.003364
C116  C     C_1   0.000001 0.499999 0.720060 -0.003485
C117  C     C_1   0.500000 0.999999 0.279940 -0.003358
C118  C     C_1   0.999999 0.500001 0.279940 -0.003489
C119  C     C_1   1.000000 0.500001 0.220060 -0.003493
C120  C     C_R   0.915118 0.500000 1.000000 0.491291
C121  C     C_1   0.500000 0.999999 0.220060 -0.003421
C122  C     C_1   0.000000 0.499999 0.779940 -0.003485
C123  C     C_1   0.499999 0.000001 0.779940 -0.003420
C124  C     C_R   0.702391 0.020181 0.455975 -0.080276
C125  C     C_R   0.020191 0.702394 0.455980 -0.080305
C126  C     C_R   0.297613 0.980027 0.455814 -0.080218
C127  C     C_R   0.979804 0.297604 0.455985 -0.080300
C128  C     C_R   0.297615 0.019984 0.544179 -0.080227
C129  C     C_R   0.979810 0.702395 0.544019 -0.080300
C130  C     C_R   0.702393 0.979820 0.544023 -0.080274
C131  C     C_R   0.500000 0.915118 1.000000 0.491277
C132  C     C_R   0.020198 0.297606 0.544015 -0.080305
C133  C     C_R   0.202395 0.479799 0.955989 -0.080300
C134  C     C_R   0.479838 0.202393 0.955960 -0.080286
C135  C     C_R   0.797604 0.520204 0.955992 -0.080300
C136  C     C_R   0.520294 0.797602 0.956062 -0.080317
C137  C     C_R   0.797606 0.479795 0.044009 -0.080303
C138  C     C_R   0.520165 0.202394 0.044037 -0.080289
C139  C     C_R   0.202395 0.520209 0.044005 -0.080305
C140  C     C_R   0.479703 0.797603 0.043937 -0.080323
C141  C     C_R   0.656339 0.020085 0.454951 -0.000590
C142  C     C_R   0.843187 0.007589 0.550260 -0.118457
C143  C     C_R   0.020098 0.656342 0.454958 -0.000603
C144  C     C_R   0.343666 0.980119 0.454794 -0.000601
C145  C     C_R   0.979897 0.343657 0.454962 -0.000603
C146  C     C_R   0.343668 0.019887 0.545199 -0.000594
C147  C     C_R   0.979903 0.656343 0.545042 -0.000605
C148  C     C_R   0.656340 0.979915 0.545048 -0.000583
C149  C     C_R   0.020105 0.343658 0.545038 -0.000603
C150  C     C_R   0.156343 0.479890 0.954966 -0.000600
C151  C     C_R   0.479928 0.156340 0.954940 -0.000596
C152  C     C_R   0.843657 0.520112 0.954968 -0.000603
Cu1   Cu    Cu3+1 0.500000 0.044070 0.500000 0.989176
Cu2   Cu    Cu3+1 1.000000 1.000000 0.444200 0.954568
Cu3   Cu    Cu3+1 0.500000 0.500000 0.055800 0.954501
Cu4   Cu    Cu3+1 0.500000 0.500000 0.944200 0.954502
Cu5   Cu    Cu3+1 0.955930 0.500000 0.500000 0.989309
Cu6   Cu    Cu3+1 0.500000 0.955930 0.500000 0.989019
Cu7   Cu    Cu3+1 0.044070 0.500000 0.500000 0.989303
Cu8   Cu    Cu3+1 0.000000 0.544070 0.000000 0.989377
Cu9   Cu    Cu3+1 0.455930 0.000000 0.000000 0.989547
Cu10  Cu    Cu3+1 0.000000 0.455930 0.000000 0.989324
Cu11  Cu    Cu3+1 0.544070 0.000000 0.000000 0.989379
Cu12  Cu    Cu3+1 1.000000 1.000000 0.555800 0.954567
H1    H     H_    0.720466 0.036078 0.422241 0.167741
H2    H     H_    0.463959 0.220469 0.922211 0.167732
H3    H     H_    0.779528 0.536116 0.922267 0.167732
H4    H     H_    0.536270 0.779524 0.922390 0.167726
H5    H     H_    0.779530 0.463883 0.077734 0.167729
H6    H     H_    0.536044 0.220470 0.077785 0.167734
H7    H     H_    0.220470 0.536121 0.077730 0.167725
H8    H     H_    0.463726 0.779527 0.077610 0.167718
H9    H     H_    0.780203 0.014503 0.589333 0.121262
H10   H     H_    0.014553 0.780201 0.589323 0.121246
H11   H     H_    0.219797 0.985160 0.589249 0.121281
H12   H     H_    0.036092 0.720469 0.422247 0.167731
H13   H     H_    0.985458 0.219801 0.589326 0.121247
H14   H     H_    0.219793 0.014852 0.410748 0.121304
H15   H     H_    0.985449 0.780199 0.410675 0.121247
H16   H     H_    0.780202 0.985498 0.410665 0.121256
H17   H     H_    0.014544 0.219799 0.410675 0.121247
H18   H     H_    0.280200 0.485485 0.089330 0.121229
H19   H     H_    0.485383 0.280199 0.089301 0.121250
H20   H     H_    0.719800 0.514519 0.089333 0.121241
H21   H     H_    0.514385 0.719804 0.089366 0.121220
H22   H     H_    0.719799 0.485480 0.910668 0.121239
H23   H     H_    0.279538 0.964276 0.421961 0.167764
H24   H     H_    0.514619 0.280198 0.910696 0.121247
H25   H     H_    0.280200 0.514524 0.910666 0.121245
H26   H     H_    0.485611 0.719802 0.910635 0.121236
H27   H     H_    0.860349 0.013807 0.589541 0.136737
H28   H     H_    0.013863 0.860349 0.589531 0.136709
H29   H     H_    0.139650 0.985859 0.589461 0.136678
H30   H     H_    0.986147 0.139652 0.589534 0.136719
H31   H     H_    0.139647 0.014147 0.410538 0.136684
H32   H     H_    0.986139 0.860348 0.410468 0.136719
H33   H     H_    0.860348 0.986194 0.410457 0.136734
H34   H     H_    0.963899 0.279527 0.422256 0.167736
H35   H     H_    0.013855 0.139651 0.410467 0.136709
H36   H     H_    0.360348 0.486172 0.089538 0.136706
H37   H     H_    0.486071 0.360349 0.089510 0.136702
H38   H     H_    0.639652 0.513829 0.089541 0.136715
H39   H     H_    0.513700 0.639655 0.089572 0.136730
H40   H     H_    0.639651 0.486170 0.910460 0.136708
H41   H     H_    0.513930 0.360348 0.910488 0.136699
H42   H     H_    0.360349 0.513832 0.910460 0.136715
H43   H     H_    0.486297 0.639653 0.910429 0.136736
H44   H     H_    0.597923 0.036459 0.400718 0.132116
H45   H     H_    0.279543 0.035737 0.578032 0.167752
H46   H     H_    0.036416 0.597937 0.400680 0.132041
H47   H     H_    0.402124 0.963762 0.400623 0.132088
H48   H     H_    0.963567 0.402060 0.400690 0.132055
H49   H     H_    0.402121 0.036206 0.599399 0.132062
H50   H     H_    0.963579 0.597939 0.599316 0.132045
H51   H     H_    0.597925 0.963540 0.599281 0.132114
H52   H     H_    0.036428 0.402062 0.599313 0.132048
H53   H     H_    0.097939 0.463552 0.900697 0.132065
H54   H     H_    0.463607 0.097930 0.900676 0.132050
H55   H     H_    0.902059 0.536441 0.900694 0.132053
H56   H     H_    0.963910 0.720472 0.577753 0.167735
H57   H     H_    0.536575 0.902041 0.900759 0.132090
H58   H     H_    0.902061 0.463562 0.099308 0.132052
H59   H     H_    0.536384 0.097931 0.099331 0.132009
H60   H     H_    0.097943 0.536424 0.099318 0.132032
H61   H     H_    0.463435 0.902042 0.099247 0.132089
H62   H     H_    0.720468 0.963922 0.577757 0.167744
H63   H     H_    0.036103 0.279530 0.577745 0.167731
H64   H     H_    0.220471 0.463888 0.922263 0.167731
O1    O     O_R   0.564260 0.037220 0.500020 -0.507833
O2    O     O_R   0.462780 0.064260 0.000020 -0.507800
O3    O     O_R   0.935740 0.462780 0.000020 -0.507823
O4    O     O_R   0.537220 0.935740 0.000020 -0.507833
O5    O     O_R   0.935740 0.537220 0.999980 -0.507825
O6    O     O_R   0.537220 0.064260 0.999980 -0.507801
O7    O     O_R   0.064260 0.462780 0.999980 -0.507842
O8    O     O_R   0.462780 0.935740 0.999980 -0.507794
O9    O     O_R   0.499990 0.037220 0.581420 -0.500011
O10   O     O_R   0.962780 0.499990 0.581420 -0.500004
O11   O     O_R   0.500010 0.962780 0.581420 -0.500043
O12   O     O_R   0.962780 0.564260 0.500020 -0.507823
O13   O     O_R   0.037220 0.500010 0.581420 -0.500006
O14   O     O_R   0.500010 0.037220 0.418580 -0.500005
O15   O     O_R   0.037220 0.499990 0.418580 -0.500007
O16   O     O_R   0.499990 0.962780 0.418580 -0.500063
O17   O     O_R   0.962780 0.500010 0.418580 -0.500005
O18   O     O_R   0.999990 0.537220 0.081420 -0.499993
O19   O     O_R   0.462780 0.999990 0.081420 -0.499968
O20   O     O_R   0.000010 0.462780 0.081420 -0.500007
O21   O     O_R   0.537220 0.000010 0.081420 -0.500020
O22   O     O_R   0.000010 0.537220 0.918580 -0.500000
O23   O     O_R   0.435740 0.962780 0.500020 -0.507882
O24   O     O_R   0.537220 0.999990 0.918580 -0.500031
O25   O     O_R   0.999990 0.462780 0.918580 -0.500009
O26   O     O_R   0.462780 0.000010 0.918580 -0.499966
O27   O     O_R   0.999990 0.935770 0.547120 -0.510268
O28   O     O_R   0.064230 0.999990 0.547120 -0.510235
O29   O     O_R   0.000010 0.064230 0.547120 -0.510243
O30   O     O_R   0.935770 0.000010 0.547120 -0.510262
O31   O     O_R   0.000010 0.935770 0.452880 -0.510240
O32   O     O_R   0.935770 0.999990 0.452880 -0.510263
O33   O     O_R   0.999990 0.064230 0.452880 -0.510270
O34   O     O_R   0.037220 0.435740 0.500020 -0.507823
O35   O     O_R   0.064230 0.000010 0.452880 -0.510235
O36   O     O_R   0.499990 0.435770 0.047120 -0.510252
O37   O     O_R   0.564230 0.499990 0.047120 -0.510247
O38   O     O_R   0.500010 0.564230 0.047120 -0.510272
O39   O     O_R   0.435770 0.500010 0.047120 -0.510267
O40   O     O_R   0.500010 0.435770 0.952880 -0.510253
O41   O     O_R   0.435770 0.499990 0.952880 -0.510248
O42   O     O_R   0.499990 0.564230 0.952880 -0.510271
O43   O     O_R   0.564230 0.500010 0.952880 -0.510266
O44   O     O_2   0.653374 0.060059 0.369416 -0.487669
O45   O     O_R   0.435740 0.037220 0.499980 -0.507814
O46   O     O_2   0.060180 0.653365 0.369502 -0.487610
O47   O     O_2   0.346604 0.940742 0.368777 -0.487710
O48   O     O_2   0.939811 0.346629 0.369509 -0.487610
O49   O     O_2   0.346620 0.059317 0.631168 -0.487713
O50   O     O_2   0.939826 0.653370 0.630503 -0.487602
O51   O     O_2   0.653377 0.939942 0.630582 -0.487679
O52   O     O_2   0.060199 0.346634 0.630485 -0.487612
O53   O     O_2   0.153370 0.439793 0.869521 -0.487616
O54   O     O_2   0.439919 0.153364 0.869432 -0.487627
O55   O     O_2   0.846630 0.560223 0.869536 -0.487599
O56   O     O_R   0.037220 0.564260 0.499980 -0.507821
O57   O     O_2   0.560554 0.846636 0.869801 -0.487594
O58   O     O_2   0.846634 0.439778 0.130467 -0.487601
O59   O     O_2   0.560109 0.153366 0.130548 -0.487601
O60   O     O_2   0.153363 0.560252 0.130439 -0.487602
O61   O     O_2   0.439427 0.846643 0.130185 -0.487584
O62   O     O_R   0.564260 0.962780 0.499980 -0.507844
O63   O     O_R   0.962780 0.435740 0.499980 -0.507827
O64   O     O_R   0.064260 0.537220 0.000020 -0.507797

loop_
_geom_bond_atom_site_label_1
_geom_bond_atom_site_label_2
_ccdc_geom_bond_type
C131  O4    A    
C51   H52   S    
C14   C109  S    
C44   O46   D    
C47   C145  S    
C30   C82   A    
Cu12  O30   S    
C138  H6    S    
C1    C8    S    
Cu5   O63   S    
C102  O18   A    
C133  H64   S    
C34   C62   A    
C47   H48   S    
C101  O17   A    
C37   C86   A    
C110  C118  T    
Cu1   O45   S    
C9    C143  A    
Cu2   O32   S    
C54   H55   S    
C93   O40   A    
C8    C148  A    
C48   O49   D    
C79   C95   S    
C66   C79   A    
C5    C138  A    
C52   H53   S    
C45   H47   S    
C116  C122  S    
C5    C58   S    
C22   C134  A    
C32   C57   A    
Cu2   Cu12  S    
C126  H23   S    
C70   H43   S    
C2    H28   S    
C73   C90   S    
C29   C83   A    
C129  H56   S    
C44   C143  S    
C18   C125  A    
C6    C12   A    
C7    C140  A    
C120  O5    A    
C107  C116  T    
Cu4   O42   S    
C71   C92   S    
C134  C151  A    
C135  C152  A    
C19   C128  A    
C42   C70   A    
C18   C81   S    
C15   C120  S    
C49   C147  S    
C111  C119  T    
C60   H61   S    
C22   C85   S    
Cu7   O15   S    
C6    C139  A    
C25   C136  A    
C16   C131  S    
C117  C121  S    
C118  C119  S    
Cu9   O26   S    
C90   O28   A    
Cu2   O35   S    
Cu5   O12   S    
C92   O32   A    
C52   O53   D    
C24   C29   A    
C99   O10   A    
C10   C76   S    
C33   C61   A    
C11   C149  A    
C35   C73   A    
C113  C122  T    
C38   C66   A    
C11   C87   S    
C89   O31   A    
C23   C86   S    
C48   C146  S    
C14   C151  A    
C51   O52   D    
C45   C144  S    
C87   O63   A    
C134  H2    S    
C13   C28   A    
C139  H7    S    
C2    C27   A    
C98   O7    A    
C24   H30   S    
C19   C82   S    
C5    C14   A    
C46   C72   A    
Cu10  O3    S    
C100  O16   A    
C35   H31   S    
Cu6   O11   S    
C55   H57   S    
C93   O36   A    
C109  O6    A    
C29   H13   S    
C96   O39   A    
C60   O61   D    
C17   C130  A    
C40   C68   A    
C140  H8    S    
C13   H29   S    
Cu1   O14   S    
C4    C56   S    
Cu10  O20   S    
C132  C149  A    
C39   H22   S    
Cu1   O1    S    
C102  C111  S    
Cu12  O28   S    
C67   C78   A    
C34   C84   A    
C105  O26   A    
C20   C132  A    
Cu10  O25   S    
C2    C72   A    
Cu8   O64   S    
C27   H10   S    
C21   C133  A    
C15   C152  A    
Cu9   Cu11  S    
C75   C96   S    
Cu3   Cu4   S    
C58   O59   D    
C30   H14   S    
C97   O11   A    
C100  C108  S    
C115  C123  S    
Cu1   Cu6   S    
C130  C148  A    
C103  O21   A    
Cu8   O22   S    
C105  C114  S    
C27   C81   A    
C25   C140  A    
C104  O22   A    
Cu6   O23   S    
C20   C127  A    
Cu11  O4    S    
C132  H63   S    
Cu8   O18   S    
Cu4   O43   S    
C47   O48   D    
C11   C145  A    
C95   O38   A    
C54   C152  S    
Cu4   O41   S    
C136  H4    S    
C26   H9    S    
C101  C110  S    
C45   O47   D    
C41   C84   A    
C28   C82   A    
C50   O51   D    
C31   C46   A    
C25   C88   S    
C26   C80   A    
C104  O25   A    
C104  C113  S    
C38   C88   A    
C103  C112  S    
C87   O34   A    
Cu8   Cu10  S    
C40   C85   A    
C99   O13   A    
C98   O64   A    
C3    C16   A    
C49   H50   S    
C64   C78   A    
C120  O3    A    
C68   H41   S    
C91   O29   A    
C12   C150  A    
C128  H45   S    
C32   C80   A    
C66   H39   S    
C109  O2    A    
C42   H26   S    
C17   C124  A    
C97   O9    A    
Cu4   O40   S    
C21   C84   S    
Cu11  O21   S    
C21   C139  A    
Cu10  O7    S    
Cu7   O56   S    
C69   H42   S    
C102  O20   A    
C23   C135  A    
C65   O12   A    
C36   H19   S    
Cu6   O16   S    
C103  O19   A    
C57   C71   A    
C90   O35   A    
C33   C83   A    
C74   C91   S    
C51   C149  S    
C43   O44   D    
Cu3   O37   S    
C127  C145  A    
C71   C142  A    
C114  C123  T    
C30   C35   A    
C52   C150  S    
C61   H35   S    
C10   C146  A    
Cu8   O5    S    
C33   H17   S    
C36   C85   A    
C8    C141  A    
C124  C141  A    
C43   C141  S    
Cu12  O27   S    
C42   C88   A    
C50   H51   S    
Cu3   O36   S    
C69   C75   A    
C36   C63   A    
C127  H34   S    
C7    C60   S    
C3    C136  A    
C37   C64   A    
C100  O14   A    
C95   O42   A    
C41   C69   A    
C63   C77   A    
C50   C148  S    
C68   C77   A    
C94   O37   A    
C64   H38   S    
C48   H49   S    
Cu11  O24   S    
C135  H3    S    
C1    O62   A    
C63   H37   S    
C57   H33   S    
C43   H44   S    
C10   C144  A    
C137  H5    S    
C6    C59   S    
C23   C137  A    
C7    C16   A    
C133  C150  A    
C4    C137  A    
C105  O24   A    
C13   C73   A    
C142  H27   S    
C91   O33   A    
C92   O30   A    
C58   H59   S    
C28   H11   S    
C46   H32   S    
C40   H24   S    
Cu1   O9    S    
C131  O8    A    
C38   H21   S    
C99   C107  S    
C59   O60   D    
C22   C138  A    
C19   C126  A    
C3    C55   S    
C31   C81   A    
C55   O57   D    
C41   H25   S    
C106  C115  T    
C4    C15   A    
C96   O41   A    
C62   H36   S    
C112  C121  T    
C128  C146  A    
Cu11  O6    S    
C26   C142  A    
C56   H58   S    
C72   C89   S    
C37   H20   S    
C24   C74   A    
C70   C79   A    
Cu9   O8    S    
C49   O50   D    
C78   C94   S    
Cu7   O34   S    
C76   O23   A    
C94   O43   A    
C108  C117  T    
C77   C93   S    
C124  H1    S    
Cu2   O31   S    
C9    C147  A    
C76   O45   A    
C34   H18   S    
C65   O56   A    
C44   H46   S    
C17   C80   S    
Cu9   O19   S    
Cu2   O33   S    
C101  O15   A    
C9    C65   S    
C39   C67   A    
C129  C147  A    
Cu3   O38   S    
C59   H60   S    
C67   H40   S    
Cu9   O2    S    
C1    O1    A    
Cu5   O10   S    
C125  C143  A    
C130  H62   S    
C53   O54   D    
Cu5   Cu7   S    
C126  C144  A    
C89   O27   A    
C20   C83   S    
C31   H15   S    
C12   C98   S    
C54   O55   D    
Cu6   O62   S    
C32   H16   S    
C18   C129  A    
C56   O58   D    
C39   C86   A    
Cu12  O29   S    
C125  H12   S    
Cu5   O17   S    
C53   H54   S    
Cu7   O13   S    
Cu3   O39   S    
C62   C75   A    
C61   C74   A    
C53   C151  S    
C97   C106  S    
