data_mof_unit_40735.cif
_audit_creation_date              2012-12-11T15:24:34-0500
_audit_creation_method            fapswitch 2.2
_symmetry_space_group_name_H-M    P1
_symmetry_Int_Tables_number       1
_space_group_crystal_system       triclinic
_cell_length_a                    23.024549
_cell_length_b                    6.975612
_cell_length_c                    20.659463
_cell_angle_alpha                 90.007368
_cell_angle_beta                  93.18324
_cell_angle_gamma                 90.009713
_cell_volume                      3313.00319326

loop_
_atom_site_label
_atom_site_type_symbol
_atom_type_description
_atom_site_fract_x
_atom_site_fract_y
_atom_site_fract_z
_atom_type_partial_charge
O1    O     O_R   0.188030 0.379840 0.189340 -0.541915
O2    O     O_R   0.811970 0.620160 0.810660 -0.541825
O3    O     O_R   0.311970 0.879840 0.310660 -0.541721
O4    O     O_R   0.688030 0.120160 0.689340 -0.541974
O5    O     O_R   0.307090 0.708420 0.185790 -0.539668
O6    O     O_R   0.692910 0.291580 0.814210 -0.539793
O7    O     O_R   0.192910 0.208420 0.314210 -0.539594
O8    O     O_R   0.807090 0.791580 0.685790 -0.539583
C1    C     C_R   0.326752 0.541215 0.170785 0.728471
C2    C     C_R   0.673247 0.458785 0.829214 0.728170
C3    C     C_R   0.173239 0.041211 0.329203 0.728787
C4    C     C_R   0.826735 0.958796 0.670763 0.730232
O9    O     O_R   0.188180 0.709480 0.181650 -0.541022
O10   O     O_R   0.811820 0.290520 0.818350 -0.540463
O11   O     O_R   0.311820 0.209480 0.318350 -0.540938
O12   O     O_R   0.688180 0.790520 0.681650 -0.541164
O13   O     O_R   0.192210 0.880960 0.306500 -0.530769
O14   O     O_R   0.807790 0.119040 0.693500 -0.530777
O15   O     O_R   0.307790 0.380960 0.193500 -0.530844
O16   O     O_R   0.692210 0.619040 0.806500 -0.530948
C5    C     C_R   0.167638 0.540568 0.165555 0.706001
C6    C     C_R   0.832373 0.459449 0.834438 0.707520
C7    C     C_R   0.332359 0.040602 0.334450 0.706086
C8    C     C_R   0.667641 0.959398 0.665550 0.705108
O17   O     O_3   0.251460 0.546730 0.290970 -0.369100
O18   O     O_3   0.748540 0.453270 0.709030 -0.369475
O19   O     O_3   0.248540 0.046730 0.209030 -0.369407
O20   O     O_3   0.751460 0.953270 0.790970 -0.369281
V1    V     V_3+5 0.249730 0.821120 0.242400 1.439706
V2    V     V_3+5 0.750270 0.178880 0.757600 1.441967
V3    V     V_3+5 0.250270 0.321120 0.257600 1.439889
V4    V     V_3+5 0.749730 0.678880 0.742400 1.441705
C9    C     C_R   0.582084 0.133754 0.613253 -0.185052
C10   C     C_R   0.417916 0.866246 0.386747 -0.184995
C11   C     C_R   0.917938 0.634051 0.886675 -0.174855
C12   C     C_R   0.082109 0.366225 0.113102 -0.185349
C13   C     C_R   0.618121 0.970614 0.616343 -0.111733
C14   C     C_R   0.381879 0.029386 0.383657 -0.111954
C15   C     C_R   0.881915 0.470890 0.883634 -0.118246
C16   C     C_R   0.118127 0.529350 0.116334 -0.113370
C17   C     C_R   0.606402 0.819355 0.572547 -0.133248
C18   C     C_R   0.393598 0.180645 0.427452 -0.133064
C19   C     C_R   0.893599 0.320044 0.927490 -0.130245
C20   C     C_R   0.106350 0.680831 0.072700 -0.134075
C21   C     C_R   0.559951 0.831363 0.525625 0.087228
C22   C     C_R   0.440049 0.168638 0.474375 0.087225
C23   C     C_R   0.940024 0.332373 0.974387 0.078229
C24   C     C_R   0.059895 0.669106 0.025719 0.097693
C25   C     C_R   0.523633 0.994537 0.523300 -0.018370
C26   C     C_R   0.476367 0.005463 0.476700 -0.018371
C27   C     C_R   0.976411 0.495602 0.976677 -0.032760
C28   C     C_R   0.023646 0.506085 0.023229 -0.024474
C29   C     C_R   0.534478 0.146414 0.567654 0.012792
C30   C     C_R   0.465522 0.853586 0.432346 0.012813
C31   C     C_R   0.965590 0.647704 0.932339 0.021617
C32   C     C_R   0.034481 0.353958 0.067517 0.007951
C33   C     C_R   0.549193 0.682143 0.481103 -0.223750
C34   C     C_R   0.450807 0.317858 0.518896 -0.223638
C35   C     C_R   0.950707 0.183093 0.018874 -0.228777
C36   C     C_R   0.049136 0.819107 0.981545 -0.243585
C37   C     C_R   0.502866 0.693037 0.433966 0.428528
C38   C     C_R   0.497134 0.306963 0.566034 0.428497
C39   C     C_R   0.997061 0.193654 0.065932 0.427229
C40   C     C_R   0.002597 0.809697 0.933759 0.434813
H1    H     H_    0.590639 0.249679 0.647376 0.166351
H2    H     H_    0.409360 0.750321 0.352624 0.166392
H3    H     H_    0.909196 0.749338 0.852382 0.171458
H4    H     H_    0.090664 0.250101 0.147132 0.166841
H5    H     H_    0.633947 0.693206 0.574345 0.125560
H6    H     H_    0.366053 0.306794 0.425654 0.125680
H7    H     H_    0.866052 0.193866 0.925739 0.127383
H8    H     H_    0.133883 0.807041 0.074677 0.125362
H9    H     H_    0.576399 0.555255 0.483228 0.137150
H10   H     H_    0.423601 0.444746 0.516772 0.137212
H11   H     H_    0.923442 0.056311 0.016743 0.139565
H12   H     H_    0.076646 0.944782 0.985559 0.126614
C41   C     C_3   0.047191 0.079244 0.530900 -0.184440
C42   C     C_3   0.952620 0.920786 0.468854 -0.186534
C43   C     C_3   0.452710 0.579141 0.968978 -0.185816
C44   C     C_3   0.547286 0.420856 0.031018 -0.185637
C45   C     C_3   0.018449 0.887174 0.550006 -0.172749
C46   C     C_3   0.981366 0.112855 0.449744 -0.175909
C47   C     C_3   0.481452 0.387084 0.949873 -0.175955
C48   C     C_3   0.518545 0.612914 0.050123 -0.175824
H13   H     H_    0.033963 0.796044 0.591390 0.181694
H14   H     H_    0.965857 0.203975 0.408353 0.179418
H15   H     H_    0.465937 0.295905 0.908487 0.179324
H16   H     H_    0.534059 0.704092 0.091508 0.179353
H17   H     H_    0.085916 0.146663 0.555940 0.157083
H18   H     H_    0.913895 0.853370 0.443812 0.156437
H19   H     H_    0.413982 0.646487 0.943939 0.156225
H20   H     H_    0.586014 0.353510 0.056057 0.156377
C49   C     C_1   0.872271 0.965764 0.624992 -0.167985
C50   C     C_1   0.127639 0.034256 0.374891 -0.171024
C51   C     C_1   0.627676 0.465739 0.874939 -0.171005
C52   C     C_1   0.372322 0.534260 0.125059 -0.171394
C53   C     C_3   0.986089 0.170863 0.522118 0.063905
C54   C     C_3   0.013724 0.829167 0.477633 0.063619
C55   C     C_3   0.513813 0.670839 0.977747 0.065028
C56   C     C_3   0.486183 0.329159 0.022249 0.064955
C57   C     C_3   0.957769 0.981521 0.540907 0.058483
C58   C     C_3   0.042045 0.018509 0.458848 0.058539
C59   C     C_3   0.542131 0.481508 0.958963 0.059120
C60   C     C_3   0.457865 0.518490 0.041033 0.059129
C61   C     C_1   0.910680 0.970747 0.587007 -0.014686
C62   C     C_1   0.089175 0.029281 0.412805 -0.017161
C63   C     C_1   0.589238 0.470726 0.912887 -0.017519
C64   C     C_1   0.410759 0.529272 0.087109 -0.017645
O21   O     O_3   0.491358 0.539878 0.392666 -0.556200
C65   C     C_3   0.532240 0.540237 0.344369 -0.258339
H21   H     H_    0.576813 0.509041 0.365207 0.138452
H22   H     H_    0.531597 0.678536 0.317380 0.137606
H23   H     H_    0.520436 0.425166 0.308972 0.174122
O22   O     O_3   0.508643 0.460122 0.607334 -0.556214
C66   C     C_3   0.467759 0.459768 0.655629 -0.258222
H24   H     H_    0.468400 0.321468 0.682618 0.137603
H25   H     H_    0.423187 0.490971 0.634790 0.138582
H26   H     H_    0.479564 0.574837 0.691027 0.174097
O23   O     O_3   0.008497 0.040435 0.107209 -0.555903
C67   C     C_3   0.967665 0.041087 0.155558 -0.254114
H27   H     H_    0.923052 0.010172 0.134770 0.138385
H28   H     H_    0.968431 0.179397 0.182557 0.137534
H29   H     H_    0.979421 0.925958 0.190935 0.173360
O24   O     O_3   0.988679 0.960138 0.891099 -0.559682
C68   C     C_3   0.038002 0.061482 0.872187 -0.240742
H30   H     H_    0.074458 0.963980 0.861149 0.129885
H31   H     H_    0.051893 0.168896 0.909621 0.143707
H32   H     H_    0.025744 0.141912 0.827172 0.173035
C69   C     C_2   0.031142 0.640763 0.450248 0.761927
O25   O     O_2   0.998089 0.557272 0.411508 -0.578633
O26   O     O_R   0.085802 0.564351 0.467894 -0.658266
H33   H     H_    0.093039 0.438003 0.445534 0.292358
C70   C     C_2   0.968667 0.359280 0.549489 0.763736
O27   O     O_2   0.001719 0.442798 0.588223 -0.576634
O28   O     O_R   0.914008 0.435677 0.531833 -0.658781
H34   H     H_    0.906768 0.562044 0.554181 0.292298
C71   C     C_2   0.468769 0.140755 0.049636 0.761854
O29   O     O_2   0.501828 0.057330 0.088370 -0.578644
O30   O     O_R   0.414108 0.064268 0.031997 -0.658588
H35   H     H_    0.406874 0.937927 0.054358 0.292281
C72   C     C_2   0.531226 0.859243 0.950360 0.761839
O31   O     O_2   0.498168 0.942667 0.911626 -0.578692
O32   O     O_R   0.585888 0.935731 0.967999 -0.658409
H36   H     H_    0.593122 0.062073 0.945638 0.292344

loop_
_geom_bond_atom_site_label_1
_geom_bond_atom_site_label_2
_ccdc_geom_bond_type
C34   C38   A    
C55   C59   S    
O1    C5    A    
O19   V1    S    
O13   V1    S    
O3    C7    A    
C53   C70   S    
C44   C48   S    
O4    V2    S    
O15   V3    S    
C10   H2    S    
O22   C66   S    
C9    H1    S    
O28   H34   S    
C45   C57   S    
C42   H18   S    
O18   V4    S    
C71   O30   S    
C21   C33   A    
O5    C1    A    
C26   C30   A    
C47   C59   S    
O9    V1    S    
C14   C18   A    
C24   C28   A    
C72   O32   S    
C11   C15   A    
O4    C8    A    
C45   C54   S    
C66   H24   S    
C18   H6    S    
O2    V4    S    
C18   C22   A    
C33   H9    S    
C33   C37   A    
O3    V1    S    
C65   H21   S    
C22   C34   A    
C12   C16   A    
C65   H22   S    
C49   C61   T    
C1    O15   A    
C56   C60   S    
C3    O13   A    
C2    O16   A    
C66   H25   S    
C42   C54   S    
C68   H32   S    
C41   C53   S    
O14   V2    S    
C41   C45   S    
C43   H19   S    
C67   H29   S    
O11   C7    A    
C52   C64   T    
C37   O21   S    
O12   C8    A    
C44   C56   S    
C42   C57   S    
O17   V1    S    
C41   C58   S    
O10   V2    S    
C67   H28   S    
C24   C36   A    
O5    V1    S    
O1    V3    S    
C9    C29   A    
O30   H35   S    
C57   C61   S    
O7    V3    S    
C44   C59   S    
O19   V3    S    
C27   C28   A    
O8    V4    S    
O20   V4    S    
C8    C13   S    
C15   C19   A    
C40   O24   S    
C11   C31   A    
C36   H12   S    
C9    C13   A    
C44   H20   S    
O7    C3    A    
O2    C6    A    
C12   C32   A    
C54   C58   S    
C39   O23   S    
C29   C38   A    
C42   C46   S    
C1    C52   S    
C11   H3    S    
O8    C4    A    
C66   H26   S    
C41   H17   S    
C31   C40   A    
C21   C25   A    
C46   C58   S    
C32   C39   A    
O9    C5    A    
O11   V3    S    
C65   H23   S    
C51   C63   T    
C3    C50   S    
O6    V2    S    
C10   C30   A    
C47   C56   S    
C68   H30   S    
C48   C60   S    
C46   C53   S    
C43   C60   S    
O26   H33   S    
C35   H11   S    
C60   C64   S    
C67   H27   S    
C34   H10   S    
C17   H5    S    
C69   O25   D    
O16   V4    S    
C43   C55   S    
C50   C62   T    
C19   H7    S    
C10   C14   A    
C48   C55   S    
O17   V3    S    
C55   C72   S    
C48   H16   S    
C47   H15   S    
O6    C2    A    
C23   C27   A    
O23   C67   S    
C12   H4    S    
C38   O22   S    
C30   C37   A    
O12   V4    S    
C7    C14   S    
C71   O29   D    
C22   C26   A    
C35   C39   A    
C36   C40   A    
O10   C6    A    
O20   V2    S    
C46   H14   S    
C72   O31   D    
C43   C47   S    
C70   O27   D    
C5    C16   S    
C28   C32   A    
C2    C51   S    
C25   C29   A    
C6    C15   S    
C54   C69   S    
C20   H8    S    
C27   C31   A    
C13   C17   A    
C4    C49   S    
C53   C57   S    
C56   C71   S    
C23   C35   A    
C20   C24   A    
C16   C20   A    
C25   C26   A    
C58   C62   S    
C4    O14   A    
C68   H31   S    
C70   O28   S    
C17   C21   A    
C59   C63   S    
O21   C65   S    
C19   C23   A    
C45   H13   S    
O32   H36   S    
O24   C68   S    
C69   O26   S    
O18   V2    S    
