data_mof_unit_10173.cif
_audit_creation_date              2013-03-05T15:50:50-0500
_audit_creation_method            fapswitch 2.2
_symmetry_space_group_name_H-M    P1
_symmetry_Int_Tables_number       1
_space_group_crystal_system       triclinic
_cell_length_a                    9.63552
_cell_length_b                    10.829087
_cell_length_c                    15.401444
_cell_angle_alpha                 86.291603
_cell_angle_beta                  73.797443
_cell_angle_gamma                 88.818846
_cell_volume                      1539.97980277

loop_
_atom_site_label
_atom_site_type_symbol
_atom_site_description
_atom_site_fract_x
_atom_site_fract_y
_atom_site_fract_z
_atom_type_partial_charge
O1    O     O_R   0.118810 0.319640 0.500010 -0.580592
O2    O     O_R   0.881240 0.319660 0.500000 -0.572379
C1    C     C_R   0.998696 0.262381 0.506015 0.807071
O3    O     O_R   0.055570 0.499980 0.629840 -0.598250
O4    O     O_R   0.818000 0.500010 0.629830 -0.542161
C2    C     C_R   0.917825 0.505605 0.671924 0.798670
Cu1   Cu    Cu3+1 0.140660 0.499990 0.500010 0.918576
Cu2   Cu    Cu3+1 0.859340 0.500010 0.499990 0.951503
O5    O     O_R   0.118760 0.680340 0.500000 -0.604403
O6    O     O_R   0.881190 0.680360 0.499990 -0.597037
O7    O     O_R   0.182000 0.499990 0.370170 -0.587615
O8    O     O_R   0.944430 0.500020 0.370160 -0.565975
C3    C     C_R   0.994470 0.736884 0.507068 0.772901
C4    C     C_R   0.082063 0.497234 0.327761 0.825851
C5    C     C_R   0.870985 0.529182 0.768840 -0.105023
C6    C     C_R   0.128230 0.486495 0.228803 -0.152109
C7    C     C_R   0.911694 0.612304 0.903038 0.300176
C8    C     C_R   0.963246 0.582486 0.812010 -0.281024
C9    C     C_R   0.725823 0.511873 0.815505 -0.196551
C10   C     C_R   0.669872 0.545999 0.904679 0.020703
C11   C     C_R   0.767168 0.582730 0.951659 0.085979
C12   C     C_R   0.520361 0.535459 0.949830 0.004849
C13   C     C_R   0.475502 0.527451 0.045987 0.017348
C14   C     C_R   0.582415 0.536307 0.093429 0.230944
C15   C     C_R   0.721533 0.577787 0.046384 -0.304013
C16   C     C_R   0.413893 0.531184 0.902065 0.218237
C17   C     C_R   0.278901 0.480791 0.946693 -0.289641
C18   C     C_R   0.234129 0.465361 0.041250 0.061412
C19   C     C_R   0.326541 0.505938 0.090523 0.032195
C20   C     C_R   0.094463 0.419814 0.087226 0.235386
C21   C     C_R   0.042269 0.429120 0.182384 0.173737
C22   C     C_R   0.266037 0.527986 0.181769 -0.272617
H1    H     H_    0.074173 0.603184 0.774687 0.137907
C23   C     C_R   0.136082 0.112602 0.628776 -0.171261
C24   C     C_R   0.201096 0.040429 0.684810 -0.156341
H2    H     H_    0.248410 0.083575 0.731089 0.125956
C25   C     C_R   0.199449 0.912374 0.684668 -0.153045
H3    H     H_    0.246340 0.856780 0.730163 0.132889
C26   C     C_R   0.130703 0.855321 0.629695 -0.149001
C27   C     C_R   0.063570 0.926094 0.572057 0.069201
C28   C     C_R   0.067850 0.057053 0.570909 0.105799
C29   C     C_R   0.994343 0.127550 0.516782 -0.169495
C30   C     C_R   0.897740 0.069871 0.480169 -0.252037
C31   C     C_R   0.877760 0.942659 0.490947 0.244556
C32   C     C_R   0.979859 0.869820 0.522834 -0.195303
C33   C     C_R   0.696438 0.659591 0.375108 -0.128310
H4    H     H_    0.805788 0.666194 0.374415 0.219981
C34   C     C_R   0.652506 0.736034 0.310445 0.278404
C35   C     C_R   0.507125 0.738882 0.313980 -0.325777
C36   C     C_R   0.408467 0.664322 0.377606 -0.159919
C37   C     C_R   0.450674 0.580852 0.440060 0.209078
C38   C     C_R   0.599893 0.580034 0.439590 0.071652
N1    N     N_R   0.648320 0.501210 0.499140 -0.211945
C39   C     C_R   0.550706 0.419818 0.555799 0.357465
H5    H     H_    0.327250 0.356206 0.599468 0.145203
C40   C     C_R   0.402397 0.421267 0.555575 -0.123659
N2    N     N_R   0.352470 0.501290 0.499110 -0.208746
H6    H     H_    0.799021 0.591833 0.084046 0.187301
N3    N     N_2   0.009724 0.363538 0.037711 -0.429907
H7    H     H_    0.899433 0.367120 0.064222 0.256145
C41   C     C_3   0.059748 0.243261 0.005442 -0.717077
H8    H     H_    0.990754 0.210772 0.964588 0.227805
H9    H     H_    0.053796 0.174949 0.063188 0.219930
H10   H     H_    0.172846 0.247690 0.961822 0.235431
H11   H     H_    0.832458 0.126373 0.446574 0.169157
H12   H     H_    0.132799 0.211134 0.635745 0.141963
H13   H     H_    0.122862 0.755848 0.638176 0.158313
N4    N     N_2   0.750493 0.888636 0.477966 -0.410268
H14   H     H_    0.698069 0.829707 0.531934 0.275767
C42   C     C_3   0.647564 0.965906 0.446246 -0.711060
H15   H     H_    0.555890 0.908601 0.441922 0.244130
H16   H     H_    0.699457 0.008846 0.377670 0.234997
H17   H     H_    0.602401 0.037942 0.494719 0.218956
N5    N     N_2   0.602008 0.325840 0.608184 -0.370685
H18   H     H_    0.636179 0.248237 0.572633 0.253254
C43   C     C_3   0.513149 0.293704 0.698947 -0.769922
H19   H     H_    0.580390 0.245031 0.738454 0.239130
H20   H     H_    0.424866 0.231199 0.696898 0.205270
H21   H     H_    0.466401 0.377337 0.733480 0.241441
N6    N     N_2   0.750991 0.810157 0.240603 -0.427678
H22   H     H_    0.708774 0.889543 0.216989 0.247129
C44   C     C_3   0.902891 0.814989 0.236124 -0.717336
H23   H     H_    0.960740 0.873973 0.175713 0.220658
H24   H     H_    0.951204 0.720926 0.228998 0.232049
H25   H     H_    0.917404 0.855586 0.297358 0.243550
H26   H     H_    0.324672 0.580349 0.217209 0.203307
H27   H     H_    0.469677 0.798378 0.265784 0.152060
H28   H     H_    0.300758 0.674693 0.373335 0.207008
N7    N     N_2   0.903552 0.383829 0.231916 -0.410810
H29   H     H_    0.821617 0.408263 0.203867 0.244180
C45   C     C_3   0.899164 0.256319 0.266400 -0.657269
H30   H     H_    0.790836 0.236343 0.313713 0.214680
H31   H     H_    0.981980 0.238904 0.303556 0.226463
H32   H     H_    0.917725 0.193383 0.210336 0.212309
H33   H     H_    0.204067 0.464799 0.907628 0.177190
N8    N     N_2   0.004617 0.673496 0.944129 -0.432518
H34   H     H_    0.112465 0.668460 0.909347 0.254773
C46   C     C_3   0.963655 0.799751 0.965453 -0.715530
H35   H     H_    0.039703 0.838360 0.999115 0.226191
H36   H     H_    0.853070 0.804245 0.012270 0.248195
H37   H     H_    0.968549 0.857606 0.902345 0.226640
H38   H     H_    0.657434 0.467190 0.782344 0.203340
N9    N     N_2   0.556924 0.492641 0.185862 -0.434160
H39   H     H_    0.624542 0.529130 0.218806 0.260482
C47   C     C_3   0.540531 0.359720 0.202648 -0.682316
H40   H     H_    0.524010 0.334962 0.275943 0.232479
H41   H     H_    0.638343 0.311279 0.163240 0.210057
H42   H     H_    0.445550 0.326811 0.183478 0.246174
N10   N     N_2   0.436555 0.585569 0.812114 -0.442931
H43   H     H_    0.359869 0.562707 0.780650 0.236863
C48   C     C_3   0.464535 0.717362 0.801889 -0.683815
H44   H     H_    0.484038 0.749718 0.729583 0.222150
H45   H     H_    0.561983 0.739386 0.822798 0.245706
H46   H     H_    0.370110 0.767930 0.843274 0.211261

loop_
_geom_bond_atom_site_label_1
_geom_bond_atom_site_label_2
_geom_bond_distance
_ccdc_geom_bond_type
C5    C8    1.402221 A    
H5    C40   1.078853 S    
C1    C29   1.458922 S    
C28   C29   1.415737 A    
C35   H27   1.083658 S    
C17   H33   1.082899 S    
C48   H44   1.110717 S    
C43   H21   1.103549 S    
C30   H11   1.078222 S    
C23   H12   1.078218 S    
Cu1   Cu2   2.710745 S    
N1    C39   1.378278 A    
C31   C32   1.420803 A    
C6    C21   1.411505 A    
C5    C9    1.392993 A    
C47   H41   1.110573 S    
C16   C17   1.394244 A    
N5    C43   1.445569 S    
C13   C19   1.424277 A    
C18   C19   1.413583 A    
C24   C25   1.387287 A    
C43   H20   1.106450 S    
C19   C22   1.397236 A    
N10   C48   1.448265 S    
C20   C21   1.420087 A    
O7    C4    1.307466 A    
C33   C38   1.414458 A    
C40   N2    1.362897 A    
C23   C24   1.393671 A    
C41   H9    1.108923 S    
O5    C3    1.314032 A    
C2    C5    1.471552 S    
C39   N5    1.423594 S    
N9    C47   1.449879 S    
C24   H2    1.080449 S    
N4    H14   1.031330 S    
C21   N7    1.420785 S    
N8    C46   1.447923 S    
C13   C14   1.427417 A    
C42   H15   1.109315 S    
C37   N2    1.384490 A    
N7    C45   1.444133 S    
C29   C30   1.391761 A    
C36   H28   1.061313 S    
N3    H7    1.027505 S    
N8    H34   1.029849 S    
C23   C28   1.414586 A    
O3    Cu1   1.937926 S    
C36   C37   1.413616 A    
C33   C34   1.403720 A    
C27   C32   1.420554 A    
C47   H42   1.108865 S    
C39   C40   1.429750 A    
N3    C41   1.449131 S    
N5    H18   1.030505 S    
C37   C38   1.435652 A    
C14   C15   1.401545 A    
O3    C2    1.306555 A    
C45   H30   1.109841 S    
C44   H23   1.110289 S    
C7    C11   1.417038 A    
O1    C1    1.301904 A    
C41   H10   1.109326 S    
Cu1   O7    1.926923 S    
C30   C31   1.387764 A    
C25   H3    1.080943 S    
C45   H31   1.111066 S    
Cu2   O8    1.937926 S    
C22   H26   1.078886 S    
C20   N3    1.430998 S    
C42   H17   1.111428 S    
C7    C8    1.407056 A    
C48   H45   1.109111 S    
C7    N8    1.426963 S    
C43   H19   1.110075 S    
C16   N10   1.429936 S    
N6    C44   1.447780 S    
C34   C35   1.386394 A    
C10   C12   1.417539 A    
C46   H35   1.110495 S    
C44   H24   1.110285 S    
C4    C6    1.475375 S    
C31   N4    1.437887 S    
C15   H6    1.083909 S    
C46   H37   1.111893 S    
C26   C27   1.416274 A    
C38   N1    1.381546 A    
Cu1   O5    1.960058 S    
C11   C15   1.399103 A    
C33   H4    1.054582 S    
C27   C28   1.418439 A    
O1    Cu1   1.968651 S    
C26   H13   1.078325 S    
O2    Cu2   1.960058 S    
O8    C4    1.305244 A    
N6    H22   1.031738 S    
O6    C3    1.296350 A    
Cu2   N1    2.036748 S    
O4    Cu2   1.926923 S    
C6    C22   1.391218 A    
C44   H25   1.109969 S    
C47   H40   1.110794 S    
C46   H36   1.109634 S    
C14   N9    1.425884 S    
C34   N6    1.432459 S    
C9    C10   1.399190 A    
C18   C20   1.416374 A    
O2    C1    1.302432 A    
C25   C26   1.390989 A    
N10   H43   1.031984 S    
C45   H32   1.107703 S    
C3    C32   1.472731 S    
O4    C2    1.305622 A    
C9    H38   1.078020 S    
C48   H46   1.111262 S    
C41   H8    1.110557 S    
C8    H1    1.083245 S    
C10   C11   1.411315 A    
Cu2   O6    1.968651 S    
C35   C36   1.387553 A    
C12   C16   1.422411 A    
N9    H39   1.029125 S    
N4    C42   1.451120 S    
C12   C13   1.419615 A    
C42   H16   1.110432 S    
N7    H29   1.023162 S    
Cu1   N2    2.037408 S    
C17   C18   1.398493 A    
