data_mof_unit_62899.cif
_audit_creation_date              2012-12-10T18:09:58-0500
_audit_creation_method            fapswitch 2.2
_symmetry_space_group_name_H-M    P1
_symmetry_Int_Tables_number       1
_space_group_crystal_system       triclinic
_cell_length_a                    18.381336
_cell_length_b                    18.382097
_cell_length_c                    32.046707
_cell_angle_alpha                 89.999946
_cell_angle_beta                  89.999855
_cell_angle_gamma                 89.99993
_cell_volume                      10828.1817544

loop_
_atom_site_label
_atom_site_type_symbol
_atom_type_description
_atom_site_fract_x
_atom_site_fract_y
_atom_site_fract_z
_atom_type_partial_charge
C1    C     C_R   0.639864 0.500019 1.000000 0.842187
C2    C     C_R   0.360136 0.500019 0.000000 0.842611
C3    C     C_R   0.139864 0.000019 0.500000 0.842146
C4    C     C_R   0.860136 0.000019 0.500000 0.842616
C5    C     C_3   0.503056 0.566899 0.736105 0.126651
C6    C     C_3   0.498811 0.566960 0.263894 0.126638
C7    C     C_3   0.995894 0.066846 0.236106 0.126627
C8    C     C_3   0.996785 0.066894 0.763894 0.126628
C9    C     C_1   0.499960 0.499929 0.837507 -0.006578
C10   C     C_1   0.499962 0.499927 0.162493 -0.006572
C11   C     C_1   0.999966 0.999927 0.337507 -0.006563
C12   C     C_1   0.999967 0.999927 0.662493 -0.006561
C13   C     C_1   0.499997 0.499420 0.662496 0.001550
C14   C     C_1   0.500015 0.499423 0.337504 0.001536
C15   C     C_1   0.000027 0.999425 0.162496 0.001546
C16   C     C_1   0.000025 0.999424 0.837504 0.001547
C17   C     C_1   0.717336 0.500051 1.000000 -0.173710
C18   C     C_1   0.282664 0.500052 1.000000 -0.172964
C19   C     C_1   0.217336 0.000051 0.500000 -0.173763
C20   C     C_1   0.782664 0.000052 0.500000 -0.172890
C21   C     C_1   0.782583 0.500043 0.000000 -0.172388
C22   C     C_1   0.217417 0.500043 1.000000 -0.171577
C23   C     C_1   0.282583 0.000043 0.500000 -0.172497
C24   C     C_1   0.717417 0.000044 0.500000 -0.171526
C25   C     C_R   0.500000 0.360013 0.500000 0.841752
C26   C     C_R   0.000000 0.860013 1.000000 0.841767
C27   C     C_R   0.500000 0.499862 0.580162 0.819752
C28   C     C_R   0.500001 0.499862 0.419838 0.819840
C29   C     C_R   0.000001 0.999863 0.080162 0.819913
C30   C     C_R   0.000001 0.999863 0.919838 0.819899
C31   C     C_R   0.500000 0.639718 0.500000 0.843807
C32   C     C_R   1.000000 0.139718 0.000000 0.843989
C33   C     C_R   1.000000 0.639902 1.000000 0.843858
C34   C     C_R   0.500000 0.139902 0.500000 0.843919
C35   C     C_R   0.860057 0.500016 0.000000 0.843797
C36   C     C_R   0.139943 0.500016 1.000000 0.844280
C37   C     C_R   0.360056 0.000016 0.500000 0.843822
C38   C     C_R   0.639943 0.000017 0.500000 0.844374
C39   C     C_R   0.499998 0.500004 0.919838 0.819833
C40   C     C_R   0.499997 0.500004 0.080162 0.819833
C41   C     C_R   0.999997 0.000004 0.419838 0.819814
C42   C     C_R   0.999998 0.000004 0.580162 0.819814
C43   C     C_R   1.000000 0.360040 0.000000 0.843883
C44   C     C_R   0.500000 0.860040 0.500000 0.843942
C45   C     C_1   0.500000 0.282572 0.500000 -0.173700
C46   C     C_1   0.000000 0.782572 1.000000 -0.173718
C47   C     C_1   1.000000 0.717345 1.000000 -0.172502
C48   C     C_1   0.500000 0.217345 0.500000 -0.172519
C49   C     C_1   0.500000 0.717241 0.500000 -0.170394
C50   C     C_1   1.000000 0.217241 0.000000 -0.170223
C51   C     C_1   1.000000 0.282516 0.000000 -0.169845
C52   C     C_1   0.500000 0.782516 0.500000 -0.170042
C53   C     C_3   0.557872 0.462171 0.736173 0.138537
C54   C     C_3   0.560130 0.465902 0.263829 0.138448
C55   C     C_3   0.438835 0.467696 0.736154 0.137392
C56   C     C_3   0.440982 0.463900 0.263844 0.137463
C57   C     C_3   0.061548 0.968550 0.236168 0.138382
C58   C     C_3   0.061131 0.967737 0.763831 0.138379
C59   C     C_3   0.942600 0.961369 0.236158 0.137512
C60   C     C_3   0.942098 0.962132 0.763843 0.137506
C61   C     C_3   0.561138 0.531050 0.763907 0.134548
C62   C     C_3   0.559044 0.534850 0.236095 0.134463
C63   C     C_3   0.441876 0.536579 0.763918 0.102237
C64   C     C_3   0.439672 0.532837 0.236080 0.102302
C65   C     C_3   0.057469 0.037384 0.263903 0.134416
C66   C     C_3   0.057963 0.036620 0.736096 0.134471
C67   C     C_3   0.938296 0.030185 0.263923 0.102330
C68   C     C_3   0.938706 0.030999 0.736078 0.102308
C69   C     C_1   0.499980 0.499992 0.875095 -0.167671
C70   C     C_1   0.499980 0.499991 0.124905 -0.167670
C71   C     C_1   0.999982 0.999991 0.375095 -0.167649
C72   C     C_1   0.999983 0.999991 0.624905 -0.167640
C73   C     C_1   0.500001 0.499680 0.624907 -0.164080
C74   C     C_1   0.500005 0.499682 0.375093 -0.164090
C75   C     C_1   0.000007 0.999683 0.124907 -0.164108
C76   C     C_1   0.000007 0.999683 0.875093 -0.164105
C77   C     C_3   0.496755 0.430839 0.764152 0.138916
C78   C     C_3   0.501117 0.430773 0.235848 0.138985
C79   C     C_3   0.004121 0.930889 0.264152 0.138989
C80   C     C_3   0.003210 0.930839 0.735848 0.138920
C81   C     C_3   0.499930 0.499776 0.791744 0.046909
C82   C     C_3   0.499937 0.499772 0.208256 0.046914
C83   C     C_3   0.999945 0.999772 0.291744 0.046921
C84   C     C_3   0.999946 0.999771 0.708256 0.046923
C85   C     C_3   0.499971 0.498929 0.708249 0.043224
C86   C     C_3   0.500020 0.498931 0.291751 0.043222
C87   C     C_3   0.000056 0.998934 0.208249 0.043243
C88   C     C_3   0.000048 0.998933 0.791751 0.043246
Cu1   Cu    Cu3+1 0.500000 0.427500 0.000000 0.967404
Cu2   Cu    Cu3+1 0.000000 0.927500 0.500000 0.967530
Cu3   Cu    Cu3+1 0.500000 0.572500 0.000000 0.966424
Cu4   Cu    Cu3+1 0.000000 0.072500 0.500000 0.966488
Cu5   Cu    Cu3+1 0.572520 0.499840 0.500000 0.970962
Cu6   Cu    Cu3+1 0.427480 0.499840 0.500000 0.966319
Cu7   Cu    Cu3+1 0.072520 0.999840 0.000000 0.970600
Cu8   Cu    Cu3+1 0.927480 0.999840 0.000000 0.966358
Cu9   Cu    Cu3+1 0.000000 0.500000 0.958560 0.966586
Cu10  Cu    Cu3+1 0.000000 0.500000 0.041440 0.966597
Cu11  Cu    Cu3+1 0.500000 1.000000 0.458560 0.966432
Cu12  Cu    Cu3+1 0.500000 1.000000 0.541440 0.966197
O1    O     O_R   0.605840 0.438770 0.000000 -0.582377
O2    O     O_R   0.394160 0.438770 0.000000 -0.581718
O3    O     O_R   0.105840 0.938770 0.500000 -0.582381
O4    O     O_R   0.894160 0.938770 0.500000 -0.581680
O5    O     O_R   0.000000 0.394210 0.965010 -0.582930
O6    O     O_R   0.000000 0.394210 0.034990 -0.582903
O7    O     O_R   0.500000 0.894210 0.465010 -0.582930
O8    O     O_R   0.500000 0.894210 0.534990 -0.583101
O9    O     O_R   0.605760 0.561230 0.000000 -0.582043
O10   O     O_R   0.394240 0.561230 0.000000 -0.582169
O11   O     O_R   0.105760 0.061230 0.500000 -0.582025
O12   O     O_R   0.894240 0.061230 0.500000 -0.582180
O13   O     O_R   0.500000 0.438780 0.939540 -0.580919
O14   O     O_R   0.500000 0.438780 0.060460 -0.580909
O15   O     O_R   0.000000 0.938780 0.439540 -0.580889
O16   O     O_R   0.000000 0.938780 0.560460 -0.580879
O17   O     O_R   0.500000 0.561230 0.939540 -0.581211
O18   O     O_R   0.500000 0.561230 0.060460 -0.581219
O19   O     O_R   1.000000 0.061230 0.439540 -0.581220
O20   O     O_R   1.000000 0.061230 0.560460 -0.581217
O21   O     O_R   0.561200 0.394070 0.500000 -0.582494
O22   O     O_R   0.438800 0.394070 0.500000 -0.582358
O23   O     O_R   0.061200 0.894070 0.000000 -0.582515
O24   O     O_R   0.938800 0.894070 0.000000 -0.582368
O25   O     O_R   0.561230 0.499860 0.560460 -0.579293
O26   O     O_R   0.561230 0.499860 0.439540 -0.579480
O27   O     O_R   0.438770 0.499860 0.560460 -0.582265
O28   O     O_R   0.438770 0.499860 0.439540 -0.582195
O29   O     O_R   0.061230 0.999860 0.060460 -0.579597
O30   O     O_R   0.061230 0.999860 0.939540 -0.579551
O31   O     O_R   0.938770 0.999860 0.060460 -0.582163
O32   O     O_R   0.938770 0.999860 0.939540 -0.582192
O33   O     O_R   0.561270 0.605640 0.500000 -0.580365
O34   O     O_R   0.438730 0.605640 0.500000 -0.582685
O35   O     O_R   0.061270 0.105640 0.000000 -0.580490
O36   O     O_R   0.938730 0.105640 0.000000 -0.582597
O37   O     O_R   0.000000 0.605780 0.965000 -0.584131
O38   O     O_R   0.000000 0.605780 0.035000 -0.584141
O39   O     O_R   0.500000 0.105780 0.465000 -0.584139
O40   O     O_R   0.500000 0.105780 0.535000 -0.584139
O41   O     O_R   0.894200 0.500000 0.965010 -0.583994
O42   O     O_R   0.894200 0.500000 0.034990 -0.584014
O43   O     O_R   0.105800 0.500000 0.965010 -0.583626
O44   O     O_R   0.105800 0.500000 0.034990 -0.583607
O45   O     O_R   0.394200 0.000000 0.465010 -0.584038
O46   O     O_R   0.394200 0.000000 0.534990 -0.584103
O47   O     O_R   0.605800 0.000000 0.465010 -0.583587
O48   O     O_R   0.605800 0.000000 0.534990 -0.583597
C89   C     C_3   0.630101 0.567825 0.779436 -0.825862
H1    H     H_    0.663554 0.585341 0.752422 0.245502
H2    H     H_    0.615623 0.616050 0.798537 0.231811
H3    H     H_    0.661795 0.529065 0.798780 0.231343
C90   C     C_3   0.625550 0.575903 0.220568 -0.825686
H4    H     H_    0.657828 0.595496 0.247583 0.245427
H5    H     H_    0.659629 0.539220 0.201225 0.231342
H6    H     H_    0.608059 0.623119 0.201466 0.231898
C91   C     C_3   0.376525 0.579433 0.779466 -0.859075
H7    H     H_    0.344696 0.599807 0.752466 0.235495
H8    H     H_    0.341533 0.543718 0.798868 0.243719
H9    H     H_    0.395315 0.626212 0.798512 0.234298
C92   C     C_3   0.371748 0.571479 0.220527 -0.859169
H10   H     H_    0.338691 0.589805 0.247524 0.235575
H11   H     H_    0.387552 0.619350 0.201480 0.234208
H12   H     H_    0.339084 0.533625 0.201124 0.243756
C93   C     C_3   0.122128 0.081291 0.279427 -0.825654
H13   H     H_    0.153519 0.102271 0.252411 0.245378
H14   H     H_    0.102604 0.127699 0.298531 0.231954
H15   H     H_    0.157774 0.046123 0.298767 0.231332
C94   C     C_3   0.123198 0.079666 0.720571 -0.825770
H16   H     H_    0.154865 0.100228 0.747587 0.245401
H17   H     H_    0.158374 0.044029 0.701231 0.231308
H18   H     H_    0.104289 0.126329 0.701468 0.231942
C95   C     C_3   0.868760 0.065838 0.279478 -0.859182
H19   H     H_    0.834932 0.082705 0.252482 0.235608
H20   H     H_    0.837777 0.026602 0.298884 0.243794
H21   H     H_    0.882469 0.114354 0.298522 0.234161
C96   C     C_3   0.869647 0.067569 0.720523 -0.859140
H22   H     H_    0.836046 0.084884 0.747519 0.235574
H23   H     H_    0.883997 0.115898 0.701479 0.234200
H24   H     H_    0.838146 0.028746 0.701118 0.243788
C97   C     C_3   0.623455 0.419837 0.720449 -0.838576
H25   H     H_    0.655503 0.399492 0.747371 0.236379
H26   H     H_    0.604882 0.373047 0.701339 0.234790
H27   H     H_    0.658159 0.455877 0.701075 0.239600
C98   C     C_3   0.628252 0.427793 0.279557 -0.838426
H28   H     H_    0.661525 0.409509 0.252637 0.236345
H29   H     H_    0.660609 0.465953 0.298932 0.239605
H30   H     H_    0.612667 0.379925 0.298667 0.234834
C99   C     C_3   0.369658 0.431596 0.720382 -0.836202
H31   H     H_    0.335816 0.414288 0.747281 0.239084
H32   H     H_    0.338469 0.470693 0.700992 0.235567
H33   H     H_    0.383873 0.383298 0.701276 0.234754
C100  C     C_3   0.374221 0.423506 0.279615 -0.836332
H34   H     H_    0.341541 0.404095 0.252716 0.239144
H35   H     H_    0.391455 0.376203 0.298722 0.234658
H36   H     H_    0.340626 0.460558 0.299004 0.235605
C101  C     C_3   0.131261 0.933438 0.220438 -0.838314
H37   H     H_    0.165300 0.916620 0.247358 0.236306
H38   H     H_    0.117770 0.884937 0.201330 0.234889
H39   H     H_    0.161925 0.972969 0.201062 0.239591
C102  C     C_3   0.130374 0.931706 0.779560 -0.838305
H40   H     H_    0.164187 0.914438 0.752640 0.236293
H41   H     H_    0.161559 0.970827 0.798936 0.239590
H42   H     H_    0.116243 0.883387 0.798669 0.234902
C103  C     C_3   0.877657 0.918111 0.220390 -0.836417
H43   H     H_    0.845855 0.897297 0.247290 0.239221
H44   H     H_    0.842479 0.953667 0.201003 0.235594
H45   H     H_    0.896929 0.871602 0.201282 0.234607
C104  C     C_3   0.876589 0.919737 0.779612 -0.836394
H46   H     H_    0.844513 0.899346 0.752711 0.239242
H47   H     H_    0.895244 0.872977 0.798719 0.234639
H48   H     H_    0.841885 0.955756 0.798999 0.235557
N1    N     N_3   0.507085 0.641194 0.720495 -0.572644
H49   H     H_    0.506045 0.675831 0.746341 0.225198
H50   H     H_    0.459478 0.651061 0.703597 0.221787
N2    N     N_3   0.498136 0.641362 0.279504 -0.572708
H51   H     H_    0.494900 0.675863 0.253658 0.225206
H52   H     H_    0.450004 0.648197 0.296406 0.221867
N3    N     N_3   0.991985 0.141149 0.220496 -0.572748
H53   H     H_    0.987297 0.175480 0.246344 0.225215
H54   H     H_    0.943579 0.145899 0.203617 0.221923
N4    N     N_3   0.993860 0.141242 0.779504 -0.572728
H55   H     H_    0.989626 0.175632 0.753656 0.225225
H56   H     H_    0.945522 0.146632 0.796384 0.221899
C105  C     C_3   0.493132 0.353107 0.780273 -0.838566
H57   H     H_    0.491369 0.314774 0.753545 0.236914
H58   H     H_    0.541875 0.341440 0.799575 0.236021
H59   H     H_    0.443492 0.346011 0.799553 0.237327
C106  C     C_3   0.502413 0.352968 0.219726 -0.838730
H60   H     H_    0.503068 0.314600 0.246454 0.236898
H61   H     H_    0.453323 0.342754 0.200444 0.237381
H62   H     H_    0.551798 0.344403 0.200428 0.235944
C107  C     C_3   0.008802 0.853214 0.280274 -0.838732
H63   H     H_    0.011124 0.814910 0.253546 0.236906
H64   H     H_    0.058515 0.846805 0.299571 0.235871
H65   H     H_    0.960204 0.840873 0.299558 0.237453
C108  C     C_3   0.006861 0.853110 0.719726 -0.838567
H66   H     H_    0.008676 0.814778 0.746454 0.236924
H67   H     H_    0.958104 0.841414 0.700442 0.237482
H68   H     H_    0.056485 0.846043 0.700429 0.235869

loop_
_geom_bond_atom_site_label_1
_geom_bond_atom_site_label_2
_ccdc_geom_bond_type
C101  H39   S    
C40   O18   A    
C77   C105  S    
Cu5   Cu6   S    
C1    O1    A    
Cu1   O2    S    
C2    C18   S    
C102  H41   S    
C94   H16   S    
C57   C79   S    
C66   C94   S    
C53   C77   S    
Cu7   Cu8   S    
C80   C84   S    
C25   O22   A    
C43   C51   S    
C105  H59   S    
C39   O17   A    
Cu9   Cu10  S    
C60   C88   S    
C89   H1    S    
Cu8   O36   S    
C29   O31   A    
Cu6   O27   S    
C78   C106  S    
C8    C66   S    
C5    C63   S    
C93   H13   S    
C40   C70   S    
C63   C81   S    
C14   C74   T    
Cu3   O10   S    
C36   O43   A    
Cu5   O21   S    
C106  H62   S    
Cu5   O33   S    
C89   H2    S    
C43   O5    A    
C66   C84   S    
C55   C77   S    
C96   H24   S    
C11   C71   T    
C55   C85   S    
C98   H29   S    
N3    H54   S    
C2    O2    A    
C25   C45   S    
C3    O3    A    
C65   C93   S    
C68   C96   S    
C104  H48   S    
C56   C78   S    
C12   C84   S    
C53   C61   S    
C101  H38   S    
C102  H40   S    
C6    C64   S    
C99   H32   S    
C67   C95   S    
Cu5   O26   S    
Cu9   O43   S    
C54   C78   S    
C40   O14   A    
Cu12  O40   S    
C1    O9    A    
Cu1   O14   S    
C27   O27   A    
C58   C66   S    
C91   H7    S    
C7    C87   S    
C20   C24   T    
C58   C102  S    
Cu12  O46   S    
C100  H35   S    
C54   C98   S    
C55   C63   S    
Cu6   O22   S    
Cu7   O30   S    
C24   C38   S    
C56   C64   S    
C3    C19   S    
Cu10  O6    S    
Cu2   O16   S    
C37   O46   A    
Cu1   Cu3   S    
C107  H63   S    
Cu2   O4    S    
Cu1   O1    S    
C100  H34   S    
C58   C80   S    
Cu8   O32   S    
C5    C85   S    
C59   C103  S    
C95   H20   S    
C4    O12   A    
C28   C74   S    
C93   H14   S    
C18   C22   T    
C108  H66   S    
Cu10  O42   S    
C27   C73   S    
C94   H17   S    
Cu11  O39   S    
C99   H31   S    
C26   O24   A    
C31   C49   S    
C31   O34   A    
Cu11  O45   S    
Cu9   O37   S    
C92   H11   S    
C28   O26   A    
C92   H10   S    
Cu5   O25   S    
C44   O8    A    
Cu2   Cu4   S    
C105  H58   S    
Cu1   O13   S    
Cu12  O8    S    
C6    N2    S    
Cu8   O24   S    
C95   H19   S    
C68   C84   S    
C34   O39   A    
N2    H51   S    
C14   C86   S    
C104  H46   S    
C16   C88   S    
C97   H26   S    
C33   O37   A    
N3    H53   S    
C54   C86   S    
C26   C46   S    
Cu3   O9    S    
Cu4   O12   S    
C98   H30   S    
C30   O30   A    
C45   C48   T    
C39   O13   A    
C103  H43   S    
C54   C62   S    
C10   C82   S    
C17   C21   T    
C57   C87   S    
C8    C88   S    
C43   O6    A    
C4    C20   S    
C80   C108  S    
C97   H25   S    
C99   H33   S    
C19   C23   T    
C106  H60   S    
C53   C97   S    
C7    C65   S    
C30   C76   S    
C78   C82   S    
C59   C67   S    
C56   C86   S    
Cu11  Cu12  S    
C77   C81   S    
C33   O38   A    
C100  H36   S    
Cu9   O41   S    
Cu2   O3    S    
C44   O7    A    
C42   C72   S    
C105  H57   S    
C39   C69   S    
Cu3   O18   S    
C5    C61   S    
C50   C51   T    
C67   C83   S    
C41   O19   A    
C90   H6    S    
N4    H56   S    
C107  H64   S    
C64   C82   S    
C35   O41   A    
Cu8   O31   S    
C29   C75   S    
C10   C70   T    
C42   O16   A    
C13   C73   T    
Cu3   O17   S    
C8    C68   S    
C91   H9    S    
C32   O36   A    
C41   O15   A    
C108  H67   S    
Cu4   O11   S    
C33   C47   S    
C102  H42   S    
C29   O29   A    
C89   H3    S    
C90   H5    S    
C26   O23   A    
C63   C91   S    
C79   C107  S    
C59   C79   S    
C55   C99   S    
C92   H12   S    
C8    N4    S    
C15   C87   S    
C15   C75   T    
C60   C104  S    
C95   H21   S    
Cu7   O23   S    
Cu11  O47   S    
C46   C47   T    
C60   C80   S    
C97   H27   S    
Cu10  O44   S    
C16   C76   T    
Cu4   O19   S    
C22   C36   S    
C49   C52   T    
C9    C69   T    
C64   C92   S    
C58   C88   S    
C44   C52   S    
C32   O35   A    
Cu6   O34   S    
C57   C101  S    
C21   C35   S    
Cu6   O28   S    
C93   H15   S    
Cu11  O7    S    
C1    C17   S    
C6    C86   S    
C62   C90   S    
C41   C71   S    
C11   C83   S    
C6    C62   S    
Cu2   O15   S    
C31   O33   A    
Cu4   O20   S    
N1    H50   S    
Cu9   O5    S    
C106  H61   S    
C61   C81   S    
Cu10  O38   S    
C79   C83   S    
C27   O25   A    
C42   O20   A    
C98   H28   S    
C3    O11   A    
C61   C89   S    
Cu12  O48   S    
N1    H49   S    
C5    N1    S    
C4    O4    A    
C34   O40   A    
C94   H18   S    
C23   C37   S    
C96   H23   S    
C32   C50   S    
C62   C82   S    
C101  H37   S    
C12   C72   T    
C107  H65   S    
C59   C87   S    
C38   O47   A    
C65   C83   S    
C38   O48   A    
C35   O42   A    
C7    C67   S    
C56   C100  S    
C30   O32   A    
C28   O28   A    
C34   C48   S    
Cu7   O35   S    
C60   C68   S    
C91   H8    S    
C96   H22   S    
C108  H68   S    
C13   C85   S    
C7    N3    S    
Cu7   O29   S    
C104  H47   S    
C53   C85   S    
C103  H45   S    
C37   O45   A    
C90   H4    S    
C36   O44   A    
C103  H44   S    
C25   O21   A    
N4    H55   S    
N2    H52   S    
C9    C81   S    
C57   C65   S    
C2    O10   A    
