data_mof_unit_45274.cif
_audit_creation_date              2012-10-26T19:40:11-0400
_audit_creation_method            fapswitch 2.2
_symmetry_space_group_name_H-M    P1
_symmetry_Int_Tables_number       1
_space_group_crystal_system       triclinic
_cell_length_a                    15.019972
_cell_length_b                    8.719676
_cell_length_c                    7.513487
_cell_angle_alpha                 103.19351
_cell_angle_beta                  94.279155
_cell_angle_gamma                 93.337813
_cell_volume                      952.517253788

loop_
_atom_site_label
_atom_site_type_symbol
_atom_type_description
_atom_site_fract_x
_atom_site_fract_y
_atom_site_fract_z
_atom_type_partial_charge
C1    C     C_R   0.496248 0.200170 0.453622 0.584727
C2    C     C_R   0.181110 0.369927 0.416993 0.370678
C3    C     C_R   0.766570 0.494319 0.491392 0.003914
C4    C     C_R   0.233429 0.505715 0.508634 0.003894
C5    C     C_R   0.804825 0.359516 0.397994 0.061854
C6    C     C_R   0.195190 0.640537 0.602030 0.061878
C7    C     C_R   0.899176 0.357971 0.409560 0.000389
C8    C     C_R   0.100833 0.642059 0.590591 0.000407
C9    C     C_R   0.952801 0.498921 0.497450 -0.110039
C10   C     C_R   0.047202 0.501103 0.502724 -0.110037
C11   C     C_R   0.912062 0.637695 0.579944 -0.022431
C12   C     C_R   0.503754 0.799831 0.546378 0.584721
C13   C     C_R   0.087935 0.362324 0.420228 -0.022454
C14   C     C_R   0.941549 0.219587 0.339301 0.404986
C15   C     C_R   0.058455 0.780415 0.660959 0.405002
C16   C     C_R   0.034326 0.220552 0.344054 0.202434
C17   C     C_R   0.965676 0.779452 0.656199 0.202452
C18   C     C_2   0.490189 0.032436 0.428793 0.362213
C19   C     C_2   0.509809 0.967565 0.571209 0.362213
C20   C     C_R   0.329558 0.503611 0.502914 0.576020
C21   C     C_R   0.670442 0.496396 0.497088 0.576003
C22   C     C_R   0.818886 0.630091 0.583108 0.370708
Cu1   Cu    Cu3+1 0.510010 0.517380 0.684380 1.197267
Cu2   Cu    Cu3+1 0.489990 0.482620 0.315620 1.197267
F1    F     F_    0.776495 0.753361 0.674582 -0.577385
F2    F     F_    0.223495 0.246643 0.325508 -0.577371
F3    F     F_    0.894357 0.078233 0.273524 -0.572778
F4    F     F_    0.105645 0.921728 0.726949 -0.572766
F5    F     F_    0.461414 0.944292 0.257630 -0.589252
F6    F     F_    0.538584 0.055707 0.742373 -0.589254
I1    I     I_    0.715627 0.166152 0.238903 -0.021086
I2    I     I_    0.284462 0.834010 0.760773 -0.021096
I3    I     I_    0.084472 0.994006 0.243867 0.022117
I4    I     I_    0.915544 0.005992 0.756544 0.022172
I5    I     I_    0.371151 0.294209 0.902326 0.085445
I6    I     I_    0.628853 0.705788 0.097670 0.085443
N1    N     N_2   0.474890 0.456420 0.038520 -0.040023
N2    N     N_2   0.525110 0.543580 0.961480 -0.040021
O1    O     O_R   0.506510 0.286130 0.619770 -0.494829
O2    O     O_R   0.493490 0.713870 0.380230 -0.494831
O3    O     O_R   0.489600 0.256770 0.308360 -0.450099
O4    O     O_R   0.510400 0.743230 0.691640 -0.450096
O5    O     O_R   0.378710 0.514640 0.655720 -0.522245
O6    O     O_R   0.621290 0.485360 0.344280 -0.522244
O7    O     O_R   0.361800 0.485290 0.344300 -0.471931
O8    O     O_R   0.638200 0.514710 0.655700 -0.471934

loop_
_geom_bond_atom_site_label_1
_geom_bond_atom_site_label_2
_ccdc_geom_bond_type
C12   O2    A    
C6    I2    S    
Cu1   Cu2   S    
C8    C10   A    
C15   C17   A    
N1    N2    D    
C16   I3    S    
C21   O6    A    
C9    C10   A    
C11   C22   A    
C2    C4    A    
C20   O7    A    
I6    N2    S    
Cu2   N1    S    
C15   F4    S    
C2    F2    S    
Cu1   O8    S    
C12   O4    A    
Cu2   O3    S    
C9    C11   A    
C1    C18   S    
Cu1   O4    S    
Cu1   O1    S    
Cu2   O7    S    
C12   C19   S    
C1    O3    A    
Cu2   O2    S    
Cu2   O6    S    
C21   O8    A    
C8    C15   A    
C14   F3    S    
C14   C16   A    
C3    C21   S    
C4    C6    A    
C17   I4    S    
C1    O1    A    
C18   F5    S    
Cu1   N2    S    
C3    C5    A    
C20   O5    A    
Cu1   O5    S    
C7    C9    A    
C18   C19   D    
C13   C16   A    
C5    C7    A    
C2    C13   A    
C11   C17   A    
C3    C22   A    
C6    C8    A    
I5    N1    S    
C19   F6    S    
C10   C13   A    
C7    C14   A    
C5    I1    S    
C22   F1    S    
C4    C20   S    
