data_mof_unit_15220.cif
_audit_creation_date              2012-12-10T17:23:14-0500
_audit_creation_method            fapswitch 2.2
_symmetry_space_group_name_H-M    P1
_symmetry_Int_Tables_number       1
_space_group_crystal_system       triclinic
_cell_length_a                    15.867227
_cell_length_b                    10.790575
_cell_length_c                    9.645431
_cell_angle_alpha                 92.869717
_cell_angle_beta                  89.675079
_cell_angle_gamma                 93.474011
_cell_volume                      1646.34927552

loop_
_atom_site_label
_atom_site_type_symbol
_atom_type_description
_atom_site_fract_x
_atom_site_fract_y
_atom_site_fract_z
_atom_type_partial_charge
C1    C     C_R   0.496783 0.262191 0.496322 0.821169
C2    C     C_3   0.084445 0.516996 0.498880 -0.226777
C3    C     C_3   0.974410 0.570739 0.616311 0.552311
C4    C     C_3   0.916972 0.512635 0.499566 -0.285683
C5    C     C_3   0.032881 0.634576 0.508232 -0.333359
C6    C     C_3   0.974802 0.574354 0.391243 0.590094
C7    C     C_1   0.175979 0.516061 0.501210 0.201500
C8    C     C_1   0.825270 0.509046 0.499458 0.251878
C9    C     C_R   0.335120 0.106674 0.515491 -0.085830
C10   C     C_R   0.267078 0.044859 0.581861 -0.099159
C11   C     C_R   0.274804 0.927736 0.633310 -0.106038
C12   C     C_R   0.340370 0.503760 0.500559 0.845211
C13   C     C_R   0.350244 0.868870 0.611568 0.490667
C14   C     C_R   0.420980 0.931040 0.548580 -0.069116
C15   C     C_R   0.416434 0.057083 0.516754 -0.081333
C16   C     C_R   0.492933 0.126749 0.485278 -0.157920
C17   C     C_R   0.568527 0.066117 0.458789 -0.121759
C18   C     C_R   0.567356 0.937810 0.466462 0.504301
C19   C     C_R   0.495331 0.870978 0.511737 -0.191077
C20   C     C_R   0.630147 0.632325 0.151489 -0.290588
C21   C     C_R   0.706893 0.659503 0.087384 0.556855
C22   C     C_R   0.712176 0.648467 0.944309 0.551011
C23   C     C_R   0.497443 0.736970 0.503461 0.947082
C24   C     C_R   0.636881 0.629943 0.868560 -0.198102
C25   C     C_R   0.565409 0.565137 0.929563 0.013587
C26   C     C_R   0.564117 0.565243 0.078490 0.011526
C27   C     C_R   0.438935 0.436867 0.070199 0.707916
C28   C     C_R   0.438801 0.437518 0.922862 -0.067297
C29   C     C_R   0.659920 0.501561 0.499801 0.882072
C30   C     C_3   0.969222 0.397123 0.490239 0.442192
C31   C     C_3   0.027201 0.458556 0.381366 -0.281405
C32   C     C_1   0.251225 0.511751 0.501738 -0.013229
C33   C     C_1   0.749663 0.505416 0.499404 -0.012266
C34   C     C_3   0.026653 0.455102 0.607331 0.579269
Cu1   Cu    Cu3+1 0.499990 0.499990 0.640660 1.023904
Cu2   Cu    Cu3+1 0.500010 0.500010 0.359340 1.055858
H1    H     H_    0.624915 0.665639 0.256961 0.266481
H2    H     H_    0.388732 0.385695 0.865489 0.170989
H3    H     H_    0.059096 0.732390 0.515021 0.234810
H4    H     H_    0.206034 0.084850 0.586322 0.250936
N1    N     N_R   0.500800 0.501210 0.147910 -0.216400
N2    N     N_R   0.500830 0.501290 0.852040 -0.200144
O1    O     O_R   0.499990 0.319640 0.618810 -0.579866
O2    O     O_R   0.500000 0.319660 0.381240 -0.537278
O3    O     O_R   0.379070 0.499980 0.618770 -0.552420
O4    O     O_R   0.379080 0.500000 0.381190 -0.537746
O5    O     O_R   0.500000 0.680340 0.618760 -0.557388
O6    O     O_R   0.500010 0.680360 0.381190 -0.601533
O7    O     O_R   0.620920 0.500000 0.618810 -0.573953
O8    O     O_R   0.620930 0.500020 0.381230 -0.568743
C35   C     C_2   0.053348 0.395625 0.247465 0.663496
H5    H     H_    0.005516 0.358032 0.174504 0.110331
O9    O     O_2   0.127869 0.386440 0.219599 -0.455112
C36   C     C_2   0.202200 0.862493 0.701976 0.446675
H6    H     H_    0.207002 0.768620 0.735383 0.136885
O10   O     O_2   0.135996 0.912692 0.722405 -0.460897
F1    F     F_    0.354401 0.753384 0.658643 -0.702899
F2    F     F_    0.637568 0.876742 0.431015 -0.641887
F3    F     F_    0.376264 0.370576 0.134106 -0.641799
F4    F     F_    0.773679 0.708698 0.163148 -0.513752
F5    F     F_    0.784741 0.690762 0.882373 -0.496668
C37   C     C_2   0.625916 0.734287 0.779856 0.537902
H7    H     H_    0.573988 0.793677 0.800630 0.055827
O11   O     O_2   0.677126 0.760145 0.689137 -0.443397
F6    F     F_    0.936341 0.275344 0.481926 -0.567353
F7    F     F_    0.947056 0.635400 0.278995 -0.523887
F8    F     F_    0.946591 0.627345 0.738448 -0.498593
F9    F     F_    0.053727 0.393549 0.719665 -0.558237
C38   C     C_2   0.650551 0.131497 0.422787 0.458286
H8    H     H_    0.709198 0.088379 0.441663 0.179851
O12   O     O_2   0.654265 0.230632 0.367135 -0.538806
C39   C     C_2   0.314689 0.204226 0.420443 0.388300
H9    H     H_    0.358850 0.232896 0.341271 0.157577
O13   O     O_2   0.245055 0.246563 0.421793 -0.497055

loop_
_geom_bond_atom_site_label_1
_geom_bond_atom_site_label_2
_ccdc_geom_bond_type
C17   C38   S    
C2    C7    S    
C9    C39   S    
C4    C8    S    
Cu1   O5    S    
C29   O7    A    
C5    C6    S    
C13   F1    S    
C15   C16   A    
C29   C33   S    
C10   H4    S    
C18   C19   A    
C38   O12   D    
Cu1   N2    S    
C37   O11   D    
C1    O1    A    
Cu1   Cu2   S    
C16   C17   A    
Cu1   O7    S    
Cu2   O4    S    
C7    C32   T    
Cu1   O1    S    
C9    C10   A    
C2    C34   S    
C6    C31   S    
C13   C14   A    
C12   C32   S    
Cu2   N1    S    
C18   F2    S    
C29   O8    A    
C36   O10   D    
C23   O5    A    
C30   C34   S    
C35   H5    S    
C24   C25   A    
C21   F4    S    
C39   O13   D    
C34   F9    S    
C12   O3    A    
C3    C34   S    
C25   C26   A    
C2    C31   S    
C35   O9    D    
C12   O4    A    
C19   C23   S    
C37   H7    S    
C27   N1    A    
C1    O2    A    
C28   H2    S    
C17   C18   A    
C1    C16   S    
C11   C36   S    
C4    C6    S    
C5    H3    S    
C22   C24   A    
Cu2   O2    S    
C2    C5    S    
C3    C4    S    
Cu1   O3    S    
Cu2   O8    S    
C36   H6    S    
C24   C37   S    
C23   O6    A    
C14   C19   A    
C3    F8    S    
C31   C35   S    
C39   H9    S    
C3    C5    S    
C25   N2    A    
C9    C15   A    
C27   F3    S    
C22   F5    S    
C20   H1    S    
C11   C13   A    
C30   C31   S    
C20   C26   A    
C28   N2    A    
Cu2   O6    S    
C8    C33   T    
C38   H8    S    
C30   F6    S    
C10   C11   A    
C6    F7    S    
C20   C21   A    
C27   C28   A    
C14   C15   A    
C21   C22   A    
C4    C30   S    
C26   N1    A    
