data_mof_unit_51362.cif
_audit_creation_date              2012-12-11T14:34:13-0500
_audit_creation_method            fapswitch 2.2
_symmetry_space_group_name_H-M    P1
_symmetry_Int_Tables_number       1
_space_group_crystal_system       triclinic
_cell_length_a                    13.849473
_cell_length_b                    13.978115
_cell_length_c                    27.323293
_cell_angle_alpha                 89.966046
_cell_angle_beta                  90.023923
_cell_angle_gamma                 119.620761
_cell_volume                      4598.24847572

loop_
_atom_site_label
_atom_site_type_symbol
_atom_type_description
_atom_site_fract_x
_atom_site_fract_y
_atom_site_fract_z
_atom_type_partial_charge
C1    C     C_R   0.233865 0.787185 0.568759 0.539781
C2    C     C_1   0.706996 0.862560 0.860175 -0.076825
C3    C     C_1   0.113540 0.881279 0.852521 -0.076246
C4    C     C_1   0.114397 0.230681 0.852174 -0.076592
C5    C     C_1   0.628555 0.814355 0.659059 -0.075661
C6    C     C_1   0.176819 0.819268 0.656287 -0.075946
C7    C     C_1   0.178414 0.358087 0.656316 -0.076064
C8    C     C_1   0.600931 0.796044 0.616773 -0.017328
C9    C     C_1   0.198940 0.806261 0.615150 -0.017623
C10   C     C_1   0.192834 0.393033 0.615185 -0.017712
C11   C     C_R   0.064781 0.150467 0.095992 0.572880
C12   C     C_R   0.212540 0.446484 0.568789 0.542474
C13   C     C_R   0.776695 0.883680 0.087971 0.547842
C14   C     C_R   0.116644 0.893323 0.087835 0.560340
C15   C     C_R   0.069369 0.160377 0.943241 0.537195
C16   C     C_R   0.779691 0.887141 0.950770 0.543171
C17   C     C_R   0.090717 0.929780 0.943381 0.533855
C18   C     C_R   0.616060 0.893545 0.360500 -0.129892
C19   C     C_R   0.099035 0.732735 0.362097 -0.130518
C20   C     C_R   0.261009 0.352483 0.364678 -0.130993
C21   C     C_R   0.638947 0.907181 0.310486 0.011696
C22   C     C_R   0.083501 0.743042 0.312197 0.020613
C23   C     C_R   0.552697 0.765223 0.569048 0.539540
C24   C     C_R   0.237431 0.301827 0.318502 0.023964
C25   C     C_R   0.673756 0.925124 0.208876 0.016382
C26   C     C_R   0.062786 0.758048 0.210589 0.012729
C27   C     C_R   0.196668 0.221029 0.221780 0.013127
C28   C     C_R   0.232943 0.788171 0.431587 0.546169
C29   C     C_R   0.211631 0.444485 0.431421 0.548850
C30   C     C_R   0.555086 0.766837 0.431656 0.547097
C31   C     C_R   0.649182 0.998435 0.233469 -0.044079
C32   C     C_R   0.978232 0.671116 0.237146 -0.095619
C33   C     C_R   0.296205 0.245216 0.245414 -0.108033
C34   C     C_3   0.658953 0.734275 0.790351 -0.212291
C35   C     C_R   0.631791 0.989539 0.284021 -0.104820
C36   C     C_R   0.989079 0.662915 0.287610 -0.121055
C37   C     C_R   0.316650 0.285733 0.293366 -0.122458
C38   C     C_R   0.700019 0.937970 0.158939 -0.135174
C39   C     C_R   0.051358 0.769902 0.160461 -0.126029
C40   C     C_R   0.179334 0.189898 0.172355 -0.124951
C41   C     C_R   0.722119 0.861835 0.135488 -0.028880
C42   C     C_R   0.136718 0.858605 0.135101 -0.027472
C43   C     C_R   0.082335 0.173508 0.148547 -0.030256
C44   C     C_R   0.649171 0.738082 0.361925 -0.127151
C45   C     C_3   0.243906 0.953987 0.783051 -0.212050
C46   C     C_R   0.272091 0.907189 0.359951 -0.125952
C47   C     C_R   0.077500 0.334925 0.366831 -0.126454
C48   C     C_R   0.668517 0.748229 0.311987 -0.045337
C49   C     C_R   0.261446 0.915050 0.310055 -0.046396
C50   C     C_R   0.054180 0.287651 0.320573 -0.048769
C51   C     C_R   0.662065 0.832139 0.285936 0.042532
C52   C     C_R   0.167519 0.832225 0.285802 0.046308
C53   C     C_R   0.134811 0.272416 0.295826 0.045345
C54   C     C_R   0.686336 0.670726 0.287320 -0.092004
C55   C     C_R   0.347211 0.000881 0.283764 -0.100288
C56   C     C_3   0.054708 0.310798 0.785695 -0.211868
C57   C     C_R   0.954341 0.262881 0.297424 -0.091669
C58   C     C_R   0.695933 0.674854 0.236729 0.366008
C59   C     C_R   0.341263 0.003920 0.233152 0.352226
C60   C     C_R   0.935840 0.227216 0.249097 0.371483
C61   C     C_R   0.692162 0.759499 0.210662 0.019388
C62   C     C_R   0.247011 0.923253 0.208680 0.019934
C63   C     C_R   0.015288 0.211673 0.223943 0.025353
C64   C     C_3   0.564845 0.853591 0.737486 -0.213324
C65   C     C_3   0.141876 0.733800 0.738756 -0.214943
C66   C     C_3   0.271697 0.390953 0.736983 -0.215432
C67   C     C_3   0.638717 0.721490 0.734363 -0.213225
C68   C     C_R   0.676090 0.839078 0.235157 0.003163
C69   C     C_R   0.159070 0.837672 0.235004 0.009955
C70   C     C_R   0.114832 0.233155 0.247439 0.008498
C71   C     C_R   0.708923 0.768521 0.160693 -0.096357
C72   C     C_R   0.236867 0.929716 0.158587 -0.108271
C73   C     C_R   0.999291 0.180253 0.174987 -0.100787
C74   C     C_R   0.615103 0.805132 0.385555 0.004469
C75   C     C_R   0.196269 0.812188 0.385350 0.003655
C76   C     C_R   0.182566 0.372970 0.388075 0.001971
C77   C     C_3   0.768579 0.924207 0.723002 -0.216038
C78   C     C_3   0.260163 0.938821 0.728159 -0.212911
C79   C     C_3   0.054124 0.847177 0.714156 -0.213810
C80   C     C_3   0.124321 0.200325 0.712715 -0.213575
C81   C     C_3   0.788369 0.937059 0.779089 -0.214734
C82   C     C_3   0.036673 0.862912 0.768972 -0.216371
C83   C     C_3   0.106886 0.166282 0.767329 -0.218677
C84   C     C_1   0.734396 0.873150 0.902530 -0.025932
C85   C     C_1   0.102746 0.901780 0.894270 -0.022176
C86   C     C_1   0.096000 0.199637 0.893990 -0.026067
C87   C     C_3   0.650308 0.828628 0.711995 0.072161
C88   C     C_3   0.158103 0.834202 0.707909 0.071833
C89   C     C_3   0.072018 0.345148 0.731043 -0.212952
C90   C     C_3   0.162058 0.324091 0.707836 0.072069
C91   C     C_3   0.584947 0.866183 0.793622 -0.215266
C92   C     C_3   0.123969 0.750011 0.793617 -0.212395
C93   C     C_3   0.254228 0.356383 0.791686 -0.212217
C94   C     C_3   0.684591 0.850327 0.807275 0.072704
C95   C     C_3   0.128876 0.862168 0.800951 0.071658
C96   C     C_3   0.132452 0.265518 0.800652 0.071192
Cr1   Cr    Cr6+3 0.164410 0.584450 0.499910 1.018839
Cr2   Cr    Cr6+3 0.415550 0.579960 0.499910 1.019342
Cr3   Cr    Cr6+3 0.420040 0.835590 0.499910 1.016181
Cr4   Cr    Cr6+3 0.155170 0.075460 0.019960 1.034795
Cr5   Cr    Cr6+3 0.924540 0.079710 0.019960 1.022411
Cr6   Cr    Cr6+3 0.920290 0.844830 0.019960 1.024222
F1    F     F_    0.709869 0.596800 0.213375 -0.659701
F2    F     F_    0.426752 0.086503 0.208273 -0.660957
F3    F     F_    0.843732 0.214969 0.226025 -0.662324
H1    H     H_    0.601424 0.949165 0.805329 0.113410
H2    H     H_    0.729546 0.720784 0.799766 0.111577
H3    H     H_    0.252406 0.036342 0.788975 0.104927
H4    H     H_    0.966474 0.246970 0.791813 0.109248
H5    H     H_    0.590489 0.946187 0.378820 0.124186
H6    H     H_    0.039467 0.660042 0.381845 0.121000
H7    H     H_    0.341905 0.380731 0.381098 0.122028
H8    H     H_    0.643441 0.062538 0.213616 0.210603
H9    H     H_    0.904480 0.608963 0.218808 0.192537
H10   H     H_    0.359781 0.236385 0.226253 0.183972
H11   H     H_    0.612223 0.046574 0.302352 0.121735
H12   H     H_    0.042065 0.681942 0.805950 0.115697
H13   H     H_    0.923972 0.593912 0.307341 0.120509
H14   H     H_    0.395590 0.307281 0.310284 0.120512
H15   H     H_    0.722427 0.707548 0.142164 0.198077
H16   H     H_    0.303295 0.996949 0.138483 0.193052
H17   H     H_    0.923276 0.164390 0.156696 0.181485
H18   H     H_    0.689758 0.605159 0.307053 0.129171
H19   H     H_    0.420277 0.063958 0.302268 0.125336
H20   H     H_    0.892816 0.276247 0.315951 0.131652
H21   H     H_    0.650104 0.670825 0.381342 0.129939
H22   H     H_    0.346268 0.970385 0.377793 0.132327
H23   H     H_    0.311898 0.325803 0.802109 0.113862
H24   H     H_    0.015641 0.348714 0.384804 0.133134
H25   H     H_    0.831723 0.907973 0.705584 0.108483
H26   H     H_    0.064006 0.919375 0.692831 0.109651
H27   H     H_    0.045421 0.150279 0.692280 0.110090
H28   H     H_    0.779236 0.002384 0.707364 0.111446
H29   H     H_    0.979400 0.773085 0.699774 0.112510
H30   H     H_    0.187814 0.182905 0.696570 0.111250
H31   H     H_    0.808820 0.021532 0.790367 0.109423
H32   H     H_    0.953603 0.796234 0.780938 0.109173
H33   H     H_    0.162083 0.132931 0.777332 0.107815
H34   H     H_    0.478844 0.785986 0.730113 0.108203
H35   H     H_    0.860701 0.926756 0.788516 0.101045
H36   H     H_    0.037257 0.941721 0.773782 0.099330
H37   H     H_    0.019709 0.100489 0.772977 0.101500
H38   H     H_    0.584215 0.670116 0.809757 0.114574
H39   H     H_    0.310869 0.951695 0.804691 0.116546
H40   H     H_    0.071825 0.383055 0.808804 0.118225
H41   H     H_    0.707888 0.008644 0.139082 0.137123
H42   H     H_    0.974349 0.714538 0.141966 0.143061
H43   H     H_    0.242503 0.182259 0.152113 0.146149
H44   H     H_    0.571581 0.930574 0.722312 0.112935
H45   H     H_    0.215978 0.722996 0.735052 0.107414
H46   H     H_    0.068981 0.657276 0.724929 0.112472
H47   H     H_    0.337920 0.377157 0.721229 0.112943
H48   H     H_    0.554166 0.651215 0.726974 0.111036
H49   H     H_    0.336666 0.932475 0.723443 0.111125
H50   H     H_    0.097174 0.433888 0.727967 0.110443
H51   H     H_    0.699516 0.701779 0.717019 0.112240
H52   H     H_    0.272380 0.012526 0.707371 0.112505
H53   H     H_    0.992085 0.297690 0.711008 0.113834
H54   H     H_    0.300685 0.480574 0.734064 0.107728
H55   H     H_    0.508929 0.804331 0.813077 0.112395
H56   H     H_    0.189003 0.746314 0.816159 0.115666
H57   H     H_    0.274717 0.429328 0.814948 0.116763
O1    O     O_R   0.137150 0.468200 0.553200 -0.511374
O2    O     O_R   0.140110 0.470540 0.446010 -0.522103
O3    O     O_R   0.529460 0.669570 0.446010 -0.521098
O4    O     O_R   0.330430 0.859890 0.446010 -0.524179
O5    O     O_R   0.176710 0.690910 0.450560 -0.501765
O6    O     O_R   0.309090 0.485800 0.450560 -0.500927
O7    O     O_R   0.514200 0.823290 0.450560 -0.503852
O8    O     O_3   0.333333 0.666667 0.499990 -0.263570
O9    O     O_R   0.176750 0.985260 0.074180 -0.527148
O10   O     O_R   0.014740 0.191490 0.074180 -0.486553
O11   O     O_R   0.808510 0.823250 0.074180 -0.513774
O12   O     O_R   0.531800 0.668950 0.553200 -0.511338
O13   O     O_R   0.146100 0.172630 0.068980 -0.470433
O14   O     O_R   0.827370 0.973470 0.068980 -0.516107
O15   O     O_R   0.026530 0.853900 0.068980 -0.485651
O16   O     O_3   0.000000 0.000000 0.020040 -0.292960
O17   O     O_R   0.148270 0.170520 0.969620 -0.488494
O18   O     O_R   0.829480 0.977750 0.969620 -0.520026
O19   O     O_R   0.022250 0.851730 0.969620 -0.480771
O20   O     O_R   0.331050 0.862850 0.553200 -0.509690
O21   O     O_R   0.179100 0.982980 0.967000 -0.501091
O22   O     O_R   0.017020 0.196120 0.967000 -0.479754
O23   O     O_R   0.803880 0.820900 0.967000 -0.509468
O24   O     O_R   0.173970 0.688730 0.549930 -0.500607
O25   O     O_R   0.311270 0.485240 0.549930 -0.500208
O26   O     O_R   0.514760 0.826030 0.549930 -0.498634

loop_
_geom_bond_atom_site_label_1
_geom_bond_atom_site_label_2
_ccdc_geom_bond_type
C92   H56   S    
C25   C31   A    
C65   C92   S    
C54   H18   S    
C26   C32   A    
C80   H27   S    
C55   C59   A    
C72   H16   S    
C81   H35   S    
C18   C21   A    
C2    C84   T    
C91   H1    S    
Cr4   O16   S    
C6    C9    T    
C13   C41   S    
C79   C82   S    
C89   H53   S    
C66   C90   S    
C23   O12   A    
C1    O24   A    
C27   C33   A    
Cr6   O11   S    
C13   O11   A    
C46   C49   A    
C44   H21   S    
C80   H30   S    
C71   H15   S    
C47   H24   S    
C60   C63   A    
C17   C85   S    
C34   H2    S    
C32   C36   A    
C29   O6    A    
C47   C76   A    
C82   H32   S    
C15   O17   A    
C16   O23   A    
C80   C83   S    
C57   H20   S    
C23   O26   A    
C30   C74   S    
C26   C39   A    
C89   H50   S    
C4    C86   T    
C16   O18   A    
C16   C84   S    
C8    C23   S    
C6    C88   S    
C20   C76   A    
Cr5   O10   S    
C7    C10   T    
C65   H45   S    
Cr4   O21   S    
Cr3   O26   S    
Cr3   O20   S    
Cr5   O16   S    
C28   O5    A    
C4    C96   S    
C13   O14   A    
C43   C73   A    
C40   C43   A    
C38   H41   S    
C20   C24   A    
Cr1   O1    S    
C45   H39   S    
C11   C43   S    
C45   C78   S    
C52   C69   A    
C39   C42   A    
C36   H13   S    
C64   C87   S    
C45   H3    S    
C28   O4    A    
C41   C71   A    
Cr3   O4    S    
C61   C71   A    
C58   C61   A    
C46   C75   A    
C11   O10   A    
C18   C74   A    
C20   H7    S    
Cr4   O9    S    
Cr6   O19   S    
C29   O2    A    
C25   C68   A    
C77   H28   S    
C82   H36   S    
C53   C70   A    
C10   C12   S    
C66   H54   S    
C47   C50   A    
C48   C51   A    
Cr1   O24   S    
C26   C69   A    
C34   H38   S    
C33   H10   S    
C50   C53   A    
C40   H43   S    
Cr6   O23   S    
C18   H5    S    
C46   H22   S    
C2    C94   S    
C19   C22   A    
C1    C9    S    
C38   C41   A    
Cr4   O17   S    
Cr3   O8    S    
C78   H49   S    
C57   C60   A    
C77   H25   S    
C63   C73   A    
C24   C53   A    
C49   C55   A    
C12   O25   A    
C92   C95   S    
C33   C37   A    
Cr1   O8    S    
C62   C69   A    
C67   H51   S    
C5    C87   S    
C65   H46   S    
C48   C54   A    
C92   H12   S    
C30   O7    A    
C66   H47   S    
Cr2   O25   S    
C25   C38   A    
C5    C8    T    
C17   O21   A    
C78   H52   S    
C37   H14   S    
C63   C70   A    
C77   C81   S    
C27   C40   A    
C49   C52   A    
C79   H26   S    
C15   O22   A    
Cr4   O13   S    
C42   C72   A    
C24   C37   A    
C62   C72   A    
C35   H11   S    
C44   C74   A    
Cr5   O22   S    
C91   H55   S    
C27   C70   A    
C79   C88   S    
C15   C86   S    
C21   C35   A    
C56   C89   S    
C93   C96   S    
C66   C93   S    
Cr6   O16   S    
C31   C35   A    
C3    C85   T    
C59   F2    S    
C45   C95   S    
C56   H4    S    
C21   C51   A    
C81   H31   S    
C22   C52   A    
C54   C58   A    
C78   C88   S    
C56   C96   S    
C79   H29   S    
C55   H19   S    
C59   C62   A    
C82   C95   S    
C50   C57   A    
C67   C87   S    
C34   C94   S    
C30   O3    A    
C14   O9    A    
C34   C67   S    
C83   H37   S    
C1    O20   A    
Cr3   O7    S    
C19   H6    S    
C22   C36   A    
C56   H40   S    
C11   O13   A    
C14   C42   S    
C64   H44   S    
C67   H48   S    
Cr1   O2    S    
C19   C75   A    
C93   H23   S    
Cr5   O18   S    
Cr1   O5    S    
C12   O1    A    
C81   C94   S    
C7    C90   S    
C61   C68   A    
C65   C88   S    
Cr2   O12   S    
C83   C96   S    
C51   C68   A    
C80   C90   S    
C93   H57   S    
Cr2   O3    S    
Cr2   O8    S    
C17   O19   A    
C29   C76   S    
C77   C87   S    
C73   H17   S    
C39   H42   S    
Cr6   O15   S    
C14   O15   A    
Cr5   O14   S    
C3    C95   S    
C58   F1    S    
C64   C91   S    
C32   H9    S    
C89   C90   S    
C28   C75   S    
C31   H8    S    
C83   H33   S    
Cr2   O6    S    
C60   F3    S    
C44   C48   A    
C91   C94   S    
C64   H34   S    
