data_mof_unit_51599.cif
_audit_creation_date              2012-12-11T14:34:12-0500
_audit_creation_method            fapswitch 2.2
_symmetry_space_group_name_H-M    P1
_symmetry_Int_Tables_number       1
_space_group_crystal_system       triclinic
_cell_length_a                    14.025287
_cell_length_b                    14.04082
_cell_length_c                    27.220734
_cell_angle_alpha                 90.137271
_cell_angle_beta                  89.996555
_cell_angle_gamma                 119.72516
_cell_volume                      4655.10193411

loop_
_atom_site_label
_atom_site_type_symbol
_atom_type_description
_atom_site_fract_x
_atom_site_fract_y
_atom_site_fract_z
_atom_type_partial_charge
C1    C     C_R   0.236416 0.785937 0.569784 0.538957
C2    C     C_1   0.678727 0.846038 0.865788 0.039296
C3    C     C_1   0.154236 0.833042 0.865668 0.039656
C4    C     C_1   0.166201 0.319845 0.865578 0.040113
C5    C     C_1   0.604957 0.800610 0.663050 -0.066361
C6    C     C_1   0.199341 0.805112 0.662896 -0.066246
C7    C     C_1   0.195999 0.394994 0.662969 -0.066288
C8    C     C_1   0.586464 0.788197 0.619624 -0.001136
C9    C     C_1   0.211794 0.798803 0.619496 -0.001084
C10   C     C_1   0.202090 0.413616 0.619575 -0.001348
C11   C     C_R   0.064979 0.150639 0.095686 0.568948
C12   C     C_R   0.214310 0.450572 0.569843 0.540472
C13   C     C_R   0.777850 0.884072 0.088243 0.538109
C14   C     C_R   0.115895 0.893866 0.088138 0.538821
C15   C     C_R   0.108091 0.222565 0.951921 0.592258
C16   C     C_R   0.777325 0.885657 0.951954 0.578299
C17   C     C_R   0.114448 0.891896 0.951901 0.577223
C18   C     C_R   0.620411 0.896502 0.362109 -0.132514
C19   C     C_R   0.097602 0.734450 0.363540 -0.133858
C20   C     C_R   0.262369 0.355578 0.364295 -0.134647
C21   C     C_R   0.646820 0.912130 0.312360 0.014031
C22   C     C_R   0.080685 0.746004 0.313814 0.013996
C23   C     C_R   0.549469 0.763607 0.569849 0.539702
C24   C     C_R   0.238987 0.303743 0.318263 0.013774
C25   C     C_R   0.682419 0.929456 0.210507 0.016210
C26   C     C_R   0.060266 0.761344 0.211874 0.016153
C27   C     C_R   0.198132 0.222601 0.221292 0.015970
C28   C     C_R   0.232843 0.788514 0.432017 0.548782
C29   C     C_R   0.211703 0.444542 0.431589 0.549284
C30   C     C_R   0.555554 0.767262 0.432101 0.549945
C31   C     C_R   0.656068 0.001454 0.234821 -0.138864
C32   C     C_R   0.977349 0.673586 0.238213 -0.127633
C33   C     C_R   0.299262 0.253065 0.243864 -0.123769
C34   C     C_3   0.600331 0.706785 0.796304 0.156815
C35   C     C_R   0.638044 0.992676 0.285497 -0.131628
C36   C     C_R   0.988156 0.665183 0.288846 -0.128699
C37   C     C_R   0.319705 0.293720 0.291978 -0.128369
C38   C     C_R   0.705063 0.939607 0.160077 -0.149718
C39   C     C_R   0.050320 0.772098 0.161340 -0.134406
C40   C     C_R   0.180567 0.192608 0.171578 -0.128386
C41   C     C_R   0.728634 0.864562 0.136882 -0.000310
C42   C     C_R   0.134667 0.861056 0.136156 -0.001206
C43   C     C_R   0.081949 0.171014 0.148650 -0.006077
C44   C     C_R   0.659196 0.745773 0.364560 -0.130576
C45   C     C_3   0.293387 0.893906 0.796295 0.156736
C46   C     C_R   0.265831 0.911140 0.362320 -0.127612
C47   C     C_R   0.076508 0.325991 0.368854 -0.129106
C48   C     C_R   0.683333 0.758553 0.314877 0.013248
C49   C     C_R   0.253771 0.920677 0.312503 0.013602
C50   C     C_R   0.052661 0.276179 0.322812 0.011440
C51   C     C_R   0.674504 0.840236 0.288329 0.064109
C52   C     C_R   0.162006 0.836884 0.287810 0.063355
C53   C     C_R   0.134850 0.267228 0.296814 0.062744
C54   C     C_R   0.707591 0.685167 0.290696 -0.126919
C55   C     C_R   0.336557 0.008777 0.286513 -0.127168
C56   C     C_3   0.106906 0.400377 0.796348 0.156839
C57   C     C_R   0.950217 0.242156 0.301016 -0.128702
C58   C     C_R   0.718979 0.689864 0.240021 -0.127592
C59   C     C_R   0.330489 0.011998 0.235744 -0.130064
C60   C     C_R   0.931189 0.204931 0.252644 -0.122372
C61   C     C_R   0.709435 0.770020 0.213469 0.010375
C62   C     C_R   0.239688 0.929279 0.210895 0.013484
C63   C     C_R   0.013198 0.198741 0.225919 0.015872
C64   C     C_3   0.545255 0.847919 0.741500 -0.256178
C65   C     C_3   0.153145 0.698655 0.741108 -0.256279
C66   C     C_3   0.302268 0.452877 0.741610 -0.255980
C67   C     C_3   0.597782 0.699845 0.739232 -0.172708
C68   C     C_R   0.689266 0.847012 0.237456 0.065254
C69   C     C_R   0.153752 0.842489 0.236861 0.063686
C70   C     C_R   0.114741 0.227560 0.248284 0.062015
C71   C     C_R   0.723280 0.776142 0.163280 -0.122097
C72   C     C_R   0.231683 0.934735 0.160556 -0.131336
C73   C     C_R   0.997273 0.169742 0.176440 -0.129112
C74   C     C_R   0.619437 0.808541 0.387218 -0.002539
C75   C     C_R   0.193787 0.814010 0.386900 -0.002716
C76   C     C_R   0.182726 0.371244 0.388670 -0.003975
C77   C     C_3   0.741235 0.896640 0.728061 -0.183962
C78   C     C_3   0.299984 0.898565 0.739236 -0.172470
C79   C     C_3   0.102464 0.844794 0.727980 -0.184449
C80   C     C_3   0.154835 0.257993 0.727554 -0.185008
C81   C     C_3   0.760253 0.903161 0.784171 0.172213
C82   C     C_3   0.096263 0.857389 0.784121 0.172284
C83   C     C_3   0.141400 0.238485 0.783594 0.171862
C84   C     C_1   0.717752 0.864251 0.906567 0.065901
C85   C     C_1   0.135969 0.853748 0.906483 0.066569
C86   C     C_1   0.145624 0.281297 0.906394 0.066163
C87   C     C_3   0.621488 0.810921 0.716575 -0.013966
C88   C     C_3   0.189062 0.811318 0.716415 -0.013829
C89   C     C_3   0.102718 0.403152 0.739283 -0.172503
C90   C     C_3   0.189484 0.378096 0.716464 -0.013625
C91   C     C_3   0.569391 0.867087 0.797689 -0.308879
C92   C     C_3   0.133913 0.703426 0.797291 -0.308871
C93   C     C_3   0.296819 0.427897 0.797684 -0.308230
C94   C     C_3   0.652154 0.829514 0.812798 0.054109
C95   C     C_3   0.170700 0.823148 0.812659 0.054100
C96   C     C_3   0.176558 0.346635 0.812619 0.054011
Cl1   Cl    Cl    0.663370 0.633954 0.822107 -0.542398
Cl2   Cl    Cl    0.365705 0.029001 0.822492 -0.544040
Cl3   Cl    Cl    0.971543 0.339486 0.822125 -0.541691
Cl4   Cl    Cl    0.863806 0.869411 0.798584 -0.499254
Cl5   Cl    Cl    0.129442 0.994173 0.798753 -0.499479
Cl6   Cl    Cl    0.003843 0.136665 0.797456 -0.500336
Cr1   Cr    Cr6+3 0.164410 0.584450 0.499910 1.023184
Cr2   Cr    Cr6+3 0.415550 0.579960 0.499910 1.023972
Cr3   Cr    Cr6+3 0.420040 0.835590 0.499910 1.021305
Cr4   Cr    Cr6+3 0.155170 0.075460 0.019960 1.056815
Cr5   Cr    Cr6+3 0.924540 0.079710 0.019960 1.054645
Cr6   Cr    Cr6+3 0.920290 0.844830 0.019960 1.052053
H1    H     H_    0.603080 0.955494 0.806516 0.165352
H2    H     H_    0.708138 0.007052 0.139472 0.106846
H3    H     H_    0.975477 0.715190 0.142281 0.115796
H4    H     H_    0.245041 0.190707 0.150371 0.124303
H5    H     H_    0.591318 0.946497 0.379880 0.128109
H6    H     H_    0.040463 0.660387 0.382824 0.124348
H7    H     H_    0.344118 0.389095 0.379664 0.125929
H8    H     H_    0.649392 0.064372 0.214680 0.099775
H9    H     H_    0.905208 0.610701 0.219553 0.099646
H10   H     H_    0.363907 0.249252 0.223718 0.101923
H11   H     H_    0.615967 0.047873 0.303557 0.100302
H12   H     H_    0.045503 0.648884 0.805960 0.165775
H13   H     H_    0.924845 0.595149 0.308357 0.101652
H14   H     H_    0.399769 0.320535 0.308047 0.102788
H15   H     H_    0.739454 0.716369 0.145471 0.131137
H16   H     H_    0.297467 0.002963 0.141012 0.125767
H17   H     H_    0.920150 0.150084 0.158939 0.119215
H18   H     H_    0.735446 0.631062 0.221585 0.099063
H19   H     H_    0.396186 0.079582 0.215962 0.095961
H20   H     H_    0.854085 0.185332 0.235474 0.111662
H21   H     H_    0.714101 0.622002 0.310733 0.101909
H22   H     H_    0.407670 0.073087 0.305250 0.098061
H23   H     H_    0.350568 0.392603 0.806211 0.165495
H24   H     H_    0.886568 0.248978 0.320597 0.104235
H25   H     H_    0.557149 0.924855 0.724292 0.149063
H26   H     H_    0.076382 0.633756 0.723744 0.148947
H27   H     H_    0.367083 0.440394 0.724251 0.149384
H28   H     H_    0.660793 0.679506 0.384262 0.129553
H29   H     H_    0.338600 0.974631 0.380481 0.132633
H30   H     H_    0.013786 0.335655 0.387784 0.132080
H31   H     H_    0.797953 0.875255 0.708592 0.170435
H32   H     H_    0.122928 0.922386 0.708611 0.170367
H33   H     H_    0.077235 0.202249 0.707793 0.170267
H34   H     H_    0.458183 0.783352 0.735863 0.115930
H35   H     H_    0.759212 0.978395 0.714117 0.122451
H36   H     H_    0.020767 0.781041 0.713993 0.121739
H37   H     H_    0.218333 0.239102 0.713657 0.121210
H38   H     H_    0.791012 0.989297 0.795893 0.196758
H39   H     H_    0.010221 0.802241 0.795785 0.196954
H40   H     H_    0.195798 0.206264 0.795243 0.197369
H41   H     H_    0.516452 0.633393 0.726876 0.091597
H42   H     H_    0.367024 0.884262 0.726750 0.091804
H43   H     H_    0.118000 0.484777 0.727148 0.091405
H44   H     H_    0.659829 0.678554 0.725750 0.185873
H45   H     H_    0.218371 0.676547 0.735447 0.115934
H46   H     H_    0.320275 0.981461 0.726010 0.186004
H47   H     H_    0.019602 0.341996 0.725705 0.186512
H48   H     H_    0.514198 0.661890 0.809763 0.110422
H49   H     H_    0.338864 0.852827 0.809569 0.110407
H50   H     H_    0.148695 0.486395 0.810009 0.110380
H51   H     H_    0.325017 0.540200 0.736404 0.115644
H52   H     H_    0.491733 0.820536 0.818706 0.114321
H53   H     H_    0.180980 0.672438 0.818255 0.114406
H54   H     H_    0.328589 0.505405 0.819039 0.115624
O1    O     O_R   0.137150 0.468200 0.553200 -0.507766
O2    O     O_R   0.140110 0.470540 0.446010 -0.520173
O3    O     O_R   0.529460 0.669570 0.446010 -0.520497
O4    O     O_R   0.330430 0.859890 0.446010 -0.523487
O5    O     O_R   0.176710 0.690910 0.450560 -0.501292
O6    O     O_R   0.309090 0.485800 0.450560 -0.501039
O7    O     O_R   0.514200 0.823290 0.450560 -0.504215
O8    O     O_3   0.333333 0.666667 0.499990 -0.273824
O9    O     O_R   0.176750 0.985260 0.074180 -0.538023
O10   O     O_R   0.014740 0.191490 0.074180 -0.509412
O11   O     O_R   0.808510 0.823250 0.074180 -0.524573
O12   O     O_R   0.531800 0.668950 0.553200 -0.508469
O13   O     O_R   0.146100 0.172630 0.068980 -0.499250
O14   O     O_R   0.827370 0.973470 0.068980 -0.527116
O15   O     O_R   0.026530 0.853900 0.068980 -0.505939
O16   O     O_3   1.000000 1.000000 0.020040 -0.257150
O17   O     O_R   0.148270 0.170520 0.969620 -0.480377
O18   O     O_R   0.829480 0.977750 0.969620 -0.486716
O19   O     O_R   0.022250 0.851730 0.969620 -0.483881
O20   O     O_R   0.331050 0.862850 0.553200 -0.507246
O21   O     O_R   0.179100 0.982980 0.967000 -0.479896
O22   O     O_R   0.017020 0.196120 0.967000 -0.474590
O23   O     O_R   0.803880 0.820900 0.967000 -0.477441
O24   O     O_R   0.173970 0.688730 0.549930 -0.499753
O25   O     O_R   0.311270 0.485240 0.549930 -0.499553
O26   O     O_R   0.514760 0.826030 0.549930 -0.499037

loop_
_geom_bond_atom_site_label_1
_geom_bond_atom_site_label_2
_ccdc_geom_bond_type
C92   H53   S    
C25   C31   A    
C65   C92   S    
C26   C32   A    
C16   O18   A    
C83   Cl6   S    
C55   C59   A    
Cr5   O18   S    
C13   O14   A    
C18   C21   A    
Cr4   O9    S    
Cr4   O17   S    
C57   H24   S    
C35   H11   S    
C32   H9    S    
C34   Cl1   S    
C6    C9    T    
C13   C41   S    
C82   H39   S    
C40   H4    S    
C23   O12   A    
C1    O24   A    
C27   C33   A    
C55   H22   S    
C13   O11   A    
Cr1   O24   S    
C46   C49   A    
Cr1   O2    S    
Cr3   O7    S    
Cr6   O19   S    
C60   C63   A    
C17   C85   S    
C32   C36   A    
C29   O6    A    
C71   H15   S    
C47   C76   A    
C15   O17   A    
C45   Cl2   S    
C23   O26   A    
C30   C74   S    
C26   C39   A    
C89   H47   S    
C4    C86   T    
Cr5   O14   S    
C59   H19   S    
C16   C84   S    
C8    C23   S    
C6    C88   S    
Cr3   O4    S    
C20   C76   A    
C7    C10   T    
C54   H21   S    
C46   C75   A    
C65   H45   S    
C52   C69   A    
C28   O5    A    
Cr2   O3    S    
C4    C96   S    
C2    C84   T    
C43   C73   A    
C40   C43   A    
C20   C24   A    
Cr1   O8    S    
C56   H50   S    
Cr4   O13   S    
C11   C43   S    
C45   C78   S    
C77   C81   S    
Cr3   O20   S    
C38   H2    S    
C64   C87   S    
C65   H26   S    
C28   O4    A    
C41   C71   A    
C61   C71   A    
C58   C61   A    
C39   H3    S    
C79   H32   S    
C11   O10   A    
C18   C74   A    
C15   O22   A    
C29   O2    A    
C25   C68   A    
C80   C83   S    
C53   C70   A    
C10   C12   S    
C18   H5    S    
C66   H51   S    
C39   C42   A    
C79   C82   S    
Cr5   O10   S    
C48   C51   A    
C67   H41   S    
C50   C53   A    
Cr3   O8    S    
Cr6   O16   S    
C1    C9    S    
C77   H31   S    
Cr6   O23   S    
C2    C94   S    
C19   C22   A    
C45   H49   S    
C38   C41   A    
C66   C90   S    
C29   C76   S    
C78   H46   S    
C57   C60   A    
Cr2   O12   S    
C63   C73   A    
C19   H6    S    
C24   C53   A    
C49   C55   A    
C12   O25   A    
C92   C95   S    
C33   C37   A    
C83   H40   S    
C62   C69   A    
C67   C87   S    
C48   C54   A    
C77   H35   S    
C30   O7    A    
C25   C38   A    
Cr2   O6    S    
C17   O21   A    
C79   H36   S    
C63   C70   A    
C60   H20   S    
C27   C40   A    
C49   C52   A    
Cr6   O11   S    
C42   C72   A    
C24   C37   A    
Cr3   O26   S    
C62   C72   A    
C81   H38   S    
Cr1   O5    S    
C44   C74   A    
C66   H27   S    
C91   H52   S    
C27   C70   A    
C79   C88   S    
C66   C93   S    
C80   H37   S    
C58   H18   S    
C93   C96   S    
C46   H29   S    
Cr5   O16   S    
C31   C35   A    
C3    C85   T    
C5    C8    T    
C45   C95   S    
C31   H8    S    
C21   C51   A    
C78   H42   S    
C65   C88   S    
Cr2   O8    S    
C54   C58   A    
C78   C88   S    
C56   C96   S    
Cr2   O25   S    
C64   H25   S    
C56   C89   S    
C59   C62   A    
C82   C95   S    
C67   H44   S    
C50   C57   A    
C11   O13   A    
C34   C94   S    
C30   O3    A    
C14   O9    A    
C34   C67   S    
C20   H7    S    
C15   C86   S    
C1    O20   A    
C44   H28   S    
C21   C35   A    
C81   Cl4   S    
C34   H48   S    
C22   C36   A    
Cr5   O22   S    
Cr1   O1    S    
C56   Cl3   S    
C14   C42   S    
C47   C50   A    
C16   O23   A    
C91   H1    S    
C19   C75   A    
C36   H13   S    
C92   H12   S    
C12   O1    A    
C81   C94   S    
C7    C90   S    
C61   C68   A    
C64   H34   S    
C93   H54   S    
C73   H17   S    
C83   C96   S    
C47   H30   S    
C82   Cl5   S    
Cr6   O15   S    
C22   C52   A    
C51   C68   A    
C80   C90   S    
Cr4   O21   S    
C14   O15   A    
C37   H14   S    
C5    C87   S    
C17   O19   A    
C33   H10   S    
C77   C87   S    
C80   H33   S    
C89   H43   S    
C26   C69   A    
C3    C95   S    
C64   C91   S    
C89   C90   S    
C93   H23   S    
C28   C75   S    
Cr4   O16   S    
C72   H16   S    
C44   C48   A    
C91   C94   S    
