data_mof_unit_42563.cif
_audit_creation_date              2012-12-11T14:42:25-0500
_audit_creation_method            fapswitch 2.2
_symmetry_space_group_name_H-M    P1
_symmetry_Int_Tables_number       1
_space_group_crystal_system       triclinic
_cell_length_a                    19.067802
_cell_length_b                    10.958831
_cell_length_c                    18.837161
_cell_angle_alpha                 89.802788
_cell_angle_beta                  89.619228
_cell_angle_gamma                 89.383564
_cell_volume                      3935.89151269

loop_
_atom_site_label
_atom_site_type_symbol
_atom_type_description
_atom_site_fract_x
_atom_site_fract_y
_atom_site_fract_z
_atom_type_partial_charge
C1    C     C_R   0.726625 0.954561 0.853545 0.575979
C2    C     C_R   0.273445 0.954595 0.146378 0.584569
C3    C     C_R   0.226625 0.454561 0.853545 0.575977
C4    C     C_R   0.773446 0.454596 0.146378 0.584569
C5    C     C_R   0.692723 0.444229 0.043107 0.130269
C6    C     C_R   0.307089 0.443897 0.957026 0.129077
C7    C     C_R   0.192723 0.944229 0.043107 0.130268
C8    C     C_R   0.807089 0.943899 0.957027 0.129074
C9    C     C_R   0.757733 0.414899 0.074055 -0.045665
C10   C     C_R   0.242706 0.413948 0.925826 -0.044641
C11   C     C_R   0.257733 0.914897 0.074055 -0.045665
C12   C     C_R   0.742706 0.913950 0.925826 -0.044641
C13   C     C_R   0.814192 0.374494 0.030642 0.123935
C14   C     C_R   0.186617 0.373117 0.969042 0.124828
C15   C     C_R   0.314192 0.874490 0.030643 0.123936
C16   C     C_R   0.686617 0.873119 0.969043 0.124835
C17   C     C_R   0.810867 0.390889 0.957896 0.140943
C18   C     C_R   0.189123 0.390179 0.041659 0.140267
C19   C     C_R   0.310867 0.890884 0.957897 0.140943
C20   C     C_R   0.689122 0.890181 0.041659 0.140271
C21   C     C_R   0.745273 0.410638 0.925866 -0.036883
C22   C     C_R   0.254209 0.410640 0.074038 -0.037806
C23   C     C_R   0.245273 0.910636 0.925867 -0.036884
C24   C     C_R   0.754208 0.910642 0.074039 -0.037807
C25   C     C_R   0.553879 0.277328 0.516461 0.179469
C26   C     C_R   0.548058 0.263700 0.443550 0.177957
C27   C     C_R   0.053879 0.777328 0.516461 0.179469
C28   C     C_R   0.048058 0.763700 0.443550 0.177957
C29   C     C_R   0.513290 0.161893 0.417410 0.000352
C30   C     C_R   0.542279 0.175623 0.561375 0.004170
C31   C     C_R   0.013290 0.661893 0.417410 0.000352
C32   C     C_R   0.042279 0.675623 0.561375 0.004170
C33   C     C_R   0.501595 0.060673 0.461172 -0.187203
C34   C     C_R   0.517487 0.066616 0.532564 -0.183744
C35   C     C_R   0.001595 0.560673 0.461172 -0.187203
C36   C     C_R   0.017487 0.566616 0.532564 -0.183744
C37   C     C_R   0.818706 0.378313 0.543035 -0.133654
C38   C     C_R   0.186161 0.419001 0.454797 -0.096307
C39   C     C_R   0.318706 0.878313 0.543035 -0.133655
C40   C     C_R   0.686161 0.919001 0.454797 -0.096307
C41   C     C_R   0.828272 0.408140 0.472581 -0.170843
C42   C     C_R   0.179563 0.426988 0.527531 -0.145387
C43   C     C_R   0.328272 0.908140 0.472581 -0.170843
C44   C     C_R   0.679563 0.926988 0.527531 -0.145387
C45   C     C_R   0.529599 0.178330 0.850495 0.581843
C46   C     C_R   0.470357 0.177939 0.149465 0.574927
C47   C     C_R   0.029598 0.678330 0.850495 0.581841
C48   C     C_R   0.970357 0.677939 0.149465 0.574925
C49   C     C_R   0.780049 0.484389 0.437500 0.027777
C50   C     C_R   0.238973 0.435504 0.571031 0.030327
C51   C     C_R   0.280049 0.984389 0.437500 0.027777
C52   C     C_R   0.738973 0.935504 0.571031 0.030327
C53   C     C_R   0.726620 0.542868 0.478286 0.246930
C54   C     C_R   0.306031 0.437274 0.540376 0.211627
C55   C     C_R   0.226620 0.042868 0.478286 0.246930
C56   C     C_R   0.806031 0.937274 0.540376 0.211627
C57   C     C_R   0.720270 0.517449 0.550771 -0.065296
C58   C     C_R   0.312669 0.424419 0.467230 -0.094504
C59   C     C_R   0.220270 0.017449 0.550771 -0.065296
C60   C     C_R   0.812669 0.924419 0.467230 -0.094504
C61   C     C_R   0.761320 0.426033 0.581286 -0.012060
C62   C     C_R   0.252665 0.411019 0.424638 -0.001703
C63   C     C_R   0.261320 0.926033 0.581286 -0.012060
C64   C     C_R   0.752665 0.911019 0.424638 -0.001703
C65   C     C_R   0.737409 0.364378 0.853268 0.574525
C66   C     C_R   0.262394 0.364155 0.146757 0.570399
C67   C     C_R   0.237409 0.864377 0.853268 0.574525
C68   C     C_R   0.762394 0.864155 0.146757 0.570399
C69   C     C_R   0.726511 0.958923 0.645965 0.566304
C70   C     C_R   0.290158 0.001969 0.360303 0.566297
C71   C     C_R   0.226511 0.458923 0.645965 0.566304
C72   C     C_R   0.790158 0.501969 0.360303 0.566297
C73   C     C_R   0.560224 0.180785 0.636466 0.555879
C74   C     C_R   0.473085 0.174851 0.352818 0.560680
C75   C     C_R   0.060224 0.680785 0.636466 0.555879
C76   C     C_R   0.973085 0.674851 0.352818 0.560680
C77   C     C_R   0.741327 0.366168 0.647971 0.538671
C78   C     C_R   0.260869 0.362593 0.353463 0.542968
C79   C     C_R   0.241327 0.866168 0.647971 0.538671
C80   C     C_R   0.760869 0.862593 0.353463 0.542968
C81   C     C_2   0.496388 0.171849 0.920141 -0.083747
C82   C     C_2   0.503235 0.170820 0.079640 -0.081176
C83   C     C_2   0.996387 0.671846 0.920141 -0.083737
C84   C     C_2   0.003237 0.670820 0.079641 -0.081180
C85   C     C_2   0.488413 0.077951 0.036907 -0.118929
C86   C     C_2   0.510042 0.077379 0.962787 -0.120252
C87   C     C_2   0.988417 0.577954 0.036907 -0.118931
C88   C     C_2   0.010049 0.577384 0.962789 -0.120247
C89   C     C_R   0.685674 0.438816 0.969153 0.134195
C90   C     C_R   0.313668 0.439203 0.031029 0.132941
C91   C     C_R   0.185674 0.938815 0.969153 0.134194
C92   C     C_R   0.813668 0.939205 0.031030 0.132940
Cr1   Cr    Cr6+3 0.769270 0.163730 0.750710 1.152664
Cr2   Cr    Cr6+3 0.230730 0.163730 0.249290 1.178904
Cr3   Cr    Cr6+3 0.269270 0.663730 0.750710 1.152664
Cr4   Cr    Cr6+3 0.730730 0.663730 0.249290 1.178904
Cr5   Cr    Cr6+3 0.612620 0.009790 0.748780 1.096810
Cr6   Cr    Cr6+3 0.387380 0.009790 0.251220 1.093228
Cr7   Cr    Cr6+3 0.112620 0.509790 0.748780 1.096812
Cr8   Cr    Cr6+3 0.887380 0.509790 0.251220 1.093229
Cr9   Cr    Cr6+3 0.614160 0.322500 0.747710 1.149997
Cr10  Cr    Cr6+3 0.385840 0.322500 0.252290 1.131055
Cr11  Cr    Cr6+3 0.114160 0.822500 0.747710 1.149996
Cr12  Cr    Cr6+3 0.885840 0.822500 0.252290 1.131054
H1    H     H_    0.460863 0.999495 0.056823 0.233499
H2    H     H_    0.536610 0.997005 0.942894 0.235632
H3    H     H_    0.960864 0.499500 0.056820 0.233499
H4    H     H_    0.036631 0.497021 0.942900 0.235617
H5    H     H_    0.871693 0.364853 0.444824 0.158695
H6    H     H_    0.127437 0.425521 0.549936 0.156885
H7    H     H_    0.371693 0.864853 0.444824 0.158695
H8    H     H_    0.627437 0.925521 0.549936 0.156885
H9    H     H_    0.680217 0.562960 0.582175 0.191074
H10   H     H_    0.364917 0.417164 0.444545 0.187212
H11   H     H_    0.180217 0.062960 0.582175 0.191074
H12   H     H_    0.864917 0.917163 0.444545 0.187212
H13   H     H_    0.531409 0.249308 0.059274 0.176560
H14   H     H_    0.469033 0.251875 0.940630 0.177915
H15   H     H_    0.031412 0.749308 0.059277 0.176563
H16   H     H_    0.969022 0.751864 0.940626 0.177909
H17   H     H_    0.476751 0.979614 0.441172 0.153180
H18   H     H_    0.507006 0.987766 0.565637 0.163587
H19   H     H_    0.976751 0.479614 0.441172 0.153180
H20   H     H_    0.007006 0.487766 0.565637 0.163587
H21   H     H_    0.854179 0.311237 0.565860 0.184085
H22   H     H_    0.139524 0.409347 0.422805 0.178611
H23   H     H_    0.354179 0.811237 0.565860 0.184085
H24   H     H_    0.639524 0.909347 0.422805 0.178611
O1    O     O_R   0.784320 0.290430 0.830510 -0.446603
O2    O     O_R   0.215680 0.290430 0.169490 -0.450040
O3    O     O_R   0.284320 0.790430 0.830510 -0.446603
O4    O     O_R   0.715680 0.790430 0.169490 -0.450040
O5    O     O_R   0.554640 0.080370 0.673500 -0.510023
O6    O     O_R   0.445360 0.080370 0.326500 -0.532952
O7    O     O_R   0.054640 0.580370 0.673500 -0.510023
O8    O     O_R   0.945360 0.580370 0.326500 -0.532952
O9    O     O_R   0.543920 0.282180 0.666790 -0.418686
O10   O     O_R   0.456080 0.282180 0.333210 -0.465296
O11   O     O_R   0.043920 0.782180 0.666790 -0.418686
O12   O     O_R   0.956080 0.782180 0.333210 -0.465296
O13   O     O_R   0.679040 0.374160 0.674430 -0.499137
O14   O     O_R   0.320960 0.374160 0.325570 -0.515671
O15   O     O_R   0.179040 0.874160 0.674430 -0.499137
O16   O     O_R   0.820960 0.874160 0.325570 -0.515671
O17   O     O_3   0.665350 0.165340 0.749070 -0.330361
O18   O     O_3   0.334650 0.165340 0.250930 -0.332933
O19   O     O_3   0.165350 0.665340 0.749070 -0.330362
O20   O     O_3   0.834650 0.665340 0.250930 -0.332933
O21   O     O_R   0.762640 0.040960 0.825200 -0.454956
O22   O     O_R   0.237360 0.040960 0.174800 -0.454360
O23   O     O_R   0.262640 0.540960 0.825200 -0.454955
O24   O     O_R   0.737360 0.540960 0.174800 -0.454360
O25   O     O_R   0.667400 0.923970 0.829950 -0.468906
O26   O     O_R   0.332600 0.923970 0.170050 -0.467758
O27   O     O_R   0.167400 0.423970 0.829950 -0.468908
O28   O     O_R   0.832600 0.423970 0.170050 -0.467757
O29   O     O_R   0.553960 0.081340 0.821780 -0.479686
O30   O     O_R   0.446040 0.081340 0.178220 -0.486336
O31   O     O_R   0.053960 0.581340 0.821780 -0.479684
O32   O     O_R   0.946040 0.581340 0.178220 -0.486335
O33   O     O_R   0.543180 0.283240 0.826740 -0.442607
O34   O     O_R   0.456820 0.283240 0.173260 -0.441048
O35   O     O_R   0.043180 0.783240 0.826740 -0.442606
O36   O     O_R   0.956820 0.783240 0.173260 -0.441049
O37   O     O_R   0.678360 0.375140 0.822710 -0.471184
O38   O     O_R   0.321640 0.375140 0.177290 -0.467176
O39   O     O_R   0.178360 0.875140 0.822710 -0.471184
O40   O     O_R   0.821640 0.875140 0.177290 -0.467176
O41   O     O_R   0.785050 0.289380 0.670560 -0.503510
O42   O     O_R   0.214950 0.289380 0.329440 -0.458832
O43   O     O_R   0.285050 0.789380 0.670560 -0.503510
O44   O     O_R   0.714950 0.789380 0.329440 -0.458832
O45   O     O_R   0.763320 0.039990 0.676930 -0.449435
O46   O     O_R   0.236680 0.039990 0.323070 -0.408012
O47   O     O_R   0.263320 0.539990 0.676930 -0.449435
O48   O     O_R   0.736680 0.539990 0.323070 -0.408011
O49   O     O_R   0.668130 0.922920 0.670000 -0.528215
O50   O     O_R   0.331870 0.922920 0.330000 -0.513080
O51   O     O_R   0.168130 0.422920 0.670000 -0.528215
O52   O     O_R   0.831870 0.422920 0.330000 -0.513080
Cl1   Cl    Cl    0.661606 0.638092 0.442264 -0.517675
Cl2   Cl    Cl    0.382327 0.445158 0.592012 -0.506735
Cl3   Cl    Cl    0.161606 0.138092 0.442264 -0.517675
Cl4   Cl    Cl    0.882327 0.945158 0.592012 -0.506735
Br1   Br    Br    0.593179 0.469508 0.931437 -0.270036
Br2   Br    Br    0.405334 0.471877 0.069159 -0.267478
Br3   Br    Br    0.093178 0.969507 0.931438 -0.270032
Br4   Br    Br    0.905333 0.971881 0.069160 -0.267474
Br5   Br    Br    0.611129 0.479153 0.102023 -0.289190
Br6   Br    Br    0.388644 0.479146 0.898550 -0.294285
Br7   Br    Br    0.111129 0.979155 0.102023 -0.289188
Br8   Br    Br    0.888644 0.979149 0.898550 -0.294285
Br9   Br    Br    0.893748 0.281931 0.066350 -0.272030
Br10  Br    Br    0.108836 0.279400 0.933307 -0.276992
Br11  Br    Br    0.393746 0.781925 0.066352 -0.272035
Br12  Br    Br    0.608836 0.779401 0.933308 -0.277000
Br13  Br    Br    0.897580 0.382759 0.903291 -0.357227
Br14  Br    Br    0.102038 0.381654 0.095528 -0.358920
Br15  Br    Br    0.397580 0.882749 0.903293 -0.357235
Br16  Br    Br    0.602038 0.881658 0.095529 -0.358924
Br17  Br    Br    0.559772 0.441639 0.550866 -0.333427
Br18  Br    Br    0.586135 0.384476 0.379565 -0.327089
Br19  Br    Br    0.059771 0.941639 0.550866 -0.333427
Br20  Br    Br    0.086135 0.884476 0.379565 -0.327090

loop_
_geom_bond_atom_site_label_1
_geom_bond_atom_site_label_2
_ccdc_geom_bond_type
Cr2   O18   S    
C33   H17   S    
C87   C88   S    
Cr6   O26   S    
Cr5   O17   S    
C58   C62   A    
Cr1   O45   S    
C55   C59   A    
Cr12  O20   S    
C5    C89   A    
Cr1   O21   S    
C35   C36   A    
C84   C87   D    
Cr5   O5    S    
Cr3   O47   S    
C32   C75   S    
C76   O8    A    
Cr11  O19   S    
C63   C79   S    
C85   C86   S    
C7    C11   A    
C48   O32   A    
Cr9   O17   S    
C5    C9    A    
Cr2   O2    S    
C43   H7    S    
C2    O22   A    
C27   Br19  S    
C32   C36   A    
C36   H20   S    
C8    Br8   S    
C38   C42   A    
C25   Br17  S    
C78   O14   A    
Cr3   O19   S    
C88   H4    S    
Cr1   O1    S    
C56   C60   A    
C79   O43   A    
C40   H24   S    
C65   O37   A    
C78   O42   A    
Cr10  O10   S    
C71   O51   A    
C68   O4    A    
C59   H11   S    
C9    C13   A    
C22   C66   S    
C45   O33   A    
C52   C69   S    
C69   O49   A    
C46   C82   S    
Cr3   O23   S    
C11   C15   A    
C79   O15   A    
Cr6   O30   S    
C29   C33   A    
C61   C77   S    
C80   O16   A    
C49   C72   S    
Cr7   O27   S    
C18   Br14  S    
C54   Cl2   S    
Cr1   O17   S    
C8    C92   A    
C51   C70   S    
Cr5   O25   S    
C8    C12   A    
Cr6   O50   S    
C56   Cl4   S    
C81   C86   D    
Cr10  O34   S    
Cr4   O4    S    
C47   O35   A    
Cr8   O28   S    
C83   C88   D    
C14   Br10  S    
C7    C91   A    
C34   H18   S    
C13   Br9   S    
Cr3   O3    S    
C64   C80   S    
C7    Br7   S    
C86   H2    S    
C1    C12   S    
C69   O45   A    
C85   H1    S    
C2    C11   S    
C24   C92   A    
C41   C49   A    
C38   H22   S    
C37   H21   S    
C76   O12   A    
C39   C43   A    
C4    O24   A    
C45   C81   S    
C39   H23   S    
C30   C34   A    
C52   C56   A    
C28   Br20  S    
C12   C16   A    
C45   O29   A    
C19   Br15  S    
C10   C14   A    
C30   C73   S    
Cr9   O9    S    
C19   C23   A    
C70   O50   A    
C47   O31   A    
C29   C74   S    
Cr6   O18   S    
C51   C55   A    
C25   C26   A    
C6    C90   A    
C81   H14   S    
C17   C21   A    
C48   C84   S    
Cr4   O20   S    
Cr5   O29   S    
C83   H16   S    
C15   C19   A    
C50   C71   S    
Cr7   O51   S    
C16   Br12  S    
C53   Cl1   S    
C65   O1    A    
Cr12  O40   S    
C46   O30   A    
C74   O10   A    
Cr8   O32   S    
Cr5   O49   S    
C16   C20   A    
Cr1   O41   S    
C6    Br6   S    
Cr12  O16   S    
C33   C34   A    
C22   C90   A    
Cr7   O7    S    
C50   C54   A    
Cr11  O39   S    
C17   Br13  S    
C70   O46   A    
C55   Cl3   S    
C42   C50   A    
C44   H8    S    
C77   O41   A    
C4    O28   A    
Cr2   O46   S    
C47   C83   S    
Cr4   O44   S    
Cr11  O11   S    
C23   C91   A    
C59   C63   A    
C60   H12   S    
Cr7   O31   S    
C3    O27   A    
C80   O44   A    
Cr8   O52   S    
C68   O40   A    
C39   C63   A    
C37   C61   A    
C54   C58   A    
C67   O39   A    
C25   C30   A    
C91   Br3   S    
C53   C57   A    
Cr4   O48   S    
C21   C65   S    
C27   C32   A    
C18   C22   A    
Cr9   O13   S    
C14   C18   A    
C62   C78   S    
C28   C31   A    
C67   O3    A    
C21   C89   A    
C66   O38   A    
C73   O5    A    
C3    O23   A    
Cr11  O15   S    
C44   C52   A    
C6    C10   A    
C57   H9    S    
C92   Br4   S    
C57   C61   A    
C48   O36   A    
Cr2   O22   S    
C82   C85   D    
C90   Br2   S    
Cr6   O6    S    
Cr11  O35   S    
C15   Br11  S    
C40   C64   A    
C13   C17   A    
C60   C64   A    
C89   Br1   S    
C72   O52   A    
C35   H19   S    
C42   H6    S    
Cr7   O19   S    
C3    C10   S    
C75   O11   A    
Cr9   O37   S    
C43   C51   A    
Cr12  O36   S    
C2    O26   A    
C73   O9    A    
Cr8   O20   S    
C84   H15   S    
C31   C76   S    
C74   O6    A    
C31   C35   A    
Cr9   O33   S    
C71   O47   A    
C75   O7    A    
Cr10  O18   S    
C72   O48   A    
C37   C41   A    
C77   O13   A    
C1    O25   A    
C49   C53   A    
C23   C67   S    
C24   C68   S    
C5    Br5   S    
Cr12  O12   S    
C40   C44   A    
C87   H3    S    
C26   Br18  S    
C26   C29   A    
Cr10  O38   S    
C46   O34   A    
C27   C28   A    
C58   H10   S    
C20   Br16  S    
C1    O21   A    
C41   H5    S    
Cr10  O14   S    
C82   H13   S    
C38   C62   A    
C4    C9    S    
Cr3   O43   S    
C20   C24   A    
Cr2   O42   S    
Cr8   O8    S    
C66   O2    A    
Cr4   O24   S    
