data_mof_unit_60375.cif
_audit_creation_date              2012-12-10T19:54:27-0500
_audit_creation_method            fapswitch 2.2
_symmetry_space_group_name_H-M    P1
_symmetry_Int_Tables_number       1
_space_group_crystal_system       triclinic
_cell_length_a                    15.732577
_cell_length_b                    14.956207
_cell_length_c                    14.159794
_cell_angle_alpha                 89.453411
_cell_angle_beta                  89.937087
_cell_angle_gamma                 90.064898
_cell_volume                      3331.639179

loop_
_atom_site_label
_atom_site_type_symbol
_atom_type_description
_atom_site_fract_x
_atom_site_fract_y
_atom_site_fract_z
_atom_type_partial_charge
C1    C     C_R   0.501211 0.327530 0.500614 0.889218
C2    C     C_R   0.441587 0.902018 0.569643 -0.165446
C3    C     C_R   0.479735 0.047789 0.502734 0.075076
C4    C     C_R   0.479970 0.952100 0.497959 0.075211
C5    C     C_R   0.430805 0.465510 0.105546 -0.263925
C6    C     C_R   0.540854 0.568014 0.894123 -0.261762
C7    C     C_R   0.432150 0.466074 0.204848 0.032437
C8    C     C_R   0.540201 0.566740 0.794842 0.034713
C9    C     C_R   0.568019 0.533433 0.203969 0.056496
C10   C     C_R   0.459953 0.433111 0.796152 0.057681
C11   C     C_R   0.569391 0.533921 0.104675 -0.252888
C12   C     C_R   0.501234 0.672452 0.499443 0.891310
C13   C     C_R   0.459378 0.431606 0.895469 -0.257646
C14   C     C_R   0.500085 0.499747 0.053293 0.130611
C15   C     C_R   0.500101 0.499779 0.946609 0.133507
C16   C     C_R   0.337805 0.499899 0.500036 0.903020
C17   C     C_R   0.662180 0.500075 0.499953 0.923542
C18   C     C_3   0.971592 0.438945 0.562970 0.180807
C19   C     C_3   0.028295 0.560470 0.436800 0.181628
C20   C     C_3   0.027304 0.418586 0.476208 0.143009
C21   C     C_3   0.972595 0.580828 0.523558 0.141347
C22   C     C_1   0.248970 0.499635 0.500160 -0.164692
C23   C     C_R   0.534104 0.180698 0.575506 0.149820
C24   C     C_1   0.750983 0.500132 0.499772 -0.144234
C25   C     C_3   0.028346 0.520250 0.587121 -0.253588
C26   C     C_3   0.971545 0.479169 0.412654 -0.248829
C27   C     C_3   0.082913 0.499385 0.499773 0.029379
C28   C     C_3   0.916998 0.500039 0.499994 0.027094
C29   C     C_1   0.173745 0.499451 0.500136 -0.010514
C30   C     C_1   0.826191 0.500123 0.499700 -0.002287
C31   C     C_R   0.524321 0.088752 0.575614 -0.185590
C32   C     C_R   0.526700 0.911483 0.426478 -0.174503
C33   C     C_3   0.062707 0.327309 0.448627 -0.400058
C34   C     C_R   0.536382 0.819567 0.426507 0.152871
C35   C     C_3   0.992792 0.264577 0.414798 -0.793614
C36   C     C_3   0.937158 0.672103 0.551108 -0.384112
C37   C     C_3   0.007056 0.734887 0.584871 -0.802365
C38   C     C_R   0.496682 0.231379 0.502065 -0.083068
C39   C     C_R   0.496717 0.768557 0.498278 -0.078682
C40   C     C_R   0.451456 0.189445 0.429582 -0.223384
C41   C     C_R   0.449511 0.810105 0.569487 -0.219362
C42   C     C_R   0.443452 0.097540 0.429619 -0.164063
H1    H     H_    0.621836 0.559632 0.242251 0.154804
H2    H     H_    0.418503 0.771422 0.624738 0.166258
H3    H     H_    0.409899 0.065067 0.372590 0.152141
H4    H     H_    0.406374 0.934218 0.625638 0.150122
H5    H     H_    0.375186 0.439522 0.070227 0.141760
H6    H     H_    0.572097 0.622931 0.929230 0.145838
H7    H     H_    0.378549 0.439385 0.243845 0.131580
H8    H     H_    0.571789 0.619511 0.755527 0.132240
H9    H     H_    0.944152 0.254376 0.470657 0.283655
H10   H     H_    0.961783 0.292390 0.350547 0.253850
H11   H     H_    0.020845 0.198725 0.397162 0.251199
H12   H     H_    0.428487 0.380342 0.757844 0.136583
H13   H     H_    0.109984 0.336625 0.391030 0.210708
H14   H     H_    0.095429 0.296950 0.510539 0.221723
H15   H     H_    0.038119 0.707107 0.649105 0.252691
H16   H     H_    0.055656 0.745106 0.528972 0.281106
H17   H     H_    0.978975 0.800725 0.602510 0.254401
H18   H     H_    0.904391 0.702417 0.489198 0.229733
H19   H     H_    0.889910 0.662790 0.608733 0.213421
H20   H     H_    0.625097 0.559714 0.068709 0.148930
H21   H     H_    0.428213 0.376583 0.931659 0.141736
H22   H     H_    0.946401 0.462647 0.341700 0.174727
H23   H     H_    0.053470 0.536780 0.658082 0.173421
H24   H     H_    0.554456 0.048699 0.630260 0.164708
H25   H     H_    0.558469 0.951776 0.373055 0.167057
H26   H     H_    0.422053 0.227798 0.373130 0.162187
I1    I     I_    0.924135 0.346425 0.666392 -0.341223
I2    I     I_    0.075345 0.652991 0.333183 -0.370443
I3    I     I_    0.612990 0.234407 0.683237 -0.318441
I4    I     I_    0.618628 0.766293 0.321806 -0.383037
N1    N     N_R   0.500000 0.499980 0.252470 -0.097119
N2    N     N_R   0.500000 0.500020 0.747530 -0.095198
O1    O     O_R   0.500010 0.369070 0.579480 -0.603093
O2    O     O_R   0.499990 0.630930 0.420520 -0.584279
O3    O     O_R   0.500010 0.369060 0.420520 -0.625845
O4    O     O_R   0.499990 0.630940 0.579480 -0.639775
O5    O     O_R   0.376780 0.500000 0.579460 -0.620040
O6    O     O_R   0.623220 0.500000 0.420540 -0.623039
O7    O     O_R   0.376780 0.499990 0.420510 -0.620367
O8    O     O_R   0.623220 0.500010 0.579490 -0.598025
Zn1   Zn    Zn3+2 0.500000 0.500010 0.606140 0.973634
Zn2   Zn    Zn3+2 0.500000 0.499990 0.393860 0.975547

loop_
_geom_bond_atom_site_label_1
_geom_bond_atom_site_label_2
_ccdc_geom_bond_type
C33   H13   S    
C31   H24   S    
C38   C40   A    
C3    C42   A    
C22   C29   T    
C34   I4    S    
C35   H11   S    
C1    O3    A    
N2    Zn1   S    
O6    Zn2   S    
C11   H20   S    
O2    Zn2   S    
C7    N1    A    
C21   C36   S    
C2    H4    S    
C5    H5    S    
C6    H6    S    
C36   C37   S    
C19   C21   S    
C11   C14   A    
C27   C29   S    
C2    C41   A    
C17   O8    A    
C19   C26   S    
C26   H22   S    
C6    C15   A    
O4    Zn1   S    
C12   O4    A    
C19   C27   S    
N1    Zn2   S    
C37   H16   S    
C33   H14   S    
C40   C42   A    
C18   C25   S    
C9    N1    A    
C9    H1    S    
C17   C24   S    
C34   C39   A    
C1    O1    A    
C23   I3    S    
C25   H23   S    
C7    H7    S    
C39   C41   A    
C5    C7    A    
C6    C8    A    
O3    Zn2   S    
C17   O6    A    
C42   H3    S    
C23   C31   A    
C2    C4    A    
C13   H21   S    
C8    N2    A    
C18   C28   S    
C37   H17   S    
C3    C31   A    
C9    C11   A    
C5    C14   A    
C4    C32   A    
C1    C38   S    
C32   H25   S    
C20   C33   S    
C21   C28   S    
C13   C15   A    
C12   O2    A    
C35   H9    S    
C41   H2    S    
C3    C4    S    
C8    H8    S    
O7    Zn2   S    
C21   C25   S    
C16   C22   S    
C36   H18   S    
C10   C13   A    
C20   C27   S    
C25   C27   S    
C23   C38   A    
C26   C28   S    
C16   O5    A    
C12   C39   S    
C28   C30   S    
O5    Zn1   S    
C10   N2    A    
O1    Zn1   S    
C20   C26   S    
C18   I1    S    
C16   O7    A    
C33   C35   S    
C18   C20   S    
C10   H12   S    
C24   C30   T    
O8    Zn1   S    
C40   H26   S    
C35   H10   S    
C14   C15   S    
C19   I2    S    
C37   H15   S    
C36   H19   S    
C32   C34   A    
