data_mof_unit_15479.cif
_audit_creation_date              2012-10-26T20:02:58-0400
_audit_creation_method            fapswitch 2.2
_symmetry_space_group_name_H-M    P1
_symmetry_Int_Tables_number       1
_space_group_crystal_system       triclinic
_cell_length_a                    10.710899
_cell_length_b                    12.320607
_cell_length_c                    13.143382
_cell_angle_alpha                 116.543726
_cell_angle_beta                  77.418284
_cell_angle_gamma                 101.275076
_cell_volume                      1504.77548639

loop_
_atom_site_label
_atom_site_type_symbol
_atom_type_description
_atom_site_fract_x
_atom_site_fract_y
_atom_site_fract_z
_atom_type_partial_charge
C1    C     C_R   0.512439 0.854960 0.285953 0.546894
C2    C     C_R   0.502010 0.565708 0.008777 0.019365
C3    C     C_R   0.462780 0.650606 0.122699 -0.022387
C4    C     C_R   0.739893 0.999351 0.499708 0.543731
C5    C     C_R   0.459880 0.439483 0.976575 0.039863
C6    C     C_R   0.369603 0.401285 0.054040 0.052902
C7    C     C_R   0.320753 0.487748 0.160668 -0.136408
C8    C     C_R   0.364939 0.610568 0.193837 -0.122916
C9    C     C_R   0.504972 0.349703 0.869342 -0.136331
C10   C     C_R   0.367796 0.190391 0.912993 -0.146615
C11   C     C_R   0.520818 0.773633 0.161621 -0.006018
C12   C     C_3   0.121803 0.999463 0.499890 0.050748
C13   C     C_R   0.707280 0.347982 0.329668 -0.160253
C14   C     C_R   0.324915 0.759064 0.645279 0.043674
C15   C     C_R   0.286817 0.662272 0.676821 -0.165341
C16   C     C_R   0.481052 0.144946 0.713628 0.542396
C17   C     C_R   0.352526 0.558984 0.622007 -0.139036
C18   C     C_R   0.457995 0.551225 0.534396 -0.006042
C19   C     C_R   0.493700 0.653075 0.505171 0.181423
C20   C     C_R   0.529535 0.447008 0.475089 -0.013628
C21   C     C_R   0.634910 0.447456 0.388643 0.037351
C22   C     C_R   0.667983 0.547253 0.361570 -0.179079
C23   C     C_3   0.074340 0.121594 0.592888 -0.235961
C24   C     C_R   0.599161 0.647525 0.418455 -0.102333
C25   C     C_R   0.501880 0.341576 0.497352 0.036097
C26   C     C_R   0.675595 0.247889 0.356191 0.037253
C27   C     C_R   0.260022 0.000089 0.500000 0.536599
C28   C     C_3   0.955805 0.982046 0.380587 -0.232667
C29   C     C_3   0.099986 0.982399 0.380607 -0.235886
C30   C     C_3   0.930107 0.120992 0.593069 -0.232754
C31   C     C_3   0.897505 0.892512 0.525855 -0.231732
C32   C     C_3   0.877739 0.998632 0.499819 0.046667
C33   C     C_3   0.584458 0.998056 0.082017 -0.113451
C34   C     C_3   0.040385 0.893177 0.526231 -0.228719
C35   C     C_R   0.326284 0.276967 0.022490 -0.139265
C36   C     C_R   0.454824 0.227515 0.835280 -0.006974
C37   C     C_R   0.596571 0.815579 0.080718 0.263931
C38   C     C_R   0.624584 0.733220 0.966311 -0.120524
C39   C     C_R   0.580079 0.610387 0.930865 -0.175107
Cu1   Cu    Cu3+1 0.529690 0.098270 0.475420 0.930328
Cu2   Cu    Cu3+1 0.470310 0.901730 0.524580 0.896206
H1    H     H_    0.943769 0.057000 0.359394 0.129683
H2    H     H_    0.684853 0.764396 0.904694 0.122652
H3    H     H_    0.919562 0.894483 0.312563 0.112728
H4    H     H_    0.317988 0.673624 0.274611 0.144993
H5    H     H_    0.731267 0.170947 0.311192 0.150908
H6    H     H_    0.748573 0.548176 0.295573 0.104301
H7    H     H_    0.788054 0.347773 0.263559 0.089909
H8    H     H_    0.423311 0.333104 0.561206 0.116996
H9    H     H_    0.273360 0.838831 0.688361 0.119965
H10   H     H_    0.318942 0.486933 0.649998 0.096016
H11   H     H_    0.206048 0.667338 0.744054 0.099329
H12   H     H_    0.053674 0.903101 0.611816 0.121207
H13   H     H_    0.632901 0.719038 0.391457 0.182109
H14   H     H_    0.133566 0.894902 0.312752 0.103861
H15   H     H_    0.156729 0.057405 0.359320 0.127431
H16   H     H_    0.917258 0.199017 0.576690 0.129593
H17   H     H_    0.130331 0.199573 0.575988 0.122344
H18   H     H_    0.842379 0.901676 0.611051 0.131977
H19   H     H_    0.861489 0.803245 0.459737 0.118696
H20   H     H_    0.072347 0.803913 0.460685 0.124915
H21   H     H_    0.481534 0.996697 0.122091 0.122599
H22   H     H_    0.592068 0.960499 0.986869 0.105849
H23   H     H_    0.875390 0.134185 0.679364 0.109808
H24   H     H_    0.626946 0.094859 0.112947 0.135296
H25   H     H_    0.089563 0.135389 0.679180 0.108736
H26   H     H_    0.327889 0.095743 0.887585 0.116939
H27   H     H_    0.247531 0.460438 0.218682 0.102414
H28   H     H_    0.257084 0.247285 0.081157 0.101762
H29   H     H_    0.578175 0.372096 0.809065 0.117112
H30   H     H_    0.606073 0.553668 0.840847 0.109899
N1    N     N_R   0.574690 0.246280 0.438200 -0.235960
N2    N     N_R   0.426100 0.754320 0.561190 -0.234336
O1    O     O_R   0.537340 0.972510 0.318130 -0.448007
O2    O     O_R   0.487200 0.806530 0.359650 -0.535251
O3    O     O_R   0.707380 0.082980 0.479220 -0.504767
O4    O     O_R   0.657240 0.917000 0.520740 -0.525732
O5    O     O_R   0.512800 0.193470 0.640350 -0.509017
O6    O     O_R   0.462660 0.027490 0.681870 -0.504691
O7    O     O_R   0.342760 0.083000 0.479260 -0.514184
O8    O     O_R   0.292620 0.917020 0.520780 -0.520334
O9    O     O_3   0.653284 0.934962 0.114649 -0.563748

loop_
_geom_bond_atom_site_label_1
_geom_bond_atom_site_label_2
_ccdc_geom_bond_type
C23   H17   S    
C30   H23   S    
C12   C29   S    
C26   N1    A    
C1    C11   S    
C17   H10   S    
C33   H24   S    
C7    C8    A    
C10   H26   S    
C12   C23   S    
C5    C6    A    
C1    O1    A    
C23   H25   S    
C28   C29   S    
Cu2   O4    S    
C38   C39   A    
C20   C25   A    
C24   H13   S    
C30   H16   S    
C6    C35   A    
C18   C19   A    
C31   H18   S    
C11   C37   A    
C8    H4    S    
C7    H27   S    
C2    C39   A    
C33   H21   S    
C9    C36   A    
Cu1   O7    S    
C10   C35   A    
C33   O9    S    
C16   O5    A    
C22   H6    S    
C21   C22   A    
C12   C27   S    
C1    O2    A    
C23   C30   S    
C27   O8    A    
C9    H29   S    
C27   O7    A    
C29   H14   S    
C28   H3    S    
C34   H20   S    
Cu1   O3    S    
C31   H19   S    
C14   N2    A    
C5    C9    A    
C37   C38   A    
Cu2   O2    S    
C19   N2    A    
C31   C32   S    
C28   C32   S    
C33   H22   S    
Cu2   O8    S    
C17   C18   A    
C31   C34   S    
C13   C21   A    
C25   N1    A    
C15   H11   S    
C4    C32   S    
Cu1   O5    S    
Cu1   Cu2   S    
C3    C8    A    
C22   C24   A    
C13   C26   A    
C2    C5    A    
C12   C34   S    
C15   C17   A    
Cu1   N1    S    
Cu2   O6    S    
C13   H7    S    
C6    C7    A    
C29   H15   S    
C16   O6    A    
C19   C24   A    
C4    O4    A    
C16   C36   S    
C30   C32   S    
C14   H9    S    
C28   H1    S    
Cu1   O1    S    
C2    C3    A    
C18   C20   A    
C37   O9    S    
C25   H8    S    
C4    O3    A    
C3    C11   A    
C26   H5    S    
Cu2   N2    S    
C38   H2    S    
C20   C21   A    
C35   H28   S    
C34   H12   S    
C39   H30   S    
C14   C15   A    
C10   C36   A    
