data_mof_unit_9145.cif
_audit_creation_date              2013-03-05T16:06:21-0500
_audit_creation_method            fapswitch 2.2
_symmetry_space_group_name_H-M    P1
_symmetry_Int_Tables_number       1
_space_group_crystal_system       triclinic
_cell_length_a                    10.8285
_cell_length_b                    9.50542
_cell_length_c                    27.800315
_cell_angle_alpha                 90.020563
_cell_angle_beta                  90.136278
_cell_angle_gamma                 90.004561
_cell_volume                      2861.46258025

loop_
_atom_site_label
_atom_site_type_symbol
_atom_site_description
_atom_site_fract_x
_atom_site_fract_y
_atom_site_fract_z
_atom_type_partial_charge
O1    O     O_R   0.319640 0.618740 0.500000 -0.588324
O2    O     O_R   0.680360 0.381260 0.500000 -0.588170
O3    O     O_R   0.680360 0.618740 0.500000 -0.588232
O4    O     O_R   0.319640 0.381260 0.500000 -0.588336
C1    C     C_R   0.262023 0.499997 0.499967 0.796304
C2    C     C_R   0.737977 0.500003 0.500034 0.796256
O5    O     O_R   0.500020 0.618770 0.430260 -0.583865
O6    O     O_R   0.499980 0.381230 0.569740 -0.584121
O7    O     O_R   0.499980 0.618770 0.569740 -0.584828
O8    O     O_R   0.500020 0.381230 0.430260 -0.584607
C3    C     C_R   0.499840 0.499946 0.407381 0.833081
C4    C     C_R   0.500210 0.500028 0.592616 0.832456
Cu1   Cu    Cu3+1 0.500000 0.640660 0.500000 0.951230
Cu2   Cu    Cu3+1 0.500000 0.359340 0.500000 0.951455
C5    C     C_R   0.393254 0.528868 0.177542 0.586398
C6    C     C_R   0.611591 0.504429 0.822221 0.607824
O9    O     O_2   0.289694 0.558328 0.202491 -0.444945
O10   O     O_2   0.717995 0.512208 0.797204 -0.446422
N1    N     N_R   0.499948 0.499052 0.201815 -0.475725
N2    N     N_R   0.501837 0.497973 0.798020 -0.471736
C7    C     C_R   0.607041 0.468146 0.178150 0.696102
C8    C     C_R   0.391645 0.489376 0.821636 0.678645
C9    C     C_R   0.494919 0.626052 0.278560 -0.161408
C10   C     C_R   0.511488 0.373026 0.721183 -0.172929
C11   C     C_R   0.494715 0.626725 0.328697 -0.202960
C12   C     C_R   0.511344 0.373019 0.671082 -0.200697
C13   C     C_R   0.503115 0.371705 0.329022 -0.286123
C14   C     C_R   0.492138 0.627320 0.671161 -0.294829
C15   C     C_R   0.501084 0.370537 0.278650 0.541700
C16   C     C_R   0.494968 0.628065 0.721659 0.543090
C17   C     C_R   0.499124 0.498544 0.253411 0.230950
C18   C     C_R   0.502343 0.499777 0.746494 0.246943
C19   C     C_R   0.500417 0.494795 0.101718 -0.213895
C20   C     C_R   0.500849 0.493662 0.898056 -0.212189
C21   C     C_R   0.391020 0.527405 0.126947 -0.108426
C22   C     C_R   0.613652 0.502546 0.872810 -0.117987
C23   C     C_R   0.283182 0.559118 0.100986 0.662221
C24   C     C_R   0.724798 0.511423 0.898745 0.662686
C25   C     C_R   0.609665 0.465052 0.127551 -0.243125
C26   C     C_R   0.388603 0.487062 0.872237 -0.241090
C27   C     C_R   0.499180 0.499555 0.354388 -0.106911
C28   C     C_R   0.501334 0.500116 0.645605 -0.101011
H1    H     H_    0.507896 0.272456 0.348072 0.172253
H2    H     H_    0.481396 0.725842 0.652069 0.169179
C29   C     C_R   0.386600 0.494033 0.974285 -0.121664
C30   C     C_R   0.612737 0.470553 0.025496 -0.122214
C31   C     C_R   0.613814 0.487228 0.974703 0.044024
C32   C     C_R   0.388284 0.511250 0.025062 0.049786
C33   C     C_R   0.500368 0.491511 0.949138 0.007709
C34   C     C_R   0.500514 0.492080 0.050635 0.007745
C35   C     C_R   0.275834 0.477278 0.947604 0.508476
C36   C     C_R   0.718948 0.431295 0.052205 0.510980
C37   C     C_R   0.277011 0.475410 0.897544 0.627534
C38   C     C_R   0.717502 0.430168 0.102263 0.629034
O11   O     O_2   0.285769 0.483405 0.796028 -0.417832
O12   O     O_2   0.710461 0.441274 0.203710 -0.413484
C39   C     C_R   0.282476 0.552028 0.051062 -0.170916
C40   C     C_R   0.724385 0.504896 0.948675 -0.169081
H3    H     H_    0.518683 0.273467 0.652343 0.166827
H4    H     H_    0.491488 0.726792 0.347292 0.170247
H5    H     H_    0.518385 0.274360 0.740472 0.161307
H6    H     H_    0.492353 0.724754 0.259139 0.169184
H7    H     H_    0.198862 0.585850 0.033406 0.244587
H8    H     H_    0.812049 0.520913 0.966302 0.255223
C41   C     C_R   0.063851 0.372134 0.499916 -0.171809
C42   C     C_R   0.936149 0.627866 0.500087 -0.171761
C43   C     C_R   0.936128 0.372137 0.499970 -0.171011
C44   C     C_R   0.063872 0.627862 0.500033 -0.171017
H9    H     H_    0.111902 0.272179 0.499843 0.151151
H10   H     H_    0.888099 0.727821 0.500160 0.151208
H11   H     H_    0.888062 0.272183 0.499948 0.151337
H12   H     H_    0.111938 0.727817 0.500056 0.151254
C45   C     C_R   0.871794 0.500004 0.500042 -0.019360
C46   C     C_R   0.128206 0.499996 0.499961 -0.019318
C47   C     C_R   0.423493 0.074428 0.469965 -0.020377
C48   C     C_R   0.576501 0.925572 0.530038 -0.022047
C49   C     C_R   0.576504 0.074502 0.530036 -0.021723
C50   C     C_R   0.423489 0.925498 0.469967 -0.020804
H13   H     H_    0.362248 0.130629 0.445920 0.118590
H14   H     H_    0.637741 0.869373 0.554085 0.118847
H15   H     H_    0.637752 0.130762 0.554080 0.118724
H16   H     H_    0.362235 0.869239 0.445925 0.119795
N3    N     N_R   0.500000 0.852070 0.500000 -0.157922
N4    N     N_R   0.500000 0.147930 0.500000 -0.157706
O13   O     O_3   0.508673 0.244876 0.253834 -0.562451
C51   C     C_3   0.390801 0.181976 0.253214 -0.262140
H17   H     H_    0.321132 0.251963 0.235950 0.192904
H18   H     H_    0.360641 0.152256 0.290074 0.147820
H19   H     H_    0.395711 0.084072 0.231572 0.209016
O14   O     O_3   0.480558 0.751736 0.747334 -0.564221
C52   C     C_3   0.585394 0.837526 0.740596 -0.261771
H20   H     H_    0.587752 0.881912 0.703630 0.142477
H21   H     H_    0.672579 0.779734 0.748565 0.195512
H22   H     H_    0.580028 0.927316 0.766007 0.204936
F1    F     F_    0.177391 0.598330 0.123456 -0.560564
F2    F     F_    0.835088 0.527650 0.876247 -0.540242
F3    F     F_    0.167555 0.459805 0.874154 -0.513512
F4    F     F_    0.822581 0.392103 0.125670 -0.525011
F5    F     F_    0.166148 0.449784 0.969147 -0.581502
F6    F     F_    0.822346 0.381176 0.030702 -0.580652

loop_
_geom_bond_atom_site_label_1
_geom_bond_atom_site_label_2
_geom_bond_distance
_ccdc_geom_bond_type
C42   C44   1.383054 A    
C10   H5    1.082998 S    
C13   C15   1.400521 A    
Cu2   N4    2.009542 S    
C16   O14   1.384071 S    
O3    C2    1.289653 A    
N1    C17   1.434447 S    
C32   C39   1.410398 A    
C31   C33   1.418361 A    
O13   C51   1.409494 S    
C5    N1    1.366365 A    
C19   C25   1.411141 A    
O1    C1    1.289619 A    
N1    C7    1.366547 A    
C10   C12   1.392843 A    
C51   H18   1.112805 S    
C47   N4    1.366702 A    
C25   C38   1.404125 A    
C29   C35   1.417685 A    
C44   C46   1.400965 A    
C30   C36   1.417570 A    
C23   F1    1.358201 S    
C1    C46   1.449041 S    
C13   C27   1.405528 A    
O7    Cu1   1.950002 S    
C24   C40   1.389476 A    
C50   N3    1.366716 A    
C9    H6    1.082956 S    
C41   C43   1.383053 A    
C4    C28   1.473146 S    
C43   C45   1.400966 A    
C11   H4    1.083018 S    
C29   C33   1.418132 A    
C12   H3    1.083056 S    
C15   O13   1.381712 S    
O3    Cu1   1.964128 S    
O6    C4    1.295790 A    
C32   C34   1.418297 A    
Cu1   Cu2   2.674065 S    
C40   H8    1.078033 S    
O2    C2    1.289617 A    
C48   N3    1.366707 A    
C5    C21   1.406780 A    
O7    C4    1.295722 A    
C36   C38   1.391796 A    
C39   H7    1.078005 S    
C35   F5    1.356890 S    
C48   C49   1.415642 A    
O8    Cu2   1.950002 S    
C11   C27   1.405035 A    
C52   H20   1.111389 S    
C51   H17   1.113835 S    
C49   N4    1.366718 A    
C37   F3    1.358634 S    
C19   C34   1.420352 A    
C42   C45   1.400941 A    
C36   F6    1.356824 S    
C41   C46   1.400941 A    
C44   H12   1.083294 S    
C35   C37   1.391876 A    
C9    C17   1.399790 A    
O5    C3    1.296044 A    
C10   C18   1.398660 A    
C52   H21   1.114147 S    
C50   H16   1.081768 S    
C7    C25   1.407322 A    
C49   H15   1.081771 S    
C6    N2    1.365664 A    
C8    C26   1.407376 A    
N2    C8    1.365727 A    
C20   C26   1.411476 A    
O1    Cu1   1.964095 S    
C22   C24   1.404046 A    
C12   C28   1.404697 A    
C2    C45   1.449041 S    
N2    C18   1.432555 S    
C29   C32   1.421079 A    
C5    O9    1.349310 S    
C30   C34   1.418105 A    
C30   C31   1.421070 A    
C20   C33   1.420272 A    
O6    Cu2   1.949854 S    
C21   C23   1.404120 A    
C48   H14   1.081771 S    
O4    C1    1.289653 A    
C51   H19   1.109321 S    
C7    O12   1.349327 S    
C8    O11   1.349274 S    
Cu1   N3    2.009541 S    
C14   C16   1.404143 A    
C15   C17   1.404925 A    
C6    C22   1.406634 A    
C52   H22   1.109339 S    
C16   C18   1.403722 A    
O14   C52   1.410587 S    
C42   H10   1.083294 S    
C41   H9    1.083295 S    
C14   C28   1.405841 A    
C19   C21   1.412486 A    
C20   C22   1.412749 A    
C14   H2    1.082751 S    
C3    C27   1.473237 S    
C43   H11   1.083294 S    
C9    C11   1.393841 A    
O4    Cu2   1.964128 S    
O2    Cu2   1.964095 S    
C47   C50   1.415642 A    
O8    C3    1.295544 A    
C13   H1    1.083230 S    
O5    Cu1   1.949854 S    
C6    O10   1.349261 S    
C26   C37   1.404099 A    
C24   F2    1.358262 S    
C38   F4    1.358590 S    
C47   H13   1.081773 S    
C23   C39   1.389520 A    
C31   C40   1.410510 A    
