data_mof_unit_30099.cif
_audit_creation_date              2012-12-10T20:51:26-0500
_audit_creation_method            fapswitch 2.2
_symmetry_space_group_name_H-M    P1
_symmetry_Int_Tables_number       1
_space_group_crystal_system       triclinic
_cell_length_a                    17.335437
_cell_length_b                    8.92963
_cell_length_c                    8.099816
_cell_angle_alpha                 90.060701
_cell_angle_beta                  90.050522
_cell_angle_gamma                 90.042946
_cell_volume                      1253.84218299

loop_
_atom_site_label
_atom_site_type_symbol
_atom_type_description
_atom_site_fract_x
_atom_site_fract_y
_atom_site_fract_z
_atom_type_partial_charge
C1    C     C_R   0.500047 0.217965 0.499950 0.952915
C2    C     C_R   0.856407 0.546287 0.398791 -0.051804
C3    C     C_R   0.757770 0.335008 0.551888 -0.042968
C4    C     C_R   0.225556 0.530522 0.358803 -0.011723
C5    C     C_R   0.233658 0.382333 0.613556 -0.022720
C6    C     C_R   0.777493 0.578861 0.420347 0.031025
C7    C     C_R   0.729594 0.473619 0.497015 -0.041848
C8    C     C_R   0.268386 0.477409 0.495729 -0.066076
C9    C     C_R   0.884554 0.405352 0.452301 -0.031573
C10   C     C_R   0.116366 0.382089 0.449800 0.042778
C11   C     C_1   0.965718 0.379794 0.447646 0.075940
C12   C     C_R   0.500084 0.782042 0.500054 0.927543
C13   C     C_1   0.034342 0.371932 0.446871 0.165184
C14   C     C_2   0.864287 0.147346 0.577594 0.484484
C15   C     C_2   0.114388 0.499008 0.164079 0.337471
C16   C     C_2   0.119274 0.241582 0.721964 0.428509
C17   C     C_2   0.909926 0.655617 0.318122 0.418451
C18   C     C_1   0.500144 0.065201 0.499936 -0.190821
C19   C     C_1   0.500156 0.934821 0.500084 -0.191149
C20   C     C_R   0.352253 0.499513 0.499759 0.881971
C21   C     C_R   0.647123 0.499258 0.499896 0.939427
C22   C     C_R   0.835706 0.298221 0.527008 -0.034538
C23   C     C_R   0.152320 0.469650 0.326886 -0.027530
C24   C     C_R   0.156431 0.337258 0.593310 -0.081840
H1    H     H_    0.834991 0.084487 0.673270 0.045596
H2    H     H_    0.277039 0.211024 0.750786 0.180358
H3    H     H_    0.755889 0.729606 0.237528 0.231541
H4    H     H_    0.766993 0.805755 0.430463 0.232472
H5    H     H_    0.134856 0.587401 0.083655 0.101049
H6    H     H_    0.141286 0.239909 0.847209 0.089454
H7    H     H_    0.963406 0.617344 0.263582 0.097273
H8    H     H_    0.722787 0.206876 0.745076 0.191523
H9    H     H_    0.705682 0.130723 0.555302 0.174538
H10   H     H_    0.213628 0.730642 0.245136 0.174325
H11   H     H_    0.301729 0.701925 0.306598 0.193542
H12   H     H_    0.254505 0.368580 0.860256 0.188590
N1    N     N_1   0.500000 0.500000 0.073640 -0.025940
N2    N     N_1   0.500000 0.500000 0.926360 -0.024946
N3    N     N_3   0.704991 0.229700 0.624393 -0.453773
N4    N     N_3   0.255345 0.646329 0.251723 -0.444043
N5    N     N_3   0.278388 0.328094 0.750502 -0.425856
N6    N     N_3   0.743887 0.716450 0.363144 -0.457662
O1    O     O_R   0.500000 0.285350 0.636850 -0.605873
O2    O     O_2   0.061912 0.419935 0.113571 -0.578935
O3    O     O_2   0.064839 0.160093 0.688962 -0.508002
O4    O     O_2   0.896279 0.789553 0.313804 -0.533980
O5    O     O_R   0.500000 0.714650 0.363150 -0.616011
O6    O     O_R   0.500000 0.714650 0.636850 -0.617773
O7    O     O_R   0.500000 0.285350 0.363150 -0.615964
O8    O     O_R   0.389120 0.500000 0.636930 -0.590371
O9    O     O_R   0.610880 0.500000 0.363070 -0.611006
O10   O     O_R   0.610880 0.500000 0.636930 -0.608193
O11   O     O_R   0.389120 0.500000 0.363070 -0.613138
O12   O     O_2   0.919328 0.088858 0.509337 -0.466319
Zn1   Zn    Zn3+2 0.500000 0.500000 0.682780 1.006497
Zn2   Zn    Zn3+2 0.500000 0.500000 0.317220 0.999914

loop_
_geom_bond_atom_site_label_1
_geom_bond_atom_site_label_2
_ccdc_geom_bond_type
C16   O3    D    
O6    Zn1   S    
C6    C7    A    
C10   C23   A    
C5    C8    A    
O7    Zn2   S    
C9    C11   S    
O8    Zn1   S    
O10   Zn1   S    
C12   O6    A    
C4    C8    A    
C14   C22   S    
C15   C23   S    
H11   N4    S    
H12   N5    S    
C3    N3    S    
C16   C24   S    
C2    C6    A    
C2    C17   S    
C11   C13   T    
H3    N6    S    
C1    C18   S    
C8    C20   S    
C5    C24   A    
N1    Zn2   S    
C12   O5    A    
H10   N4    S    
C12   C19   S    
O1    Zn1   S    
C14   O12   D    
N1    N2    T    
C1    O1    A    
C15   O2    D    
C15   H5    S    
C3    C7    A    
C14   H1    S    
C17   H7    S    
C9    C22   A    
H8    N3    S    
C16   H6    S    
C21   O9    A    
C17   O4    D    
C18   C19   T    
C6    N6    S    
O11   Zn2   S    
H4    N6    S    
C4    C23   A    
C5    N5    S    
O5    Zn2   S    
C3    C22   A    
C20   O8    A    
C10   C24   A    
C7    C21   S    
C2    C9    A    
C1    O7    A    
H9    N3    S    
C21   O10   A    
N2    Zn1   S    
C4    N4    S    
H2    N5    S    
C20   O11   A    
C10   C13   S    
O9    Zn2   S    
