data_mof_unit_31184.cif
_audit_creation_date              2012-12-11T15:43:45-0500
_audit_creation_method            fapswitch 2.2
_symmetry_space_group_name_H-M    P1
_symmetry_Int_Tables_number       1
_space_group_crystal_system       triclinic
_cell_length_a                    14.498329
_cell_length_b                    16.274583
_cell_length_c                    6.975337
_cell_angle_alpha                 89.435427
_cell_angle_beta                  98.898588
_cell_angle_gamma                 89.789342
_cell_volume                      1625.94889292

loop_
_atom_site_label
_atom_site_type_symbol
_atom_type_description
_atom_site_fract_x
_atom_site_fract_y
_atom_site_fract_z
_atom_type_partial_charge
O1    O     O_R   0.831700 0.662810 0.581550 -0.552714
O2    O     O_R   0.168300 0.337190 0.418450 -0.552714
O3    O     O_R   0.168300 0.162810 0.418450 -0.553430
O4    O     O_R   0.831700 0.837190 0.581550 -0.553430
O5    O     O_R   0.842890 0.834390 0.255500 -0.527291
O6    O     O_R   0.157110 0.165610 0.744500 -0.527291
O7    O     O_R   0.157110 0.334390 0.744500 -0.527621
O8    O     O_R   0.842890 0.665610 0.255500 -0.527621
O9    O     O_R   0.661690 0.835580 0.024130 -0.555233
O10   O     O_R   0.338310 0.164420 0.975870 -0.555233
O11   O     O_R   0.338310 0.335580 0.975870 -0.561167
O12   O     O_R   0.661690 0.664420 0.024130 -0.561167
C1    C     C_R   0.868191 0.862266 0.432706 0.665743
C2    C     C_R   0.131809 0.137734 0.567294 0.665744
C3    C     C_R   0.131904 0.362211 0.566546 0.672167
C4    C     C_R   0.868096 0.637789 0.433453 0.672167
C5    C     C_R   0.060722 0.069810 0.531728 -0.171082
C6    C     C_R   0.939278 0.930189 0.468272 -0.171083
C7    C     C_R   0.938903 0.569666 0.469348 -0.172623
C8    C     C_R   0.061097 0.430334 0.530652 -0.172623
H1    H     H_    0.897956 0.981685 0.183887 0.163326
H2    H     H_    0.102044 0.018315 0.816113 0.163326
H3    H     H_    0.104005 0.479905 0.814112 0.163476
H4    H     H_    0.895995 0.520095 0.185888 0.163477
C9    C     C_R   0.943694 0.988736 0.321073 -0.058677
C10   C     C_R   0.056306 0.011264 0.678927 -0.058678
C11   C     C_R   0.057413 0.487827 0.677804 -0.055970
C12   C     C_R   0.942587 0.512173 0.322196 -0.055970
O13   O     O_3   0.687240 0.750000 0.366320 -0.366432
O14   O     O_3   0.312760 0.250000 0.633680 -0.366432
V1    V     V_3+5 0.757720 0.750000 0.115230 1.449275
V2    V     V_3+5 0.242280 0.250000 0.884770 1.449275
O15   O     O_R   0.650500 0.664000 0.690740 -0.522317
O16   O     O_R   0.349500 0.336000 0.309260 -0.522317
O17   O     O_R   0.349500 0.164000 0.309260 -0.526700
O18   O     O_R   0.650500 0.836000 0.690740 -0.526700
C13   C     C_R   0.628487 0.636900 0.854956 0.766135
C14   C     C_R   0.371513 0.363100 0.145044 0.766135
C15   C     C_R   0.373339 0.137289 0.147281 0.744206
C16   C     C_R   0.626661 0.862711 0.852719 0.744206
C17   C     C_R   0.002189 0.058301 0.349721 -0.005332
C18   C     C_R   0.997811 0.941699 0.650279 -0.005332
C19   C     C_R   0.998393 0.557386 0.650114 -0.005134
C20   C     C_R   0.001607 0.442613 0.349886 -0.005134
V3    V     V_3+5 0.735670 0.750000 0.607790 1.456375
V4    V     V_3+5 0.264330 0.250000 0.392210 1.456375
O19   O     O_3   0.806150 0.750000 0.906560 -0.380800
O20   O     O_3   0.193850 0.250000 0.093440 -0.380800
H5    H     H_    0.404117 0.030713 0.880561 0.128850
H6    H     H_    0.595882 0.969287 0.119439 0.128850
H7    H     H_    0.562733 0.559721 0.146778 0.147852
H8    H     H_    0.437266 0.440279 0.853222 0.147852
C21   C     C_2   0.548112 0.922443 0.842448 0.041023
C22   C     C_2   0.451888 0.077556 0.157552 0.041023
C23   C     C_2   0.439406 0.430204 0.152556 0.026311
C24   C     C_2   0.560594 0.569796 0.847444 0.026311
C25   C     C_2   0.540238 0.971475 0.996037 -0.163190
C26   C     C_2   0.459762 0.028525 0.003963 -0.163190
C27   C     C_2   0.466340 0.464638 0.993627 -0.180621
C28   C     C_2   0.533659 0.535362 0.006373 -0.180620
C29   C     C_2   0.996092 0.119992 0.189944 0.391297
H9    H     H_    0.020722 0.181802 0.217822 0.045789
O21   O     O_2   0.961507 0.102762 0.024390 -0.529850
C30   C     C_2   0.003908 0.880008 0.810056 0.391296
H10   H     H_    0.979278 0.818198 0.782178 0.045789
O22   O     O_2   0.038493 0.897238 0.975610 -0.529850
C31   C     C_2   0.004865 0.618134 0.809060 0.392795
H11   H     H_    0.979190 0.680020 0.780995 0.044130
O23   O     O_2   0.040933 0.600017 0.974122 -0.529145
C32   C     C_2   0.995134 0.381866 0.190940 0.392794
H12   H     H_    0.020810 0.319980 0.219005 0.044131
O24   O     O_2   0.959067 0.399983 0.025878 -0.529145
N1    N     N_3   0.523054 0.079156 0.325367 -0.667354
H13   H     H_    0.584604 0.100634 0.282068 0.235544
H14   H     H_    0.535399 0.019265 0.377920 0.246218
N2    N     N_3   0.476946 0.920844 0.674633 -0.667354
H15   H     H_    0.415396 0.899366 0.717932 0.235544
H16   H     H_    0.464601 0.980735 0.622080 0.246218
N3    N     N_3   0.526270 0.538869 0.662976 -0.676090
H17   H     H_    0.453501 0.544986 0.643142 0.249137
H18   H     H_    0.545664 0.476834 0.668640 0.259121
N4    N     N_3   0.473730 0.461130 0.337024 -0.676090
H19   H     H_    0.546499 0.455014 0.356857 0.249137
H20   H     H_    0.454336 0.523166 0.331360 0.259121

loop_
_geom_bond_atom_site_label_1
_geom_bond_atom_site_label_2
_ccdc_geom_bond_type
O6    V2    S    
C23   C27   D    
O15   V3    S    
N1    H13   S    
C17   C29   S    
O2    V4    S    
C24   N3    S    
C1    C6    S    
C5    C10   A    
O8    V1    S    
N2    H16   S    
C6    C18   A    
C15   C22   S    
O4    C1    A    
O12   C13   A    
C29   O21   D    
C13   C24   S    
C14   C23   S    
C20   C32   S    
C32   H12   S    
O16   V4    S    
H3    C11   S    
O5    C1    A    
O7    C3    A    
C27   C28   S    
O8    C4    A    
V1    O19   S    
N1    H14   S    
C2    C5    S    
C6    C9    A    
C8    C20   A    
C7    C19   A    
O4    V3    S    
V3    O19   S    
C3    C8    S    
V4    O20   S    
C31   H11   S    
O18   C16   A    
N2    H15   S    
C9    C17   A    
N3    H18   S    
C21   C25   D    
C12   C20   A    
O9    C16   A    
O15   C13   A    
H5    C26   S    
C24   C28   D    
O13   V3    S    
O10   C15   A    
C31   O23   D    
C30   O22   D    
O11   C14   A    
O17   C15   A    
C7    C12   A    
H8    C27   S    
O10   V2    S    
O6    C2    A    
C22   N1    S    
O18   V3    S    
O1    C4    A    
C23   N4    S    
O2    C3    A    
O3    C2    A    
O11   V2    S    
N4    H19   S    
N4    H20   S    
O12   V1    S    
C21   N2    S    
C18   C30   S    
C10   C18   A    
C22   C26   D    
H1    C9    S    
O7    V2    S    
O16   C14   A    
H6    C25   S    
O14   V4    S    
H4    C12   S    
C8    C11   A    
O3    V4    S    
C30   H10   S    
O13   V1    S    
O14   V2    S    
O1    V3    S    
C25   C26   S    
V2    O20   S    
C4    C7    S    
C29   H9    S    
C5    C17   A    
O9    V1    S    
N3    H17   S    
C11   C19   A    
C19   C31   S    
C16   C21   S    
H2    C10   S    
C32   O24   D    
H7    C28   S    
O17   V4    S    
O5    V1    S    
