data_mof_unit_55922.cif
_audit_creation_date              2013-03-05T15:53:36-0500
_audit_creation_method            fapswitch 2.2
_symmetry_space_group_name_H-M    P1
_symmetry_Int_Tables_number       1
_space_group_crystal_system       triclinic
_cell_length_a                    9.9843
_cell_length_b                    10.6494
_cell_length_c                    13.654281
_cell_angle_alpha                 90.606807
_cell_angle_beta                  83.310903
_cell_angle_gamma                 90.859759
_cell_volume                      1441.7138165

loop_
_atom_site_label
_atom_site_type_symbol
_atom_site_description
_atom_site_fract_x
_atom_site_fract_y
_atom_site_fract_z
_atom_type_partial_charge
O1    O     O_R   0.385310 0.683220 0.500000 -0.625619
O2    O     O_R   0.614640 0.683250 0.500010 -0.555951
C1    C     C_R   0.501113 0.738998 0.504216 0.915153
O3    O     O_R   0.368830 0.499960 0.640340 -0.638814
O4    O     O_R   0.598160 0.499980 0.640350 -0.598341
C2    C     C_R   0.476194 0.501248 0.685329 0.915973
Zn1   Zn    Zn3+2 0.346870 0.499980 0.499990 0.979133
Zn2   Zn    Zn3+2 0.653130 0.500020 0.500010 1.082484
O5    O     O_R   0.385360 0.316750 0.499990 -0.622110
O6    O     O_R   0.614690 0.316780 0.500000 -0.553134
O7    O     O_R   0.401840 0.500020 0.359650 -0.627291
O8    O     O_R   0.631170 0.500040 0.359660 -0.563691
C3    C     C_R   0.498790 0.260804 0.492806 0.869733
C4    C     C_R   0.523728 0.500175 0.314871 0.852687
C5    C     C_1   0.539090 0.488413 0.211998 -0.108782
C6    C     C_2   0.542721 0.454906 0.023118 0.344310
C7    C     C_2   0.450838 0.517784 0.980116 -0.265003
C8    C     C_1   0.450985 0.513506 0.876412 0.131848
C9    C     C_1   0.544955 0.473858 0.125431 0.012571
C10   C     C_1   0.459621 0.507930 0.788894 -0.069209
H1    H     H_    0.381280 0.581080 0.022451 0.165912
C11   C     C_R   0.556315 0.860668 0.319912 -0.198242
H2    H     H_    0.580673 0.762222 0.321636 0.169172
C12   C     C_R   0.562372 0.917820 0.228308 -0.083355
C13   C     C_R   0.518712 0.041915 0.222221 0.290309
C14   C     C_R   0.476987 0.108994 0.310314 -0.167657
C15   C     C_R   0.497581 0.057817 0.403458 0.007364
C16   C     C_R   0.521765 0.929436 0.407999 0.058578
C17   C     C_R   0.508202 0.871644 0.500810 -0.173420
C18   C     C_R   0.489551 0.939287 0.590059 0.254261
C19   C     C_R   0.474539 0.068546 0.585658 -0.127459
C20   C     C_R   0.488727 0.127134 0.493219 -0.137136
C21   C     C_R   0.852957 0.401642 0.663077 0.345555
C22   C     C_R   0.899951 0.418930 0.755498 -0.227170
H3    H     H_    0.851500 0.370155 0.819363 0.246538
C23   C     C_R   0.011659 0.497240 0.764587 -0.113053
C24   C     C_R   0.089796 0.540360 0.678599 -0.036286
C25   C     C_R   0.055151 0.499729 0.586437 0.067695
C26   C     C_R   0.917987 0.468209 0.582283 -0.003593
N1    N     N_R   0.857120 0.501200 0.500900 -0.158368
C27   C     C_R   0.943302 0.528321 0.416848 0.356288
H4    H     H_    0.150727 0.531331 0.347398 0.190917
C28   C     C_R   0.085933 0.516969 0.415583 -0.132644
N2    N     N_R   0.142720 0.501280 0.500940 -0.125071
N3    N     N_R   0.776782 0.290153 0.646516 0.222604
O9    O     O_R   0.696960 0.242116 0.718737 -0.349871
O10   O     O_R   0.818784 0.217522 0.572290 -0.357498
C29   C     C_1   0.047223 0.528328 0.861566 0.284173
N4    N     N_1   0.075775 0.553187 0.939271 -0.118275
C30   C     C_1   0.164784 0.656530 0.683678 0.277953
N5    N     N_1   0.222447 0.750891 0.688102 -0.127022
N6    N     N_R   0.633481 0.366270 0.971853 0.225473
O11   O     O_R   0.747670 0.343511 0.004982 -0.331143
O12   O     O_R   0.590774 0.289911 0.906996 -0.282903
N7    N     N_R   0.495329 0.877476 0.683291 0.203380
O13   O     O_R   0.588959 0.796084 0.692173 -0.373432
O14   O     O_R   0.416485 0.910153 0.761797 -0.343434
C31   C     C_1   0.600724 0.843070 0.140939 0.317475
N8    N     N_1   0.631525 0.783161 0.070950 -0.130665
N9    N     N_R   0.513022 0.097588 0.127097 0.208832
O15   O     O_R   0.402137 0.146562 0.104538 -0.346214
O16   O     O_R   0.616155 0.090300 0.059744 -0.273285
C32   C     C_1   0.380216 0.207225 0.305106 0.273323
N10   N     N_1   0.298500 0.281802 0.299414 -0.117716
C33   C     C_1   0.437242 0.140974 0.675063 0.400518
N11   N     N_1   0.405688 0.198429 0.746224 -0.092037
N12   N     N_R   0.892090 0.571929 0.330241 0.218982
O17   O     O_R   0.829783 0.678524 0.333640 -0.375333
O18   O     O_R   0.934698 0.522831 0.244771 -0.358965

loop_
_geom_bond_atom_site_label_1
_geom_bond_atom_site_label_2
_geom_bond_distance
_ccdc_geom_bond_type
O4    Zn2   1.930858 S    
Zn1   O7    1.930858 S    
C28   N2    1.366980 A    
C25   N2    1.374663 A    
C24   C25   1.405654 A    
C13   N9    1.440926 S    
C2    C10   1.405657 S    
C18   N7    1.446790 S    
C3    C20   1.425566 S    
C8    C10   1.188951 T    
C19   C20   1.405288 A    
C14   C32   1.442500 S    
C18   C19   1.389587 A    
Zn2   O8    1.954090 S    
C6    N6    1.437376 S    
N7    O13   1.301103 A    
N7    O14   1.301375 A    
C7    C8    1.416082 S    
C13   C14   1.415873 A    
C33   N11   1.157425 T    
C27   N12   1.426602 S    
C11   C16   1.412171 A    
N3    O9    1.297944 A    
N6    O11   1.301516 A    
N9    O16   1.300911 A    
C5    C9    1.185268 T    
C24   C30   1.441653 S    
C27   C28   1.429081 A    
C1    C17   1.414294 S    
C14   C15   1.426813 A    
C17   C18   1.403998 A    
C23   C24   1.409000 A    
O3    Zn1   1.954090 S    
C29   N4    1.157288 T    
O3    C2    1.295923 A    
N1    C27   1.382197 A    
O8    C4    1.295246 A    
C21   C22   1.406043 A    
C23   C29   1.444260 S    
C22   C23   1.398921 A    
N3    O10   1.302089 A    
C6    C9    1.412098 S    
O4    C2    1.298595 A    
O7    C4    1.296718 A    
C11   C12   1.391379 A    
C6    C7    1.336781 D    
H4    C28   1.080947 S    
C15   C20   1.418596 A    
N12   O18   1.301697 A    
N12   O17   1.300432 A    
Zn1   O5    1.994420 S    
C15   C16   1.395176 A    
C21   N3    1.430561 S    
C12   C13   1.404087 A    
C12   C31   1.444322 S    
C22   H3    1.080759 S    
O2    Zn2   1.994423 S    
C26   N1    1.378253 A    
C19   C33   1.451422 S    
O5    C3    1.280752 A    
C4    C5    1.399620 S    
C16   C17   1.406111 A    
O1    Zn1   1.983124 S    
O2    C1    1.282519 A    
Zn2   N1    2.037998 S    
C30   N5    1.155141 T    
C31   N8    1.157318 T    
Zn1   N2    2.037080 S    
C21   C26   1.406059 A    
Zn2   O6    1.983122 S    
C7    H1    1.087707 S    
C11   H2    1.080894 S    
C32   N10   1.156711 T    
N6    O12   1.299853 A    
N9    O15   1.301058 A    
O1    C1    1.298905 A    
O6    C3    1.307137 A    
C25   C26   1.412551 A    
