data_mof_unit_63628.cif
_audit_creation_date              2012-12-10T20:32:57-0500
_audit_creation_method            fapswitch 2.2
_symmetry_space_group_name_H-M    P1
_symmetry_Int_Tables_number       1
_space_group_crystal_system       triclinic
_cell_length_a                    28.084334
_cell_length_b                    28.083418
_cell_length_c                    34.487642
_cell_angle_alpha                 89.999985
_cell_angle_beta                  89.99994
_cell_angle_gamma                 89.999651
_cell_volume                      27200.5443329

loop_
_atom_site_label
_atom_site_type_symbol
_atom_type_description
_atom_site_fract_x
_atom_site_fract_y
_atom_site_fract_z
_atom_type_partial_charge
C1    C     C_R   0.801228 0.698769 0.750003 -0.200283
C2    C     C_R   0.198768 0.698773 0.749997 -0.200290
C3    C     C_1   0.265123 0.765129 0.250005 0.197508
C4    C     C_1   0.234875 0.265128 0.750004 0.197543
C5    C     C_1   0.765124 0.734872 0.249996 0.197533
C6    C     C_1   0.265124 0.765129 0.749996 0.197515
C7    C     C_1   0.734876 0.234872 0.250004 0.197507
C8    C     C_1   0.765128 0.265124 0.250004 0.197522
C9    C     C_1   0.234871 0.734876 0.749996 0.197527
C10   C     C_1   0.734872 0.765124 0.249997 0.197549
C11   C     C_1   0.265128 0.234876 0.750003 0.197558
C12   C     C_1   0.234870 0.734877 0.250005 0.197522
C13   C     C_R   0.698768 0.801227 0.249997 -0.200334
C14   C     C_1   0.765129 0.265123 0.749995 0.197527
C15   C     C_1   0.265128 0.234876 0.249997 0.197566
C16   C     C_1   0.734871 0.765124 0.750004 0.197575
C17   C     C_R   0.001388 0.413270 0.979769 -0.184765
C18   C     C_R   0.998613 0.586730 0.020231 -0.184774
C19   C     C_R   0.586748 0.998569 0.979768 -0.184737
C20   C     C_R   0.413252 0.001431 0.020232 -0.184731
C21   C     C_R   0.998613 0.586730 0.979768 -0.184775
C22   C     C_R   0.001388 0.413270 0.020231 -0.184759
C23   C     C_R   0.413252 0.001431 0.979769 -0.184730
C24   C     C_R   0.301232 0.198773 0.750003 -0.200341
C25   C     C_R   0.586748 0.998569 0.020231 -0.184736
C26   C     C_R   0.504546 0.086634 0.479768 -0.184752
C27   C     C_R   0.495454 0.913366 0.520232 -0.184759
C28   C     C_R   0.913265 0.499040 0.479769 -0.184761
C29   C     C_R   0.086735 0.500959 0.520231 -0.184752
C30   C     C_R   0.495454 0.913366 0.479768 -0.184757
C31   C     C_R   0.504546 0.086634 0.520232 -0.184752
C32   C     C_R   0.086735 0.500959 0.479769 -0.184745
C33   C     C_R   0.913265 0.499040 0.520231 -0.184760
C34   C     C_R   0.999323 0.543295 0.918819 -0.229524
C35   C     C_R   0.198767 0.698774 0.250004 -0.200280
C36   C     C_R   0.000678 0.456705 0.081181 -0.229523
C37   C     C_R   0.456696 0.000699 0.918819 -0.229489
C38   C     C_R   0.543304 0.999301 0.081181 -0.229493
C39   C     C_R   0.000677 0.456704 0.918819 -0.229514
C40   C     C_R   0.999323 0.543296 0.081181 -0.229519
C41   C     C_R   0.543303 0.999301 0.918819 -0.229493
C42   C     C_R   0.456697 0.000698 0.081181 -0.229489
C43   C     C_R   0.497781 0.956750 0.418817 -0.229512
C44   C     C_R   0.502218 0.043250 0.581183 -0.229508
C45   C     C_R   0.043298 0.500466 0.418819 -0.229518
C46   C     C_R   0.801233 0.301226 0.749996 -0.200291
C47   C     C_R   0.956702 0.499534 0.581181 -0.229518
C48   C     C_R   0.502219 0.043249 0.418817 -0.229504
C49   C     C_R   0.497781 0.956751 0.581183 -0.229509
C50   C     C_R   0.956702 0.499534 0.418819 -0.229517
C51   C     C_R   0.043298 0.500466 0.581181 -0.229513
C52   C     C_R   1.000000 0.499999 0.898454 -0.051773
C53   C     C_R   0.000001 0.500000 0.101546 -0.051769
C54   C     C_R   0.500000 1.000000 0.898454 -0.051747
C55   C     C_R   0.500000 0.000000 0.101546 -0.051747
C56   C     C_R   0.500000 1.000000 0.398453 -0.051670
C57   C     C_R   0.301231 0.198773 0.249997 -0.200272
C58   C     C_R   0.500000 0.000000 0.601547 -0.051670
C59   C     C_R   1.000000 0.500000 0.398453 -0.051765
C60   C     C_R   0.000000 0.499999 0.601546 -0.051768
C61   C     C_R   0.000692 0.456406 0.959295 0.103854
C62   C     C_R   0.999308 0.543594 0.040705 0.103859
C63   C     C_R   0.543603 0.999287 0.959295 0.103875
C64   C     C_R   0.456397 0.000713 0.040705 0.103872
C65   C     C_R   0.999307 0.543594 0.959295 0.103861
C66   C     C_R   0.000693 0.456406 0.040705 0.103859
C67   C     C_R   0.456396 0.000713 0.959295 0.103872
C68   C     C_R   0.698768 0.801227 0.750003 -0.200268
C69   C     C_R   0.543604 0.999287 0.040705 0.103875
C70   C     C_R   0.502264 0.043548 0.459294 0.103903
C71   C     C_R   0.497736 0.956452 0.540706 0.103905
C72   C     C_R   0.956403 0.499521 0.459295 0.103857
C73   C     C_R   0.043597 0.500478 0.540705 0.103852
C74   C     C_R   0.497736 0.956452 0.459294 0.103908
C75   C     C_R   0.502264 0.043548 0.540706 0.103905
C76   C     C_R   0.043597 0.500478 0.459295 0.103855
C77   C     C_R   0.956403 0.499521 0.540705 0.103857
C78   C     C_R   0.500000 1.000000 0.855931 0.826712
C79   C     C_R   0.840290 0.702611 0.775043 0.623762
C80   C     C_R   0.500000 0.000000 0.144069 0.826712
C81   C     C_R   1.000000 0.500000 0.855931 0.826724
C82   C     C_R   0.000000 0.500000 0.144069 0.826715
C83   C     C_R   1.000000 0.500000 0.355931 0.826698
C84   C     C_R   0.000000 0.500000 0.644069 0.826707
C85   C     C_R   0.500000 1.000000 0.355931 0.826651
C86   C     C_R   0.500000 0.000000 0.644069 0.826651
C87   C     C_R   0.409016 0.909015 0.750000 0.876804
C88   C     C_R   0.590984 0.090985 0.250000 0.876802
C89   C     C_R   0.909016 0.590985 0.750000 0.876874
C90   C     C_R   0.159920 0.297600 0.224732 0.623745
C91   C     C_R   0.090984 0.409015 0.250000 0.876879
C92   C     C_R   0.590984 0.090984 0.750000 0.876804
C93   C     C_R   0.409015 0.909015 0.250000 0.876802
C94   C     C_R   0.090984 0.409015 0.750000 0.876877
C95   C     C_R   0.909016 0.590985 0.250000 0.876873
C96   C     C_R   0.409016 0.090985 0.250000 0.876940
C97   C     C_R   0.590984 0.909015 0.750000 0.876941
C98   C     C_R   0.909016 0.409015 0.250000 0.876890
C99   C     C_R   0.090984 0.590985 0.750000 0.876885
C100  C     C_R   0.590984 0.909015 0.250000 0.876933
C101  C     C_R   0.702604 0.159715 0.775046 0.623792
C102  C     C_R   0.409016 0.090985 0.750000 0.876936
C103  C     C_R   0.090984 0.590985 0.250000 0.876889
C104  C     C_R   0.909016 0.409015 0.750000 0.876884
C105  C     C_R   0.000000 0.500000 0.979635 0.065729
C106  C     C_R   0.000000 0.500000 0.020365 0.065729
C107  C     C_R   0.500000 1.000000 0.979635 0.065655
C108  C     C_R   0.500000 0.000000 0.020365 0.065655
C109  C     C_R   0.500000 1.000000 0.479635 0.065667
C110  C     C_R   0.500000 0.000000 0.520365 0.065668
C111  C     C_R   1.000000 0.500000 0.479635 0.065720
C112  C     C_R   0.198771 0.301231 0.249997 -0.200094
C113  C     C_R   0.297396 0.840285 0.224954 0.623787
C114  C     C_R   1.000000 0.500000 0.520365 0.065720
C115  C     C_R   0.159695 0.297374 0.775027 0.623764
C116  C     C_R   0.840305 0.702626 0.224973 0.623754
C117  C     C_R   0.297395 0.840286 0.775045 0.623789
C118  C     C_R   0.702604 0.159714 0.224955 0.623784
C119  C     C_R   0.840224 0.297455 0.224883 0.623796
C120  C     C_R   0.159767 0.702554 0.775107 0.623811
C121  C     C_R   0.702643 0.840325 0.224996 0.623761
C122  C     C_R   0.297357 0.159675 0.775004 0.623769
C123  C     C_R   0.159773 0.702548 0.224886 0.623807
C124  C     C_R   0.698773 0.198768 0.749995 -0.200251
C125  C     C_R   0.840235 0.297444 0.775105 0.623811
C126  C     C_R   0.297311 0.159629 0.225054 0.623765
C127  C     C_R   0.702697 0.840379 0.774936 0.623764
C128  C     C_R   0.340373 0.202695 0.274941 0.623853
C129  C     C_R   0.659618 0.797297 0.725070 0.623853
C130  C     C_R   0.202541 0.659777 0.275120 0.623728
C131  C     C_R   0.797451 0.340231 0.724889 0.623744
C132  C     C_R   0.659673 0.797351 0.274999 0.623846
C133  C     C_R   0.340327 0.202649 0.725001 0.623856
C134  C     C_R   0.797460 0.340221 0.275122 0.623739
C135  C     C_R   0.301227 0.801232 0.250005 -0.200246
C136  C     C_R   0.202548 0.659770 0.724888 0.623744
C137  C     C_R   0.340282 0.797398 0.724947 0.623718
C138  C     C_R   0.659718 0.202602 0.275053 0.623712
C139  C     C_R   0.202627 0.340308 0.724978 0.623822
C140  C     C_R   0.797373 0.659691 0.275021 0.623813
C141  C     C_R   0.659720 0.202601 0.724945 0.623714
C142  C     C_R   0.340280 0.797399 0.275055 0.623708
C143  C     C_R   0.797388 0.659707 0.724963 0.623821
C144  C     C_R   0.202400 0.340083 0.275262 0.623807
C145  C     C_R   0.875431 0.667461 0.775036 -0.266647
C146  C     C_R   0.198772 0.301231 0.750003 -0.200309
C147  C     C_R   0.124775 0.332747 0.224744 -0.266654
C148  C     C_R   0.667453 0.124574 0.775039 -0.266487
C149  C     C_R   0.332547 0.875426 0.224961 -0.266493
C150  C     C_R   0.124553 0.332524 0.775020 -0.266644
C151  C     C_R   0.875446 0.667476 0.224980 -0.266650
C152  C     C_R   0.332546 0.875427 0.775038 -0.266485
C153  C     C_R   0.667454 0.124573 0.224962 -0.266488
C154  C     C_R   0.875365 0.332605 0.224890 -0.266486
C155  C     C_R   0.124626 0.667404 0.775100 -0.266489
C156  C     C_R   0.667492 0.875466 0.225003 -0.266665
C157  C     C_R   0.801228 0.698769 0.249997 -0.200302
C158  C     C_R   0.332508 0.124534 0.774997 -0.266659
C159  C     C_R   0.124632 0.667398 0.224893 -0.266496
C160  C     C_R   0.875376 0.332594 0.775098 -0.266491
C161  C     C_R   0.332463 0.124489 0.225060 -0.266674
C162  C     C_R   0.667545 0.875519 0.774930 -0.266675
C163  C     C_R   0.375512 0.167542 0.274937 -0.266335
C164  C     C_R   0.624479 0.832450 0.725074 -0.266337
C165  C     C_R   0.167392 0.624634 0.275111 -0.266616
C166  C     C_R   0.832600 0.375374 0.724898 -0.266619
C167  C     C_R   0.624533 0.832503 0.274995 -0.266329
C168  C     C_R   0.301228 0.801232 0.749996 -0.200251
C169  C     C_R   0.375467 0.167497 0.725005 -0.266324
C170  C     C_R   0.832609 0.375364 0.275112 -0.266626
C171  C     C_R   0.167399 0.624628 0.724897 -0.266621
C172  C     C_R   0.375424 0.832547 0.724956 -0.266828
C173  C     C_R   0.624576 0.167453 0.275044 -0.266834
C174  C     C_R   0.167476 0.375449 0.724984 -0.266506
C175  C     C_R   0.832524 0.624551 0.275016 -0.266513
C176  C     C_R   0.624577 0.167452 0.724955 -0.266826
C177  C     C_R   0.375423 0.832548 0.275045 -0.266829
C178  C     C_R   0.832539 0.624567 0.724968 -0.266511
C179  C     C_R   0.698772 0.198769 0.250004 -0.200248
C180  C     C_R   0.167252 0.375227 0.275252 -0.266514
C181  C     C_R   0.871887 0.628113 0.750001 -0.196878
C182  C     C_R   0.128112 0.371888 0.249998 -0.196898
C183  C     C_R   0.628113 0.128112 0.749998 -0.196828
C184  C     C_R   0.371887 0.871888 0.250002 -0.196825
C185  C     C_R   0.128113 0.371887 0.750001 -0.196876
C186  C     C_R   0.871887 0.628113 0.249999 -0.196872
C187  C     C_R   0.371887 0.871888 0.749998 -0.196827
C188  C     C_R   0.628113 0.128112 0.250002 -0.196825
C189  C     C_R   0.871888 0.371886 0.250001 -0.196871
C190  C     C_R   0.801231 0.301227 0.250003 -0.200278
C191  C     C_R   0.128112 0.628114 0.749999 -0.196871
C192  C     C_R   0.628112 0.871886 0.249999 -0.196937
C193  C     C_R   0.371888 0.128114 0.750001 -0.196940
C194  C     C_R   0.128111 0.628114 0.250001 -0.196871
C195  C     C_R   0.871889 0.371886 0.749999 -0.196870
C196  C     C_R   0.371888 0.128114 0.249999 -0.196979
C197  C     C_R   0.628111 0.871886 0.750001 -0.196984
C198  C     C_1   0.765124 0.734872 0.750004 0.197539
C199  C     C_1   0.234875 0.265128 0.249997 0.197598
C200  C     C_1   0.734876 0.234871 0.749995 0.197515
F1    F     F_    0.844389 0.740328 0.799449 -0.602283
F2    F     F_    0.155730 0.740209 0.799586 -0.602171
F3    F     F_    0.740391 0.844459 0.200626 -0.602268
F4    F     F_    0.259608 0.155541 0.799374 -0.602258
F5    F     F_    0.155743 0.740197 0.200400 -0.602177
F6    F     F_    0.844273 0.259787 0.799582 -0.602168
F7    F     F_    0.259516 0.155449 0.200743 -0.602283
F8    F     F_    0.740500 0.844567 0.799237 -0.602282
F9    F     F_    0.344552 0.240492 0.299251 -0.602102
F10   F     F_    0.655431 0.759491 0.700770 -0.602101
F11   F     F_    0.240187 0.655746 0.299608 -0.602294
F12   F     F_    0.156035 0.260097 0.200097 -0.602379
F13   F     F_    0.759797 0.344271 0.700410 -0.602280
F14   F     F_    0.655540 0.759600 0.299368 -0.602085
F15   F     F_    0.344460 0.240400 0.700631 -0.602075
F16   F     F_    0.759816 0.344251 0.299612 -0.602288
F17   F     F_    0.240201 0.655732 0.700407 -0.602279
F18   F     F_    0.344370 0.759693 0.700525 -0.602333
F19   F     F_    0.655630 0.240307 0.299475 -0.602340
F20   F     F_    0.240358 0.344424 0.700587 -0.602146
F21   F     F_    0.759642 0.655576 0.299413 -0.602157
F22   F     F_    0.655633 0.240305 0.700522 -0.602334
F23   F     F_    0.740307 0.155626 0.799468 -0.602162
F24   F     F_    0.344366 0.759695 0.299478 -0.602342
F25   F     F_    0.759672 0.655606 0.700557 -0.602169
F26   F     F_    0.239902 0.343970 0.299897 -0.602266
F27   F     F_    0.259692 0.844374 0.200532 -0.602170
F28   F     F_    0.155581 0.259643 0.799419 -0.602260
F29   F     F_    0.844419 0.740357 0.200581 -0.602270
F30   F     F_    0.259690 0.844375 0.799466 -0.602163
F31   F     F_    0.740310 0.155625 0.200534 -0.602171
F32   F     F_    0.844252 0.259809 0.200394 -0.602186
H1    H     H_    0.905360 0.671082 0.794618 0.210624
H2    H     H_    0.094746 0.670977 0.794737 0.210684
H3    H     H_    0.671140 0.905423 0.205452 0.210632
H4    H     H_    0.328860 0.094577 0.794548 0.210634
H5    H     H_    0.094758 0.670966 0.205250 0.210682
H6    H     H_    0.905257 0.329020 0.794734 0.210684
H7    H     H_    0.328779 0.094496 0.205557 0.210649
H8    H     H_    0.671236 0.905519 0.794426 0.210651
H9    H     H_    0.405504 0.171227 0.294441 0.210804
H10   H     H_    0.594480 0.828758 0.705577 0.210807
H11   H     H_    0.170959 0.594758 0.294752 0.210627
H12   H     H_    0.095015 0.329295 0.204983 0.210595
H13   H     H_    0.829026 0.405256 0.705263 0.210624
H14   H     H_    0.594577 0.828854 0.294546 0.210789
H15   H     H_    0.405422 0.171146 0.705454 0.210791
H16   H     H_    0.829044 0.405238 0.294756 0.210621
H17   H     H_    0.170972 0.594746 0.705260 0.210623
H18   H     H_    0.405346 0.828932 0.705369 0.210546
H19   H     H_    0.594653 0.171068 0.294631 0.210544
H20   H     H_    0.171108 0.405390 0.705414 0.210693
H21   H     H_    0.828892 0.594611 0.294586 0.210691
H22   H     H_    0.594656 0.171066 0.705366 0.210547
H23   H     H_    0.671066 0.094653 0.794629 0.210693
H24   H     H_    0.405344 0.828934 0.294634 0.210545
H25   H     H_    0.828919 0.594638 0.705385 0.210689
H26   H     H_    0.170703 0.404988 0.295013 0.210662
H27   H     H_    0.998785 0.576812 0.903211 0.174730
H28   H     H_    0.001215 0.423188 0.096789 0.174726
H29   H     H_    0.423173 0.001254 0.903212 0.174718
H30   H     H_    0.576827 0.998746 0.096788 0.174717
H31   H     H_    0.001214 0.423187 0.903211 0.174731
H32   H     H_    0.998786 0.576813 0.096789 0.174729
H33   H     H_    0.576826 0.998746 0.903211 0.174720
H34   H     H_    0.328934 0.905348 0.205371 0.210691
H35   H     H_    0.423173 0.001254 0.096789 0.174721
H36   H     H_    0.496003 0.923276 0.403207 0.174633
H37   H     H_    0.503996 0.076724 0.596793 0.174634
H38   H     H_    0.076818 0.500834 0.403211 0.174730
H39   H     H_    0.923182 0.499165 0.596789 0.174735
H40   H     H_    0.503997 0.076724 0.403207 0.174636
H41   H     H_    0.496003 0.923276 0.596793 0.174635
H42   H     H_    0.923182 0.499166 0.403211 0.174734
H43   H     H_    0.076818 0.500834 0.596789 0.174736
H44   H     H_    0.001929 0.379553 0.964488 0.167350
H45   H     H_    0.094613 0.328890 0.794589 0.210627
H46   H     H_    0.998072 0.620447 0.035512 0.167345
H47   H     H_    0.620469 0.998005 0.964487 0.167319
H48   H     H_    0.379531 0.001995 0.035513 0.167323
H49   H     H_    0.998072 0.620446 0.964487 0.167345
H50   H     H_    0.001929 0.379554 0.035513 0.167354
H51   H     H_    0.379530 0.001995 0.964488 0.167322
H52   H     H_    0.620469 0.998005 0.035512 0.167319
H53   H     H_    0.506329 0.120311 0.464487 0.167326
H54   H     H_    0.493671 0.879689 0.535513 0.167323
H55   H     H_    0.879545 0.498668 0.464487 0.167339
H56   H     H_    0.905387 0.671109 0.205411 0.210625
H57   H     H_    0.120455 0.501331 0.535513 0.167344
H58   H     H_    0.493671 0.879689 0.464487 0.167322
H59   H     H_    0.506329 0.120311 0.535513 0.167325
H60   H     H_    0.120455 0.501331 0.464487 0.167347
H61   H     H_    0.879545 0.498668 0.535513 0.167339
H62   H     H_    0.328931 0.905349 0.794627 0.210694
H63   H     H_    0.671068 0.094651 0.205373 0.210693
H64   H     H_    0.905238 0.329039 0.205245 0.210688
O1    O     O_3   0.500000 0.000000 0.750000 -0.489524
O2    O     O_R   0.539300 0.000000 0.162640 -0.644174
O3    O     O_R   1.000000 0.539300 0.837360 -0.644186
O4    O     O_R   1.000000 0.460700 0.162640 -0.644208
O5    O     O_R   0.039300 0.500000 0.337360 -0.644209
O6    O     O_R   0.960700 0.500000 0.662640 -0.644186
O7    O     O_R   0.500000 0.960700 0.337360 -0.644130
O8    O     O_R   0.500000 0.039300 0.662640 -0.644129
O9    O     O_R   0.960700 0.500000 0.337360 -0.644183
O10   O     O_R   0.039300 0.500000 0.662640 -0.644184
O11   O     O_R   0.500000 0.039300 0.337360 -0.644121
O12   O     O_3   0.500000 0.000000 0.250000 -0.489523
O13   O     O_R   0.500000 0.960700 0.662640 -0.644121
O14   O     O_R   0.405600 0.944810 0.772850 -0.641506
O15   O     O_R   0.594400 0.055190 0.227150 -0.641506
O16   O     O_R   0.944810 0.594400 0.772850 -0.641655
O17   O     O_R   0.055190 0.405600 0.227150 -0.641647
O18   O     O_R   0.594400 0.055190 0.772850 -0.641513
O19   O     O_R   0.405600 0.944810 0.227150 -0.641513
O20   O     O_R   0.055190 0.405600 0.772850 -0.641654
O21   O     O_R   0.944810 0.594400 0.227150 -0.641655
O22   O     O_R   0.405600 0.055190 0.227150 -0.641682
O23   O     O_3   1.000000 0.500000 0.750000 -0.489516
O24   O     O_R   0.594400 0.944810 0.772850 -0.641682
O25   O     O_R   0.944810 0.405600 0.227150 -0.641503
O26   O     O_R   0.055190 0.594400 0.772850 -0.641528
O27   O     O_R   0.594400 0.944810 0.227150 -0.641683
O28   O     O_R   0.405600 0.055190 0.772850 -0.641681
O29   O     O_R   0.055190 0.594400 0.227150 -0.641533
O30   O     O_R   0.944810 0.405600 0.772850 -0.641530
O31   O     O_R   0.905600 0.444810 0.272850 -0.641644
O32   O     O_R   0.094400 0.555190 0.727150 -0.641640
O33   O     O_R   0.444810 0.094400 0.272850 -0.641392
O34   O     O_3   0.000000 0.500000 0.250000 -0.489518
O35   O     O_R   0.555190 0.905600 0.727150 -0.641393
O36   O     O_R   0.094400 0.555190 0.272850 -0.641614
O37   O     O_R   0.905600 0.444810 0.727150 -0.641638
O38   O     O_R   0.555190 0.905600 0.272850 -0.641392
O39   O     O_R   0.444810 0.094400 0.727150 -0.641391
O40   O     O_R   0.905600 0.555190 0.727150 -0.641535
O41   O     O_R   0.094400 0.444810 0.272850 -0.641529
O42   O     O_R   0.444810 0.905600 0.727150 -0.641800
O43   O     O_R   0.555190 0.094400 0.272850 -0.641800
O44   O     O_R   0.094400 0.444810 0.727150 -0.641534
O45   O     O_R   0.539300 0.000000 0.837360 -0.644167
O46   O     O_R   0.905600 0.555190 0.272850 -0.641535
O47   O     O_R   0.555190 0.094400 0.727150 -0.641792
O48   O     O_R   0.444810 0.905600 0.272850 -0.641792
O49   O     O_R   0.460700 0.000000 0.162640 -0.644167
O50   O     O_R   1.000000 0.460700 0.837360 -0.644183
O51   O     O_R   1.000000 0.539300 0.162640 -0.644182
O52   O     O_R   0.460700 0.000000 0.837360 -0.644174
Zn1   Zn    Zn3+2 0.500000 0.943960 0.717190 0.989229
Zn2   Zn    Zn3+2 1.000000 0.556040 0.782810 0.989217
Zn3   Zn    Zn3+2 0.443960 0.000000 0.217190 0.989205
Zn4   Zn    Zn3+2 0.556040 0.000000 0.782810 0.989205
Zn5   Zn    Zn3+2 1.000000 0.556040 0.217190 0.989214
Zn6   Zn    Zn3+2 1.000000 0.443960 0.782810 0.989219
Zn7   Zn    Zn3+2 0.556040 0.000000 0.217190 0.989202
Zn8   Zn    Zn3+2 0.443960 0.000000 0.782810 0.989206
Zn9   Zn    Zn3+2 0.500000 0.056040 0.282810 0.989228
Zn10  Zn    Zn3+2 0.943960 0.500000 0.717190 0.989213
Zn11  Zn    Zn3+2 0.056040 0.500000 0.282810 0.989220
Zn12  Zn    Zn3+2 0.500000 0.056040 0.717190 0.989229
Zn13  Zn    Zn3+2 0.500000 0.943960 0.282810 0.989226
Zn14  Zn    Zn3+2 0.056040 0.500000 0.717190 0.989216
Zn15  Zn    Zn3+2 0.943960 0.500000 0.282810 0.989211
Zn16  Zn    Zn3+2 1.000000 0.443960 0.217190 0.989224

loop_
_geom_bond_atom_site_label_1
_geom_bond_atom_site_label_2
_ccdc_geom_bond_type
C159  C194  A    
C102  C193  S    
C101  C148  A    
C18   C21   A    
C102  O39   A    
C41   H33   S    
C1    C198  S    
C94   C185  S    
C57   C128  A    
C91   O17   A    
C27   C71   A    
O9    Zn15  S    
C153  H63   S    
O6    Zn10  S    
C154  H64   S    
C50   C59   A    
C81   O3    A    
C82   O4    A    
C142  C177  A    
C83   O9    A    
C156  H3    S    
O8    Zn12  S    
C117  F30   S    
C123  F5    S    
C118  C153  A    
C143  C178  A    
C177  H24   S    
C50   C72   A    
C36   C53   A    
C17   C61   A    
C139  F20   S    
C28   H55   S    
C38   C55   A    
C131  C166  A    
C8    C190  S    
C79   F1    S    
O44   Zn14  S    
C119  C190  A    
C61   C105  A    
O27   Zn7   S    
O26   Zn2   S    
C83   O5    A    
C38   C69   A    
C49   H41   S    
O14   Zn8   S    
O37   Zn10  S    
C103  O29   A    
C150  C185  A    
C152  C187  A    
C180  C182  A    
O34   Zn5   S    
C39   C61   A    
C158  C193  A    
C133  F15   S    
C96   O22   A    
C169  C193  A    
C136  F17   S    
C120  C155  A    
C73   C114  A    
C161  C196  A    
C53   C82   S    
C102  O28   A    
C42   C55   A    
O23   Zn2   S    
C136  C171  A    
C126  F7    S    
C50   H42   S    
C122  C158  A    
C84   O6    A    
C173  C188  A    
C85   O7    A    
C154  C189  A    
C28   C33   A    
C86   O8    A    
C1    C79   A    
O39   Zn12  S    
C25   C69   A    
C95   O21   A    
C42   C64   A    
C46   C131  A    
C16   C198  T    
C164  C197  A    
C80   O49   A    
C45   C59   A    
O21   Zn5   S    
C48   C70   A    
C62   C106  A    
O11   Zn9   S    
C177  C184  A    
C171  H17   S    
C38   H30   S    
C175  C186  A    
C55   C80   S    
C130  C165  A    
C123  C159  A    
C163  C196  A    
C104  C195  S    
C36   C66   A    
C128  C163  A    
C49   C71   A    
C100  O27   A    
O10   Zn14  S    
O50   Zn6   S    
C137  C168  A    
C95   C186  S    
O34   Zn11  S    
C27   H54   S    
C151  C186  A    
C90   F12   S    
C20   C64   A    
C121  C156  A    
C131  F13   S    
C120  F2    S    
O46   Zn15  S    
C99   O26   A    
C6    C9    T    
C125  C160  A    
C7    C8    T    
C115  C146  A    
O12   Zn3   S    
O38   Zn13  S    
C98   O31   A    
O23   Zn6   S    
C30   C74   A    
C31   H59   S    
C113  F27   S    
C117  C168  A    
C5    C10   T    
C145  C181  A    
C162  H8    S    
C23   C67   A    
O18   Zn4   S    
C21   H49   S    
O5    Zn11  S    
C158  H4    S    
C13   C132  A    
C144  C180  A    
O7    Zn13  S    
C149  C184  A    
C107  C108  A    
C165  H11   S    
C103  C194  S    
O25   Zn16  S    
O33   Zn9   S    
O22   Zn3   S    
C130  F11   S    
C100  C192  S    
O19   Zn3   S    
C143  F25   S    
C138  C179  A    
C58   C86   S    
C65   C105  A    
C64   C108  A    
O4    Zn16  S    
C45   H38   S    
C6    C168  S    
C101  C124  A    
O13   Zn1   S    
C97   C197  S    
C121  F3    S    
C26   H53   S    
C22   H50   S    
C19   C63   A    
C2    C120  A    
C18   C62   A    
C87   C187  S    
O51   Zn5   S    
C93   O48   A    
C90   C147  A    
C13   C121  A    
C20   C23   A    
C96   C196  S    
C118  F31   S    
O1    Zn8   S    
C12   C35   S    
C35   C130  A    
C97   O35   A    
O32   Zn14  S    
C138  F19   S    
C127  C162  A    
C113  C135  A    
C124  C141  A    
C91   C182  S    
C156  C192  A    
O52   Zn8   S    
C100  O38   A    
C75   C110  A    
C20   H48   S    
C32   C76   A    
C94   O44   A    
C23   H51   S    
C167  H14   S    
O12   Zn7   S    
C51   H43   S    
C35   C123  A    
C150  H45   S    
O2    Zn7   S    
C84   O10   A    
C33   C77   A    
C76   C111  A    
C37   C67   A    
C94   O20   A    
C163  H9    S    
C36   H28   S    
C52   C81   S    
C47   H39   S    
C48   H40   S    
C134  C170  A    
C139  C174  A    
C51   C60   A    
C42   H35   S    
C2    C9    S    
C116  C151  A    
O30   Zn6   S    
C44   H37   S    
C99   O32   A    
C86   O13   A    
C19   H47   S    
C139  C146  A    
C145  H1    S    
C46   C125  A    
C132  C167  A    
C170  H16   S    
C165  C194  A    
C14   C46   S    
C173  H19   S    
O23   Zn14  S    
C170  C189  A    
C45   C76   A    
C59   C83   S    
C29   C32   A    
O20   Zn6   S    
O23   Zn10  S    
C174  C185  A    
O45   Zn4   S    
O1    Zn4   S    
C172  C187  A    
C71   C110  A    
C134  F16   S    
C122  F4    S    
C133  C169  A    
C137  C172  A    
O34   Zn15  S    
C98   O25   A    
C44   C58   A    
C141  C176  A    
C126  C161  A    
C180  H26   S    
O36   Zn11  S    
C72   C111  A    
C96   O33   A    
C28   C72   A    
C149  H34   S    
C98   C189  S    
O12   Zn9   S    
C89   O40   A    
O24   Zn4   S    
C155  H2    S    
C14   C200  T    
C10   C13   S    
O40   Zn10  S    
C88   O43   A    
C127  F8    S    
C178  H25   S    
C31   C75   A    
C138  C173  A    
C24   C122  A    
C171  C191  A    
C4    C11   T    
C68   C127  A    
C119  F32   S    
C160  C195  A    
C147  C182  A    
C119  C154  A    
C5    C157  S    
C26   C70   A    
C77   C114  A    
C89   O16   A    
C29   H57   S    
O35   Zn1   S    
O41   Zn11  S    
C95   O46   A    
C88   O15   A    
O43   Zn9   S    
C21   C65   A    
C135  C142  A    
C161  H7    S    
C153  C188  A    
C105  C106  A    
C124  C200  S    
C34   C52   A    
C17   C22   A    
O1    Zn12  S    
C115  F28   S    
C109  C110  A    
C99   C191  S    
O48   Zn13  S    
C174  H20   S    
C56   C85   S    
C147  H12   S    
C140  C175  A    
C172  H18   S    
C111  C114  A    
C3    C135  S    
C37   H29   S    
C178  C181  A    
C176  H22   S    
C116  C157  A    
O17   Zn16  S    
C129  C164  A    
O15   Zn7   S    
C103  O36   A    
C78   O52   A    
C129  F10   S    
C82   O51   A    
C89   C181  S    
C54   C78   S    
C24   C133  A    
C176  C183  A    
O31   Zn15  S    
C116  F29   S    
C40   H32   S    
C11   C24   S    
C90   C112  A    
C151  H56   S    
C74   C109  A    
C79   C145  A    
O16   Zn2   S    
C167  C192  A    
C162  C197  A    
C160  H6    S    
C81   O50   A    
C78   O45   A    
C148  C183  A    
C128  F9    S    
C93   C184  S    
C140  F21   S    
C29   C73   A    
C93   O19   A    
C125  F6    S    
O3    Zn2   S    
C40   C62   A    
C22   C66   A    
C3    C12   T    
C47   C60   A    
C18   H46   S    
O1    Zn1   S    
C137  F18   S    
C16   C68   S    
C164  H10   S    
C112  C199  S    
C80   O2    A    
C141  F22   S    
C118  C179  A    
C101  F23   S    
C87   O14   A    
C39   C52   A    
C26   C31   A    
O42   Zn1   S    
C27   C30   A    
C15   C57   S    
C144  F26   S    
C66   C106  A    
C85   O11   A    
C34   C65   A    
C142  F24   S    
C69   C108  A    
C175  H21   S    
C92   O18   A    
C113  C149  A    
C166  C195  A    
C92   O47   A    
C57   C126  A    
C97   O24   A    
C2    C136  A    
C49   C58   A    
O49   Zn3   S    
C44   C75   A    
C152  H62   S    
O28   Zn8   S    
C1    C143  A    
C70   C109  A    
C140  C157  A    
C15   C199  T    
C4    C146  S    
C159  H5    S    
C7    C179  S    
C112  C144  A    
C169  H15   S    
C25   H52   S    
C155  C191  A    
C37   C54   A    
C32   H60   S    
O12   Zn13  S    
C132  F14   S    
C47   C77   A    
C63   C107  A    
C17   H44   S    
C48   C56   A    
C166  H13   S    
C51   C73   A    
C92   C183  S    
C91   O41   A    
C134  C190  A    
C43   H36   S    
C39   H31   S    
C104  O37   A    
C60   C84   S    
C67   C107  A    
C43   C74   A    
C115  C150  A    
C34   H27   S    
C117  C152  A    
C68   C129  A    
C19   C25   A    
C87   O42   A    
C41   C54   A    
C30   H58   S    
O34   Zn16  S    
O47   Zn12  S    
C43   C56   A    
C88   C188  S    
C148  H23   S    
C40   C53   A    
C41   C63   A    
C104  O30   A    
C33   H61   S    
O29   Zn5   S    
