data_mof_unit_30305.cif
_audit_creation_date              2012-10-26T20:51:12-0400
_audit_creation_method            fapswitch 2.2
_symmetry_space_group_name_H-M    P1
_symmetry_Int_Tables_number       1
_space_group_crystal_system       triclinic
_cell_length_a                    13.004457
_cell_length_b                    10.836933
_cell_length_c                    9.544967
_cell_angle_alpha                 90.466508
_cell_angle_beta                  95.977086
_cell_angle_gamma                 90.239382
_cell_volume                      1337.78299228

loop_
_atom_site_label
_atom_site_type_symbol
_atom_type_description
_atom_site_fract_x
_atom_site_fract_y
_atom_site_fract_z
_atom_type_partial_charge
C1    C     C_R   0.497544 0.262399 0.499075 0.549837
C2    C     C_R   0.480279 0.934641 0.368993 -0.161304
C3    C     C_R   0.487766 0.871073 0.497750 0.007863
C4    C     C_R   0.300536 0.499691 0.473850 0.548861
C5    C     C_R   0.479281 0.938126 0.621529 0.024892
C6    C     C_3   0.543977 0.935498 0.760253 -0.277743
C7    C     C_3   0.542580 0.075350 0.759154 -0.262492
C8    C     C_R   0.587836 0.528555 0.086444 0.160289
C9    C     C_R   0.416651 0.459001 0.062180 -0.019040
C10   C     C_R   0.416624 0.459036 0.913474 -0.016440
C11   C     C_R   0.588135 0.527572 0.939118 0.156352
C12   C     C_R   0.027945 0.498234 0.567593 0.048967
C13   C     C_3   0.648190 0.645004 0.942753 -0.281140
C14   C     C_3   0.646914 0.646837 0.101503 -0.274446
C15   C     C_R   0.498224 0.737822 0.500011 0.550188
C16   C     C_R   0.699472 0.499321 0.526150 0.546913
C17   C     C_R   0.812252 0.497921 0.541223 0.000159
C18   C     C_R   0.187780 0.498765 0.458796 0.002643
C19   C     C_R   0.024507 0.495806 0.311629 -0.138659
C20   C     C_R   0.131979 0.496981 0.324721 -0.135584
C21   C     C_R   0.135332 0.499284 0.579809 -0.129217
C22   C     C_R   0.972119 0.496542 0.432464 0.048061
C23   C     C_R   0.864737 0.495894 0.420278 -0.131227
C24   C     C_R   0.868074 0.498534 0.675260 -0.138636
C25   C     C_R   0.975536 0.498798 0.688396 -0.138946
C26   C     C_R   0.478556 0.065183 0.620519 0.022212
C27   C     C_R   0.486374 0.129473 0.496134 0.007427
C28   C     C_R   0.479611 0.063356 0.368185 -0.161986
Cu1   Cu    Cu3+1 0.499990 0.499980 0.640670 0.936013
Cu2   Cu    Cu3+1 0.500010 0.500020 0.359330 0.933852
H1    H     H_    0.822332 0.493733 0.316379 0.114863
H2    H     H_    0.600912 0.723994 0.139903 0.145529
H3    H     H_    0.828889 0.498698 0.769870 0.121451
H4    H     H_    0.982479 0.494537 0.207408 0.097891
H5    H     H_    0.017530 0.499618 0.792634 0.097794
H6    H     H_    0.171235 0.496454 0.230061 0.120366
H7    H     H_    0.479315 0.110354 0.268431 0.135107
H8    H     H_    0.480178 0.885762 0.269556 0.131282
H9    H     H_    0.501102 0.896250 0.844500 0.133519
H10   H     H_    0.177798 0.500622 0.683795 0.112643
H11   H     H_    0.622237 0.896865 0.752030 0.131870
H12   H     H_    0.498732 0.116071 0.842044 0.139561
H13   H     H_    0.619850 0.117424 0.750834 0.142901
H14   H     H_    0.348628 0.427162 0.107461 0.112346
H15   H     H_    0.348555 0.427059 0.848578 0.114258
H16   H     H_    0.726746 0.632126 0.909353 0.117283
H17   H     H_    0.603133 0.720436 0.889578 0.145041
H18   H     H_    0.724909 0.635451 0.159153 0.120169
N1    N     N_R   0.500660 0.500930 0.148010 -0.231467
N2    N     N_R   0.500660 0.500890 0.852110 -0.231268
O1    O     O_R   0.500000 0.319640 0.618810 -0.499099
O2    O     O_R   0.500010 0.319680 0.381230 -0.505570
O3    O     O_R   0.348990 0.499960 0.599490 -0.515150
O4    O     O_R   0.349000 0.500000 0.361910 -0.513192
O5    O     O_R   0.499990 0.680320 0.618770 -0.497116
O6    O     O_R   0.500000 0.680360 0.381190 -0.507614
O7    O     O_R   0.651000 0.500000 0.638090 -0.505825
O8    O     O_R   0.651010 0.500040 0.400510 -0.505241

loop_
_geom_bond_atom_site_label_1
_geom_bond_atom_site_label_2
_ccdc_geom_bond_type
C8    C14   S    
C15   O5    A    
C6    C7    S    
C12   C21   A    
C7    H13   S    
C4    O3    A    
C18   C21   A    
C1    O1    A    
C9    C10   A    
C2    H8    S    
C24   H3    S    
C12   C25   A    
C16   O7    A    
C4    C18   S    
C15   O6    A    
C3    C5    A    
C10   H15   S    
C2    C3    A    
C3    C15   S    
C11   N2    A    
C16   O8    A    
C13   C14   S    
Cu2   O4    S    
C26   C27   A    
C17   C23   A    
C21   H10   S    
C7    C26   S    
C28   H7    S    
C25   H5    S    
C8    C11   A    
Cu2   O8    S    
Cu2   N1    S    
Cu1   O7    S    
C18   C20   A    
Cu1   N2    S    
C22   C23   A    
C5    C6    S    
C1    O2    A    
C23   H1    S    
C17   C24   A    
Cu1   Cu2   S    
C5    C26   A    
C10   N2    A    
C12   C22   A    
C11   C13   S    
C19   C22   A    
C9    N1    A    
C24   C25   A    
C13   H17   S    
Cu1   O1    S    
C7    H12   S    
C27   C28   A    
C1    C27   S    
C14   H18   S    
Cu2   O2    S    
C13   H16   S    
C9    H14   S    
C2    C28   A    
Cu1   O5    S    
C4    O4    A    
C6    H9    S    
Cu2   O6    S    
C8    N1    A    
C19   H4    S    
C19   C20   A    
C14   H2    S    
C16   C17   S    
Cu1   O3    S    
C6    H11   S    
C20   H6    S    
