data_mof_unit_25920.cif
_audit_creation_date              2012-12-10T17:18:54-0500
_audit_creation_method            fapswitch 2.2
_symmetry_space_group_name_H-M    P1
_symmetry_Int_Tables_number       1
_space_group_crystal_system       triclinic
_cell_length_a                    9.609464
_cell_length_b                    10.944015
_cell_length_c                    13.635625
_cell_angle_alpha                 95.135262
_cell_angle_beta                  73.804524
_cell_angle_gamma                 91.898873
_cell_volume                      1371.52076508

loop_
_atom_site_label
_atom_site_type_symbol
_atom_type_description
_atom_site_fract_x
_atom_site_fract_y
_atom_site_fract_z
_atom_type_partial_charge
C1    C     C_R   0.505469 0.736941 0.494140 0.794169
C2    C     C_R   0.452945 0.549511 0.971677 0.050990
C3    C     C_R   0.483798 0.500424 0.868334 0.100447
C4    C     C_R   0.551473 0.527363 0.029466 0.048207
C5    C     C_R   0.693058 0.485981 0.976250 0.148923
C6    C     C_R   0.723643 0.441636 0.874045 -0.223687
C7    C     C_R   0.616090 0.438334 0.824410 -0.147451
C8    C     C_R   0.510500 0.530856 0.137977 0.079274
C9    C     C_R   0.762313 0.496702 0.133443 -0.246667
C10   C     C_R   0.383046 0.517349 0.811574 -0.109576
C11   C     C_R   0.346153 0.860468 0.378748 -0.109317
C12   C     C_R   0.423618 0.499263 0.699008 0.802561
C13   C     C_R   0.232307 0.911586 0.352327 0.184677
C14   C     C_R   0.183123 0.027672 0.395861 -0.169963
C15   C     C_R   0.258645 0.097231 0.455302 -0.191006
C16   C     C_R   0.387298 0.053033 0.470958 0.090350
C17   C     C_R   0.416708 0.927061 0.445150 0.036198
C18   C     C_R   0.517096 0.870500 0.484381 -0.185740
C19   C     C_R   0.613898 0.943806 0.526838 -0.072052
C20   C     C_R   0.594787 0.071102 0.543620 -0.092671
C21   C     C_R   0.486486 0.127753 0.511445 -0.204923
C22   C     C_R   0.925530 0.346625 0.338031 0.222520
C23   C     C_R   0.494832 0.262547 0.505462 0.793314
C24   C     C_R   0.038462 0.291596 0.259754 -0.270124
C25   C     C_R   0.175357 0.289481 0.269572 -0.255834
C26   C     C_R   0.204541 0.349837 0.354082 -0.098969
C27   C     C_R   0.103663 0.427112 0.425673 0.151389
C28   C     C_R   0.954900 0.426812 0.422308 0.202009
C29   C     C_R   0.899556 0.563159 0.575423 0.258559
C30   C     C_R   0.048472 0.565582 0.572843 -0.059898
C31   C     C_R   0.576297 0.505089 0.301348 0.800741
C32   C     C_R   0.799086 0.478583 0.027617 -0.146709
C33   C     C_R   0.617114 0.513108 0.189557 -0.062990
C34   C     C_R   0.249860 0.573810 0.860517 -0.254372
C35   C     C_R   0.222564 0.628656 0.960165 0.026203
C36   C     C_R   0.328318 0.622941 0.012115 -0.244611
Cu1   Cu    Cu3+1 0.359340 0.500010 0.500010 0.949240
Cu2   Cu    Cu3+1 0.640660 0.499990 0.499990 1.003864
H1    H     H_    0.846134 0.487675 0.171347 0.183443
H2    H     H_    0.381221 0.769464 0.345175 0.151278
H3    H     H_    0.087608 0.064895 0.382463 0.176328
H4    H     H_    0.208846 0.181908 0.492218 0.193806
H5    H     H_    0.015736 0.236089 0.195958 0.158171
H6    H     H_    0.258166 0.235523 0.213762 0.172049
H7    H     H_    0.308837 0.331023 0.360152 0.209884
H8    H     H_    0.827706 0.400765 0.834511 0.147996
H9    H     H_    0.083821 0.618377 0.632628 0.140845
H10   H     H_    0.909241 0.452976 0.986211 0.143225
H11   H     H_    0.171150 0.583707 0.818302 0.184820
H12   H     H_    0.314190 0.679843 0.082618 0.184760
H13   H     H_    0.640875 0.387281 0.750826 0.198901
N1    N     N_R   0.852480 0.498790 0.499000 -0.186903
N2    N     N_R   0.148360 0.498710 0.498970 -0.216342
O1    O     O_R   0.381190 0.680360 0.500010 -0.577277
O2    O     O_R   0.618760 0.680340 0.500000 -0.564938
O3    O     O_R   0.323240 0.499990 0.650990 -0.588179
O4    O     O_R   0.560820 0.499960 0.650980 -0.574455
O5    O     O_R   0.381240 0.319660 0.500000 -0.622741
O6    O     O_R   0.618810 0.319640 0.499990 -0.537536
O7    O     O_R   0.439180 0.500040 0.349020 -0.578631
O8    O     O_R   0.676760 0.500010 0.349010 -0.566124
N3    N     N_3   0.166182 0.843917 0.282432 -0.582744
H14   H     H_    0.056029 0.833569 0.318993 0.284324
H15   H     H_    0.175354 0.896604 0.220607 0.234218
C37   C     C_2   0.683341 0.142076 0.602716 0.912262
O9    O     O_2   0.804294 0.179108 0.558953 -0.611774
O10   O     O_R   0.633251 0.154248 0.709530 -0.746698
H16   H     H_    0.710810 0.187109 0.742505 0.327737
N4    N     N_3   0.796589 0.621311 0.662730 -0.542179
H17   H     H_    0.848453 0.669137 0.712622 0.202146
H18   H     H_    0.739922 0.685145 0.637461 0.271576
N5    N     N_3   0.787687 0.298449 0.334443 -0.499434
H19   H     H_    0.785794 0.204882 0.345662 0.215437
H20   H     H_    0.775345 0.303301 0.261029 0.184527
N6    N     N_3   0.360156 0.529082 0.194987 -0.570799
H21   H     H_    0.295465 0.480579 0.154477 0.245764
H22   H     H_    0.323427 0.617541 0.222812 0.246056
C38   C     C_2   0.085428 0.695447 0.009074 0.831797
O11   O     O_2   0.006452 0.721500 0.957588 -0.602053
O12   O     O_R   0.044700 0.726946 0.114733 -0.780080
H23   H     H_    0.948177 0.770616 0.139277 0.337556
C39   C     C_2   0.743669 0.892179 0.547095 0.849032
O13   O     O_2   0.834664 0.838181 0.477031 -0.610929
O14   O     O_R   0.766752 0.912983 0.644112 -0.751483
H24   H     H_    0.864557 0.882617 0.645747 0.326289

loop_
_geom_bond_atom_site_label_1
_geom_bond_atom_site_label_2
_ccdc_geom_bond_type
C23   O5    A    
C16   C21   A    
C11   C13   A    
C31   O8    A    
C19   C20   A    
C4    C8    A    
C23   O6    A    
C26   C27   A    
Cu1   Cu2   S    
C18   C19   A    
C3    C7    A    
C5    C6    A    
C38   O12   S    
Cu2   N1    S    
C15   C16   A    
C9    H1    S    
C34   C35   A    
N4    H18   S    
N3    H15   S    
C9    C32   A    
Cu1   O3    S    
C13   N3    S    
C35   C36   A    
C16   C17   A    
C37   O10   S    
C31   C33   S    
C19   C39   S    
Cu1   O5    S    
C26   H7    S    
Cu2   O8    S    
Cu1   N2    S    
C22   C28   A    
C13   C14   A    
C9    C33   A    
C32   H10   S    
C11   H2    S    
C25   H6    S    
C22   N5    S    
C29   N4    S    
C30   N2    A    
Cu2   O2    S    
O10   H16   S    
C20   C37   S    
O14   H24   S    
N5    H20   S    
C38   O11   D    
N5    H19   S    
C25   C26   A    
C8    N6    S    
C31   O7    A    
C2    C4    A    
N6    H21   S    
N3    H14   S    
Cu2   O4    S    
C30   H9    S    
C17   C18   A    
C1    C18   S    
C10   C34   A    
C24   C25   A    
N6    H22   S    
C12   O3    A    
C10   C12   S    
C1    O1    A    
C12   O4    A    
C39   O13   D    
C39   O14   S    
C21   C23   S    
C22   C24   A    
Cu1   O1    S    
C36   H12   S    
C2    C36   A    
C11   C17   A    
C34   H11   S    
C6    H8    S    
C15   H4    S    
O12   H23   S    
C27   N2    A    
C6    C7    A    
C35   C38   S    
C5    C32   A    
C2    C3    A    
C1    O2    A    
C7    H13   S    
C3    C10   A    
C28   N1    A    
C14   H3    S    
C8    C33   A    
N4    H17   S    
Cu1   O7    S    
C29   C30   A    
Cu2   O6    S    
C4    C5    A    
C20   C21   A    
C37   O9    D    
C27   C28   A    
C24   H5    S    
C14   C15   A    
C29   N1    A    
