data_mof_unit_26847.cif
_audit_creation_date              2013-03-05T15:43:38-0500
_audit_creation_method            fapswitch 2.2
_symmetry_space_group_name_H-M    P1
_symmetry_Int_Tables_number       1
_space_group_crystal_system       triclinic
_cell_length_a                    8.216249
_cell_length_b                    15.166985
_cell_length_c                    18.763658
_cell_angle_alpha                 99.368344
_cell_angle_beta                  91.588109
_cell_angle_gamma                 99.803783
_cell_volume                      2269.6712628

loop_
_atom_site_label
_atom_site_type_symbol
_atom_site_description
_atom_site_fract_x
_atom_site_fract_y
_atom_site_fract_z
_atom_type_partial_charge
P1    P     P_3+3 0.038110 0.412300 0.335300 0.456649
O1    O     O_2   0.871030 0.438240 0.324420 -0.372195
O2    O     O_3   0.120590 0.445310 0.413740 -0.412313
O3    O     O_3   0.663040 0.605930 0.370050 -0.406141
O4    O     O_2   0.783623 0.546234 0.245241 -0.346103
O5    O     O_3   0.992104 0.293445 0.317579 -0.573544
O6    O     O_3   0.699235 0.705962 0.255315 -0.467529
H1    H     H_    0.758468 0.769653 0.361042 0.154620
C1    C     C_3   0.699146 0.863881 0.295531 -0.970507
H2    H     H_    0.829452 0.883033 0.281566 0.283759
H3    H     H_    0.615594 0.865797 0.248529 0.253342
P2    P     P_3+3 0.679950 0.711710 0.558590 0.570157
P3    P     P_3+3 0.132075 0.769744 0.405689 0.495054
O7    O     O_2   0.855660 0.723510 0.537160 -0.322998
O8    O     O_3   0.086340 0.654970 0.406630 -0.350344
O9    O     O_2   0.995169 0.807799 0.447598 -0.322852
O10   O     O_3   0.709906 0.715550 0.653080 -0.605301
O11   O     O_3   0.089615 0.783783 0.316554 -0.510472
C2    C     C_3   0.230557 0.775336 0.277131 0.217191
H4    H     H_    0.253018 0.704160 0.269332 0.091353
H5    H     H_    0.340096 0.821676 0.305546 -0.018670
C3    C     C_3   0.208392 0.804897 0.203856 -0.058396
H6    H     H_    0.150928 0.866803 0.210749 0.117415
C4    C     C_3   0.243925 0.742599 0.622924 0.382488
H7    H     H_    0.366698 0.726089 0.610498 0.090251
H8    H     H_    0.155510 0.717105 0.575314 0.147931
C5    C     C_3   0.256764 0.845012 0.641835 -0.828065
H9    H     H_    0.329974 0.871614 0.693619 0.250200
H10   H     H_    0.314748 0.879253 0.598938 0.228374
H11   H     H_    0.132389 0.861820 0.649269 0.317977
Ba1   Ba    Ba6+2 0.854120 0.540280 0.465540 1.600116
C6    C     C_3   0.949772 0.260524 0.381211 0.447272
H12   H     H_    0.841299 0.287594 0.402550 0.085770
H13   H     H_    0.053396 0.280404 0.422737 0.137524
C7    C     C_3   0.909281 0.157316 0.364319 -0.997350
H14   H     H_    0.792612 0.135148 0.329936 0.269343
H15   H     H_    0.894969 0.128939 0.415077 0.246809
H16   H     H_    0.011052 0.130325 0.335274 0.259733
C8    C     C_3   0.706952 0.798823 0.700131 1.550252
C9    C     C_3   0.597244 0.774956 0.762520 -1.080547
H17   H     H_    0.465089 0.765067 0.745456 0.259633
H18   H     H_    0.621620 0.829241 0.810868 0.257092
H19   H     H_    0.620252 0.710457 0.778016 0.267955
P4    P     P_3+3 0.151600 0.587780 0.664700 0.481928
O12   O     O_2   0.318670 0.561790 0.675630 -0.343622
O13   O     O_3   0.069120 0.554770 0.586270 -0.391692
O14   O     O_3   0.526680 0.394150 0.629950 -0.381460
O15   O     O_3   0.191057 0.706045 0.683557 -0.599523
P5    P     P_3+3 0.049085 0.230045 0.599145 0.484075
O16   O     O_3   0.607620 0.388570 0.462320 -0.393990
O17   O     O_3   0.103380 0.345110 0.593380 -0.393716
O18   O     O_2   0.166964 0.179986 0.551179 -0.337087
O19   O     O_3   0.096911 0.215331 0.687267 -0.502500
Ba2   Ba    Ba6+2 0.335710 0.459790 0.534460 1.575983
P6    P     P_3+3 0.646213 0.596721 0.276359 0.490878
C10   C     C_3   0.671200 0.769219 0.315090 0.539153
H20   H     H_    0.543459 0.752542 0.332390 -0.036267
H21   H     H_    0.673572 0.913781 0.342255 0.214726
O20   O     O_3   0.582100 0.611510 0.537680 -0.358923
C11   C     C_3   0.454884 0.314148 0.311662 0.439372
H22   H     H_    0.333530 0.328668 0.329892 0.090773
H23   H     H_    0.550687 0.376406 0.325591 0.119043
C12   C     C_3   0.441342 0.286100 0.229810 -0.997306
H24   H     H_    0.344632 0.224616 0.214018 0.274107
H25   H     H_    0.407570 0.341576 0.203769 0.213864
H26   H     H_    0.561769 0.271210 0.210254 0.265226
P7    P     P_3+3 0.513971 0.275313 0.437134 0.424492
O21   O     O_2   0.334040 0.276520 0.462890 -0.376612
O22   O     O_3   0.498221 0.242924 0.342992 -0.574481
H27   H     H_    0.332119 0.822509 0.182119 0.101508
C13   C     C_3   0.040275 0.282986 0.735656 0.266435
H28   H     H_    0.112131 0.350868 0.731620 0.104678
H29   H     H_    0.906521 0.282709 0.724513 0.008964
C14   C     C_3   0.065649 0.266873 0.813102 -0.081204
H30   H     H_    0.197627 0.264070 0.825271 0.153419
H31   H     H_    0.033507 0.324693 0.850964 0.068011
P8    P     P_3+3 0.543848 0.404541 0.723902 0.450258
C15   C     C_3   0.497329 0.230416 0.690602 0.475332
H32   H     H_    0.629616 0.236084 0.678315 0.010704
O23   O     O_2   0.416195 0.461901 0.755277 -0.385974
O24   O     O_3   0.475974 0.298243 0.748171 -0.551454
H33   H     H_    0.422430 0.234836 0.641622 0.163907
H34   H     H_    0.422599 0.085274 0.661929 0.220750
C16   C     C_3   0.438574 0.137983 0.711294 -0.877085
H35   H     H_    0.317717 0.135725 0.736424 0.313338
H36   H     H_    0.530064 0.123682 0.750596 0.249165
C17   C     C_R   0.991203 0.454846 0.047741 0.063584
C18   C     C_R   0.894350 0.408295 0.095845 -0.191109
C19   C     C_R   0.762911 0.425796 0.952830 -0.175985
C20   C     C_R   0.929683 0.459750 0.976839 0.091920
C21   C     C_R   0.705243 0.426983 0.882870 -0.091790
C22   C     C_R   0.810437 0.462306 0.833084 -0.004287
C23   C     C_R   0.975582 0.503112 0.856578 -0.002642
C24   C     C_R   0.035801 0.502332 0.928847 0.020036
C25   C     C_R   0.754985 0.458243 0.760457 0.182349
C26   C     C_R   0.863521 0.493299 0.711882 -0.466849
C27   C     C_R   0.024334 0.537244 0.734007 0.251571
C28   C     C_R   0.080007 0.544748 0.807865 -0.103099
C29   C     C_R   0.157297 0.494011 0.070657 0.083274
C30   C     C_R   0.216982 0.493526 0.143033 0.019147
C31   C     C_R   0.110773 0.454154 0.192304 -0.016935
C32   C     C_R   0.953586 0.407089 0.165792 -0.059032
H37   H     H_    0.820440 0.488673 0.656153 0.194252
H38   H     H_    0.576097 0.399773 0.868747 0.168880
H39   H     H_    0.872699 0.368982 0.198666 0.159543
C33   C     C_R   0.233783 0.595544 0.835342 -0.172738
C34   C     C_R   0.292452 0.598414 0.906601 0.327359
C35   C     C_R   0.200980 0.544146 0.952501 -0.097521
C36   C     C_R   0.264988 0.533123 0.021787 0.101133
C37   C     C_R   0.435225 0.555725 0.043091 -0.127590
C38   C     C_R   0.383597 0.531575 0.165799 -0.039814
C39   C     C_R   0.492320 0.558335 0.114033 -0.125911
C40   C     C_R   0.437160 0.539304 0.239177 0.148650
C41   C     C_R   0.326343 0.507494 0.288339 -0.514485
C42   C     C_R   0.166033 0.462396 0.266087 0.262627
H40   H     H_    0.308124 0.637412 0.802783 0.188286
H41   H     H_    0.623427 0.580147 0.127256 0.204462
H42   H     H_    0.367678 0.514800 0.344580 0.178889
H43   H     H_    0.671432 0.398658 0.987212 0.123329
H44   H     H_    0.771768 0.370328 0.080955 0.128487
H45   H     H_    0.528354 0.569718 0.005207 0.174083
C43   C     C_R   0.749432 0.241809 0.533361 -0.505923
C44   C     C_R   0.832426 0.185860 0.566648 0.211721
C45   C     C_R   0.757749 0.095006 0.565103 -0.214353
C46   C     C_R   0.624253 0.053125 0.513772 0.159569
C47   C     C_R   0.564064 0.110167 0.471420 -0.203352
C48   C     C_R   0.613086 0.203647 0.486507 0.264914
C49   C     C_R   0.391859 0.916992 0.467540 0.429274
C50   C     C_R   0.336423 0.821808 0.451279 0.100883
C51   C     C_R   0.582792 0.794737 0.513589 0.172614
C52   C     C_R   0.654769 0.887726 0.516514 0.215866
C53   C     C_R   0.556065 0.951341 0.499234 -0.241074
C54   C     C_R   0.430552 0.762796 0.475597 -0.628261
H46   H     H_    0.812609 0.057910 0.600593 0.186653
H47   H     H_    0.487519 0.083610 0.423492 0.142465
H48   H     H_    0.380764 0.690901 0.467837 0.200549
H49   H     H_    0.799267 0.313517 0.538687 0.174133
O25   O     O_3   0.633956 0.859171 0.664399 -0.708428
C55   C     C_3   0.660717 0.948654 0.703751 -0.223876
H50   H     H_    0.604912 0.952433 0.757082 0.163399
H51   H     H_    0.793713 0.979685 0.709840 0.253202
H52   H     H_    0.599474 0.989970 0.672010 0.149835
O26   O     O_3   0.872863 0.839253 0.725507 -0.646355
C56   C     C_3   0.943243 0.790798 0.773146 -0.161662
H53   H     H_    0.920835 0.716492 0.752902 0.147650
H54   H     H_    0.896756 0.804964 0.828078 0.168758
H55   H     H_    0.078609 0.815566 0.779168 0.203214
N1    N     N_R   0.961622 0.182747 0.824212 0.268953
O27   O     O_R   0.999331 0.104776 0.796956 -0.369314
O28   O     O_R   0.837660 0.185302 0.865726 -0.389261
N2    N     N_R   0.434871 0.665645 0.933176 0.226073
O29   O     O_R   0.425131 0.728744 0.988055 -0.327323
O30   O     O_R   0.571694 0.667457 0.899803 -0.432335
O31   O     O_3   0.278016 0.975457 0.467840 -0.563854
C57   C     C_3   0.222943 0.982244 0.396923 0.016956
H56   H     H_    0.097941 0.942168 0.382306 0.197504
H57   H     H_    0.309823 0.964477 0.354695 0.019811
H58   H     H_    0.209194 0.053636 0.396379 0.139616
N3    N     N_R   0.830044 0.916074 0.528669 0.258500
O32   O     O_R   0.910794 0.965143 0.485895 -0.393027
O33   O     O_R   0.906664 0.903811 0.586628 -0.369263
N4    N     N_R   0.106183 0.733199 0.152252 0.270236
O34   O     O_R   0.158751 0.708419 0.088693 -0.356593
O35   O     O_R   0.955132 0.701719 0.165733 -0.302298

loop_
_geom_bond_atom_site_label_1
_geom_bond_atom_site_label_2
_geom_bond_distance
_ccdc_geom_bond_type
O5    C6    1.397788 S    
C17   C18   1.415049 A    
C12   H25   1.108844 S    
C47   C48   1.386036 A    
C5    H10   1.103456 S    
C25   C26   1.396429 A    
C15   O24   1.402195 S    
C4    C5    1.520684 S    
O6    P6    1.751457 S    
C21   H38   1.079884 S    
C49   C50   1.417622 A    
H1    C10   1.104485 S    
C41   C42   1.395273 A    
C44   C45   1.405062 A    
C10   H20   1.107308 S    
C24   C35   1.422297 A    
O16   Ba2   2.916094 S    
C14   H31   1.109029 S    
P3    O11   1.753063 S    
C11   C12   1.521154 S    
C14   N1    1.458452 S    
C7    H15   1.108408 S    
C4    H8    1.109594 S    
C1    H21   1.110819 S    
C37   H45   1.076926 S    
C39   H41   1.080967 S    
C3    N4    1.458232 S    
O2    Ba2   2.790531 S    
Ba2   O21   2.881110 S    
C33   C34   1.400076 A    
O26   C56   1.415444 S    
C29   C36   1.420907 A    
C27   C28   1.427771 A    
P1    Ba1   3.418304 S    
C35   C36   1.434386 A    
C32   H39   1.078983 S    
C11   H23   1.111152 S    
P1    O1    1.508479 D    
O10   C8    1.422610 S    
Ba1   O20   2.916921 S    
C43   C48   1.386295 A    
C22   C23   1.417930 A    
C17   C20   1.427822 A    
P2    O20   1.575497 S    
C9    H19   1.108965 S    
C19   H43   1.076334 S    
P5    O17   1.747964 S    
Ba1   O13   2.790065 S    
P2    O10   1.773336 S    
C54   H48   1.081980 S    
N2    O29   1.300943 A    
N3    O33   1.296683 A    
C4    H7    1.102117 S    
C2    C3    1.529429 S    
C19   C21   1.387136 A    
C1    H2    1.110723 S    
O7    Ba1   2.881047 S    
C17   C29   1.417154 A    
C49   O31   1.393687 S    
C34   N2    1.432984 S    
C9    H18   1.109777 S    
C12   H26   1.110818 S    
C57   H58   1.109290 S    
O6    C10   1.403829 S    
C56   H55   1.108067 S    
C49   C53   1.435479 A    
P4    O13   1.570004 S    
C20   C24   1.424545 A    
N4    O35   1.298901 A    
Ba2   O20   2.785428 S    
O1    Ba1   2.861024 S    
C14   H30   1.111268 S    
P7    O21   1.570154 D    
C4    O15   1.393252 S    
C31   C32   1.399933 A    
C7    H16   1.110404 S    
N1    O27   1.301038 A    
C56   H54   1.110013 S    
C19   C20   1.412678 A    
C21   C22   1.398829 A    
C13   H29   1.112139 S    
C5    H11   1.101707 S    
C15   H32   1.109241 S    
O11   C2    1.404195 S    
P6    C40   1.849802 S    
P8    C25   1.847762 S    
C22   C25   1.413202 A    
P1    O5    1.751833 S    
C33   H40   1.079096 S    
C11   H22   1.108516 S    
P1    O2    1.570169 S    
C7    H14   1.110626 S    
C6    H13   1.105542 S    
C52   N3    1.431705 S    
C6    C7    1.522095 S    
P7    C48   1.813928 S    
P4    C27   1.870560 S    
C15   H33   1.109321 S    
N3    O32   1.301555 A    
P8    O24   1.750585 S    
C34   C35   1.428311 A    
P5    O18   1.549452 D    
C26   C27   1.393547 A    
O13   Ba2   2.924835 S    
C38   C40   1.414000 A    
C1    C10   1.520758 S    
C16   H35   1.108681 S    
O2    Ba1   2.923868 S    
C57   H57   1.112368 S    
C1    H3    1.109730 S    
O31   C57   1.418834 S    
C41   H42   1.081898 S    
P2    C51   1.893977 S    
O14   Ba2   2.760485 S    
C50   C54   1.398766 A    
C9    H17   1.101664 S    
C8    O26   1.430119 S    
C47   H47   1.063469 S    
P3    O8    1.720292 S    
P2    Ba1   3.432821 S    
C46   C47   1.404391 A    
C31   C42   1.424036 A    
H34   C16   1.109396 S    
C51   C54   1.392567 A    
C18   H44   1.076356 S    
O14   P8    1.743751 S    
Ba1   O16   2.785852 S    
C52   C53   1.430912 A    
O19   C13   1.405900 S    
C8    C9    1.548955 S    
P4    O12   1.508877 D    
C40   C41   1.398053 A    
O16   P7    1.741133 S    
P8    O23   1.543285 D    
C38   C39   1.399696 A    
C2    H5    1.106458 S    
O4    P6    1.545081 D    
C43   H49   1.082215 S    
N1    O28   1.301235 A    
C56   H53   1.111035 S    
O12   Ba2   2.861748 S    
C13   C14   1.526786 S    
C18   C32   1.391119 A    
C55   H50   1.109310 S    
O8    Ba1   2.738741 S    
N4    O34   1.299228 A    
C23   C24   1.433098 A    
C28   C33   1.399569 A    
C29   C30   1.432611 A    
C45   H46   1.074660 S    
O17   Ba2   2.739294 S    
C6    H12   1.101843 S    
C2    H4    1.112998 S    
C51   C52   1.425063 A    
P2    O7    1.498512 D    
C13   H28   1.111368 S    
O3    P6    1.740449 S    
C36   C37   1.412379 A    
C55   H51   1.108629 S    
C46   C53   1.526890 S    
C11   O22   1.401944 S    
P5    O19   1.747061 S    
C30   C31   1.421205 A    
C55   H52   1.101305 S    
N2    O30   1.300289 A    
Ba1   Ba2   4.549157 S    
C37   C39   1.391198 A    
C15   C16   1.518656 S    
C8    O25   1.418250 S    
O3    Ba1   2.761126 S    
O25   C55   1.413731 S    
C12   H24   1.110608 S    
P4    Ba2   3.418935 S    
C30   C38   1.416978 A    
P3    O9    1.529435 D    
C57   H56   1.103186 S    
P3    C50   1.850198 S    
C3    H6    1.111775 S    
C16   H36   1.110318 S    
P1    C42   1.869112 S    
P7    O22   1.749744 S    
C43   C44   1.386070 A    
C26   H37   1.082027 S    
C23   C28   1.420300 A    
C3    H27   1.112251 S    
P4    O15   1.742623 S    
C45   C46   1.428005 A    
C5    H9    1.107274 S    
P5    C44   1.841284 S    
