data_mof_unit_50434.cif
_audit_creation_date              2013-03-05T16:36:14-0500
_audit_creation_method            fapswitch 2.2
_symmetry_space_group_name_H-M    P1
_symmetry_Int_Tables_number       1
_space_group_crystal_system       monoclinic
_cell_length_a                    27.83676
_cell_length_b                    9.081485
_cell_length_c                    7.781682
_cell_angle_alpha                 90.019545
_cell_angle_beta                  90.0
_cell_angle_gamma                 90.0
_cell_volume                      1967.20223472

loop_
_atom_site_label
_atom_site_type_symbol
_atom_site_description
_atom_site_fract_x
_atom_site_fract_y
_atom_site_fract_z
_atom_type_partial_charge
O1    O     O_R   0.500000 0.288390 0.642760 -0.576482
O2    O     O_R   0.500000 0.711610 0.357240 -0.576482
O3    O     O_R   0.500000 0.711610 0.642760 -0.576221
O4    O     O_R   0.500000 0.288390 0.357240 -0.576221
C1    C     C_R   0.500000 0.220025 0.499982 0.849984
C2    C     C_R   0.500000 0.779975 0.500018 0.849984
O5    O     O_R   0.430260 0.500000 0.642770 -0.585274
O6    O     O_R   0.569740 0.500000 0.357230 -0.585268
O7    O     O_R   0.569740 0.500000 0.642770 -0.585268
O8    O     O_R   0.430260 0.500000 0.357230 -0.585274
C3    C     C_R   0.407183 0.500000 0.500000 0.873318
C4    C     C_R   0.592817 0.500000 0.500000 0.873322
Cu1   Cu    Cu3+1 0.500000 0.500000 0.669080 1.020395
Cu2   Cu    Cu3+1 0.500000 0.500000 0.330920 1.020395
C5    C     C_R   0.178001 0.370530 0.525031 0.648178
C6    C     C_R   0.822003 0.629482 0.475057 0.648206
C7    C     C_R   0.178001 0.629470 0.474969 0.648179
C8    C     C_R   0.822003 0.370518 0.524943 0.648205
O9    O     O_2   0.202878 0.244579 0.548679 -0.488871
O10   O     O_2   0.797127 0.755452 0.451518 -0.488772
O11   O     O_2   0.202878 0.755421 0.451321 -0.488872
O12   O     O_2   0.797127 0.244549 0.548481 -0.488772
N1    N     N_R   0.202024 0.500000 0.500000 -0.429099
N2    N     N_R   0.797979 0.500000 0.500000 -0.429147
C9    C     C_R   0.278666 0.495517 0.655784 0.640114
C10   C     C_R   0.721333 0.505128 0.344242 0.640202
C11   C     C_R   0.278666 0.504483 0.344216 0.640114
C12   C     C_R   0.721333 0.494872 0.655758 0.640202
C13   C     C_R   0.328769 0.495674 0.655849 -0.277581
C14   C     C_R   0.671230 0.504961 0.344178 -0.277611
C15   C     C_R   0.328769 0.504326 0.344150 -0.277581
C16   C     C_R   0.671230 0.495040 0.655822 -0.277611
C17   C     C_R   0.253496 0.500000 0.500000 0.081573
C18   C     C_R   0.746505 0.500000 0.500000 0.081437
C19   C     C_R   0.101916 0.500000 0.500000 -0.041511
C20   C     C_R   0.898088 0.500000 0.500000 -0.041533
C21   C     C_R   0.127570 0.368115 0.525556 -0.038307
C22   C     C_R   0.872435 0.631895 0.474521 -0.038344
C23   C     C_R   0.127570 0.631885 0.474444 -0.038307
C24   C     C_R   0.872435 0.368105 0.525479 -0.038344
C25   C     C_R   0.102527 0.236908 0.550907 -0.126790
C26   C     C_R   0.897477 0.763113 0.449243 -0.126763
C27   C     C_R   0.102527 0.763092 0.449093 -0.126789
C28   C     C_R   0.897477 0.236887 0.550757 -0.126763
C29   C     C_R   0.354273 0.500000 0.500000 -0.225170
C30   C     C_R   0.645726 0.500000 0.500000 -0.225173
H1    H     H_    0.347521 0.507682 0.222254 0.206362
H2    H     H_    0.652478 0.491170 0.777695 0.206363
H3    H     H_    0.347521 0.492317 0.777746 0.206362
H4    H     H_    0.652478 0.508830 0.222305 0.206363
H5    H     H_    0.121419 0.134010 0.570941 0.187948
H6    H     H_    0.878586 0.866020 0.429280 0.187916
H7    H     H_    0.121419 0.865990 0.429058 0.187948
H8    H     H_    0.878586 0.133980 0.570720 0.187916
C31   C     C_R   0.974442 0.365604 0.525959 0.045164
C32   C     C_R   0.025562 0.634392 0.474011 0.045162
C33   C     C_R   0.974442 0.634396 0.474041 0.045164
C34   C     C_R   0.025562 0.365608 0.525989 0.045162
C35   C     C_R   0.949223 0.500000 0.500000 0.076721
C36   C     C_R   0.050781 0.500000 0.500000 0.076717
C37   C     C_R   0.947331 0.235291 0.551117 -0.197429
C38   C     C_R   0.052673 0.764692 0.448755 -0.197454
C39   C     C_R   0.947331 0.764710 0.448883 -0.197429
C40   C     C_R   0.052673 0.235308 0.551245 -0.197454
H9    H     H_    0.963260 0.128950 0.571872 0.131272
H10   H     H_    0.036744 0.871021 0.427910 0.131317
H11   H     H_    0.963260 0.871050 0.428128 0.131272
H12   H     H_    0.036744 0.128979 0.572090 0.131317
C41   C     C_1   0.500000 0.065392 0.499975 -0.153993
C42   C     C_1   0.500000 0.934608 0.500025 -0.153993
N3    N     N_1   0.500000 0.500000 0.076820 -0.044825
N4    N     N_1   0.500000 0.500000 0.923180 -0.044825
F1    F     F_    0.254511 0.508348 0.192867 -0.572141
F2    F     F_    0.745486 0.490374 0.807086 -0.572184
F3    F     F_    0.254511 0.491652 0.807133 -0.572141
F4    F     F_    0.745486 0.509626 0.192914 -0.572184

loop_
_geom_bond_atom_site_label_1
_geom_bond_atom_site_label_2
_geom_bond_distance
_ccdc_geom_bond_type
O5    Cu1   1.952102 S    
C31   C35   1.422486 A    
Cu2   N3    1.977325 S    
C20   C35   1.423430 A    
C12   F2    1.356630 S    
C13   H3    1.083146 S    
C11   C17   1.400778 A    
C5    O9    1.349785 S    
C7    N1    1.366652 A    
O1    C1    1.272569 A    
C40   H12   1.074923 S    
C19   C21   1.408608 A    
C22   C26   1.394581 A    
C33   C35   1.422485 A    
C34   C36   1.422487 A    
O7    Cu1   1.952099 S    
C32   C33   1.423021 A    
C7    C23   1.404018 A    
C8    C24   1.404021 A    
C5    C21   1.404016 A    
C1    C41   1.404291 S    
C27   H7    1.083598 S    
N1    C17   1.432819 S    
C10   F4    1.356630 S    
C8    N2    1.366672 A    
O3    Cu1   1.932686 S    
C6    O10   1.349789 S    
O3    C2    1.272695 A    
C5    N1    1.366653 A    
C14   H4    1.083120 S    
C12   C18   1.400813 A    
C6    N2    1.366672 A    
C15   H1    1.083146 S    
Cu1   Cu2   2.631454 S    
C21   C25   1.394584 A    
C16   H2    1.083120 S    
O2    C2    1.272569 A    
C10   C18   1.400814 A    
C33   C39   1.417240 A    
C9    C13   1.394709 A    
C39   H11   1.074917 S    
C38   H10   1.074922 S    
C11   C15   1.394709 A    
C12   C16   1.394706 A    
C4    C30   1.472826 S    
O8    Cu2   1.952102 S    
C23   C27   1.394582 A    
C34   C40   1.417245 A    
N2    C18   1.432864 S    
C32   C36   1.422488 A    
C13   C29   1.405848 A    
C19   C36   1.423427 A    
C9    F3    1.356643 S    
C19   C23   1.408607 A    
C37   H9    1.074916 S    
O5    C3    1.283348 A    
C20   C24   1.408600 A    
O6    C4    1.283344 A    
C10   C14   1.394706 A    
C32   C38   1.417244 A    
C3    C29   1.472835 S    
O1    Cu1   1.932548 S    
C2    C42   1.404291 S    
O6    Cu2   1.952099 S    
C8    O12   1.349790 S    
C16   C30   1.405837 A    
C14   C30   1.405837 A    
O4    C1    1.272695 A    
Cu1   N4    1.977325 S    
C28   C37   1.387833 A    
C20   C22   1.408600 A    
N3    N4    1.195578 T    
C31   C37   1.417240 A    
O4    Cu2   1.932687 S    
C41   C42   1.187719 T    
O2    Cu2   1.932547 S    
O7    C4    1.283344 A    
C7    O11   1.349783 S    
C9    C17   1.400777 A    
O8    C3    1.283349 A    
C28   H8    1.083595 S    
C24   C28   1.394581 A    
C15   C29   1.405849 A    
C31   C34   1.423021 A    
C26   H6    1.083595 S    
C25   C40   1.387833 A    
C11   F1    1.356643 S    
C26   C39   1.387833 A    
C25   H5    1.083600 S    
C27   C38   1.387836 A    
C6    C22   1.404021 A    
