data_mof_unit_52677.cif
_audit_creation_date              2012-12-10T17:29:15-0500
_audit_creation_method            fapswitch 2.2
_symmetry_space_group_name_H-M    P1
_symmetry_Int_Tables_number       1
_space_group_crystal_system       triclinic
_cell_length_a                    12.006927
_cell_length_b                    12.837558
_cell_length_c                    13.067826
_cell_angle_alpha                 87.646309
_cell_angle_beta                  113.408882
_cell_angle_gamma                 94.000435
_cell_volume                      1843.78144152

loop_
_atom_site_label
_atom_site_type_symbol
_atom_type_description
_atom_site_fract_x
_atom_site_fract_y
_atom_site_fract_z
_atom_type_partial_charge
C1    C     C_R   0.475728 0.299781 0.495732 0.928043
C2    C     C_R   0.612747 0.498485 0.829944 -0.061038
C3    C     C_R   0.545037 0.810270 0.522342 -0.128400
C4    C     C_R   0.567064 0.497619 0.708816 0.895298
C5    C     C_R   0.459161 0.188014 0.491132 -0.159415
C6    C     C_R   0.363538 0.032159 0.388944 -0.285338
C7    C     C_R   0.364863 0.139153 0.398973 -0.037048
C8    C     C_R   0.549221 0.130400 0.573334 -0.092758
C9    C     C_R   0.550583 0.023191 0.557613 0.126576
C10   C     C_R   0.456848 0.975416 0.464412 0.169962
C11   C     C_R   0.455552 0.870113 0.447477 -0.257918
C12   C     C_R   0.573886 0.523155 0.994800 -0.023466
C13   C     C_R   0.640395 0.855268 0.615962 -0.080956
C14   C     C_R   0.641384 0.961743 0.632723 -0.195567
C15   C     C_R   0.025219 0.621116 0.428979 -0.259824
C16   C     C_R   0.525069 0.699957 0.506659 0.912310
C17   C     C_R   0.141101 0.606371 0.431044 0.090035
C18   C     C_R   0.149403 0.444941 0.527548 0.003447
C19   C     C_R   0.032290 0.456101 0.526645 0.064249
C20   C     C_R   0.969881 0.545874 0.477468 0.084052
C21   C     C_R   0.852880 0.557146 0.476898 0.013444
C22   C     C_R   0.859012 0.393746 0.569093 0.012712
C23   C     C_R   0.552682 0.550512 0.883502 0.087210
C24   C     C_R   0.976209 0.380212 0.573750 -0.298555
C25   C     C_R   0.433390 0.507101 0.290772 0.937590
C26   C     C_R   0.313698 0.651807 0.016047 -0.227948
C27   C     C_R   0.395822 0.530867 0.171621 -0.122015
C28   C     C_R   0.712004 0.439793 0.891825 -0.302979
C29   C     C_R   0.753251 0.432029 0.007489 -0.042182
C30   C     C_R   0.682958 0.472169 0.060593 -0.050023
C31   C     C_2   0.222306 0.643210 0.155270 0.898016
C32   C     C_2   0.736312 0.794627 0.701385 0.909571
C33   C     C_2   0.269400 0.195050 0.307426 0.436481
C34   C     C_R   0.483866 0.548180 0.033485 0.096269
C35   C     C_2   0.638646 0.184698 0.674639 0.372547
C36   C     C_2   0.730727 0.471197 0.183595 0.963494
C37   C     C_2   0.871054 0.382886 0.067394 0.501605
C38   C     C_R   0.398680 0.623130 0.975250 0.154206
C39   C     C_R   0.397275 0.666290 0.875292 -0.230610
C40   C     C_R   0.470977 0.628254 0.828102 -0.157003
C41   C     C_R   0.470605 0.495454 0.123666 -0.212746
C42   C     C_R   0.311951 0.607238 0.114967 -0.041377
H1    H     H_    0.292228 0.993343 0.318573 0.150454
H2    H     H_    0.248772 0.709163 0.970821 0.170213
H3    H     H_    0.521336 0.427836 0.161036 0.163914
H4    H     H_    0.760067 0.402452 0.849764 0.167678
H5    H     H_    0.464298 0.661050 0.748388 0.173286
H6    H     H_    0.382552 0.833382 0.376586 0.168728
H7    H     H_    0.142135 0.765133 0.184215 0.334709
H8    H     H_    0.909932 0.793512 0.813923 0.351678
H9    H     H_    0.184737 0.152856 0.257301 0.071549
H10   H     H_    0.606849 0.238744 0.717449 0.042156
H11   H     H_    0.787800 0.385353 0.326036 0.352940
H12   H     H_    0.711288 0.994185 0.707326 0.227220
H13   H     H_    0.903012 0.330603 0.023001 0.060246
H14   H     H_    0.804020 0.625901 0.439398 0.162762
H15   H     H_    0.816260 0.334189 0.604342 0.194208
H16   H     H_    0.979413 0.690847 0.389797 0.160732
H17   H     H_    0.021890 0.310393 0.612807 0.169065
H18   H     H_    0.183137 0.665358 0.394242 0.134942
H19   H     H_    0.334484 0.725174 0.830505 0.154065
H20   H     H_    0.199253 0.377162 0.567022 0.122910
N1    N     N_R   0.798200 0.480260 0.519790 -0.119483
N2    N     N_R   0.201820 0.519740 0.480210 -0.093981
O1    O     O_R   0.579910 0.341070 0.505280 -0.623647
O2    O     O_R   0.206721 0.750033 0.156049 -0.828020
O3    O     O_2   0.713568 0.705405 0.726396 -0.641675
O4    O     O_R   0.852685 0.841773 0.756714 -0.788603
O5    O     O_2   0.285260 0.285883 0.282734 -0.544150
O6    O     O_2   0.747781 0.175552 0.705971 -0.585488
O7    O     O_2   0.742498 0.552848 0.232603 -0.640922
O8    O     O_R   0.758307 0.376625 0.242657 -0.774696
O9    O     O_2   0.936607 0.403625 0.163871 -0.497510
O10   O     O_R   0.388440 0.353740 0.492580 -0.593357
O11   O     O_R   0.643280 0.490550 0.663120 -0.582746
O12   O     O_R   0.451810 0.503220 0.650420 -0.643712
O13   O     O_R   0.611560 0.646260 0.507420 -0.601877
O14   O     O_R   0.420090 0.658930 0.494720 -0.649194
O15   O     O_R   0.548190 0.496780 0.349580 -0.603783
O16   O     O_R   0.356720 0.509450 0.336880 -0.545618
O17   O     O_2   0.158084 0.579747 0.182683 -0.561539
Zn1   Zn    Zn3+2 0.627850 0.491540 0.508480 0.995715
Zn2   Zn    Zn3+2 0.372150 0.508460 0.491520 1.000880

loop_
_geom_bond_atom_site_label_1
_geom_bond_atom_site_label_2
_ccdc_geom_bond_type
C40   H5    S    
C31   C42   S    
C31   O2    S    
C25   O16   A    
C13   C32   S    
C19   C20   A    
O10   Zn2   S    
C22   H15   S    
C26   H2    S    
C12   C23   A    
C28   H4    S    
C1    C5    S    
C1    O10   A    
C28   C29   A    
C18   C19   A    
C17   N2    A    
C38   C39   A    
C23   C40   A    
C16   O13   A    
C4    O11   A    
C22   N1    A    
O14   Zn2   S    
C35   O6    D    
C8    C9    A    
C1    O1    A    
C9    C10   A    
C3    C13   A    
C36   O7    D    
C33   O5    D    
C32   O4    S    
C34   C38   A    
C13   C14   A    
C7    C33   S    
C11   H6    S    
C34   C41   A    
O16   Zn2   S    
O12   Zn2   S    
C15   C20   A    
C39   H19   S    
C4    O12   A    
H7    O2    S    
N1    Zn1   S    
C39   C40   A    
C5    C7    A    
C26   C38   A    
C8    C35   S    
C2    C4    S    
C9    C14   A    
N2    Zn2   S    
C29   C30   A    
C21   H14   S    
C27   C41   A    
C32   O3    D    
C14   H12   S    
C6    H1    S    
C15   H16   S    
C22   C24   A    
C5    C8    A    
C25   C27   S    
C12   C34   A    
C2    C23   A    
C26   C42   A    
C15   C17   A    
C37   O9    D    
C12   C30   A    
C25   O15   A    
C18   H20   S    
C6    C10   A    
O15   Zn1   S    
O11   Zn1   S    
C6    C7    A    
C33   H9    S    
C31   O17   D    
C30   C36   S    
C19   C24   A    
C27   C42   A    
C18   N2    A    
O1    Zn1   S    
O13   Zn1   S    
C24   H17   S    
C16   O14   A    
C21   N1    A    
C3    C11   A    
C10   C11   A    
C17   H18   S    
C37   H13   S    
C20   C21   A    
C29   C37   S    
C35   H10   S    
C41   H3    S    
C2    C28   A    
H11   O8    S    
H8    O4    S    
C3    C16   S    
C36   O8    S    
