data_mof_unit_54134.cif
_audit_creation_date              2012-12-11T15:34:45-0500
_audit_creation_method            fapswitch 2.2
_symmetry_space_group_name_H-M    P1
_symmetry_Int_Tables_number       1
_space_group_crystal_system       triclinic
_cell_length_a                    17.420596
_cell_length_b                    17.470885
_cell_length_c                    17.447829
_cell_angle_alpha                 90.41469
_cell_angle_beta                  90.372109
_cell_angle_gamma                 89.062013
_cell_volume                      5309.34448578

loop_
_atom_site_label
_atom_site_type_symbol
_atom_type_description
_atom_site_fract_x
_atom_site_fract_y
_atom_site_fract_z
_atom_type_partial_charge
C1    C     C_R   0.816650 0.091337 0.369201 0.434806
C2    C     C_R   0.183426 0.096555 0.371221 0.486403
C3    C     C_R   0.908486 0.183227 0.630621 0.434909
C4    C     C_R   0.105894 0.807858 0.384815 0.502783
C5    C     C_R   0.195950 0.104924 0.604849 0.495174
C6    C     C_R   0.805145 0.895351 0.392417 0.382739
C7    C     C_R   0.108070 0.802256 0.595542 0.431998
C8    C     C_R   0.928043 0.146281 0.345904 0.395995
C9    C     C_R   0.317124 0.592062 0.868729 0.415990
C10   C     C_R   0.693464 0.391493 0.111393 0.504639
C11   C     C_R   0.393296 0.303371 0.899170 0.493190
C12   C     C_R   0.192236 0.894597 0.615329 0.502351
C13   C     C_R   0.604649 0.695350 0.105580 0.373052
C14   C     C_R   0.698652 0.394837 0.903385 0.411006
C15   C     C_R   0.353338 0.572480 0.153754 0.369815
C16   C     C_R   0.603733 0.687183 0.880137 0.483732
C17   C     C_R   0.420845 0.331117 0.144043 0.490960
C18   C     C_R   0.316029 0.405889 0.128080 0.470632
C19   C     C_R   0.676066 0.580364 0.862161 0.466358
C20   C     C_R   0.407379 0.683657 0.130059 0.424531
C21   C     C_R   0.608699 0.307683 0.887073 0.497448
C22   C     C_R   0.696472 0.606482 0.101925 0.489009
C23   C     C_R   0.894729 0.804059 0.395807 0.490519
C24   C     C_R   0.304031 0.394653 0.895932 0.379576
C25   C     C_R   0.607192 0.301302 0.093961 0.435654
C26   C     C_R   0.427710 0.649858 0.847197 0.399265
C27   C     C_R   0.216227 0.213443 0.691237 0.082465
C28   C     C_R   0.785296 0.783858 0.310342 0.082452
C29   C     C_R   0.842936 0.175605 0.760532 0.059934
C30   C     C_R   0.243377 0.769363 0.343326 0.066472
C31   C     C_R   0.776248 0.788974 0.689257 0.138546
C32   C     C_R   0.204781 0.215656 0.300231 0.125396
C33   C     C_R   0.231165 0.758337 0.657122 0.064443
C34   C     C_R   0.104499 0.194433 0.608426 0.382346
C35   C     C_R   0.825181 0.156093 0.238468 0.051567
C36   C     C_R   0.716327 0.716149 0.186097 0.075278
C37   C     C_R   0.283384 0.282640 0.815881 0.063641
C38   C     C_R   0.341165 0.674216 0.259610 0.031142
C39   C     C_R   0.747494 0.272177 0.845372 0.081224
C40   C     C_R   0.306890 0.296942 0.217569 0.041588
C41   C     C_R   0.726947 0.693992 0.801051 0.014290
C42   C     C_R   0.730460 0.253276 0.153091 0.080396
C43   C     C_R   0.327138 0.661616 0.740785 0.032087
C44   C     C_R   0.854843 0.135173 0.315979 -0.118134
C45   C     C_R   0.198090 0.892177 0.404526 0.413774
C46   C     C_R   0.179505 0.816643 0.624324 -0.253103
C47   C     C_R   0.820848 0.820576 0.374220 -0.282394
C48   C     C_R   0.179303 0.178410 0.627128 -0.289714
C49   C     C_R   0.184171 0.820745 0.375848 -0.250536
C50   C     C_R   0.864376 0.145233 0.683666 -0.133457
C51   C     C_R   0.159131 0.166603 0.343086 -0.280087
C52   C     C_R   0.822580 0.830680 0.638448 -0.276095
C53   C     C_R   0.355214 0.638145 0.817312 -0.126240
C54   C     C_R   0.679670 0.313303 0.120992 -0.257447
C55   C     C_R   0.318813 0.319357 0.879745 -0.261269
C56   C     C_R   0.852129 0.072332 0.653617 0.405200
C57   C     C_R   0.679867 0.680531 0.122258 -0.270620
C58   C     C_R   0.686827 0.322793 0.876058 -0.242233
C59   C     C_R   0.362549 0.645880 0.182428 -0.107968
C60   C     C_R   0.668263 0.655465 0.842754 -0.137968
C61   C     C_R   0.349674 0.349512 0.173321 -0.116144
C62   C     C_R   0.304405 0.304617 0.741237 0.003239
C63   C     C_R   0.770731 0.772145 0.173256 0.105203
C64   C     C_R   0.744108 0.192561 0.856655 0.020772
C65   C     C_R   0.364872 0.747614 0.281086 0.031158
C66   C     C_R   0.752954 0.662338 0.730837 0.109726
C67   C     C_R   0.094543 0.189778 0.379856 0.469835
C68   C     C_R   0.250058 0.255723 0.178335 0.048145
C69   C     C_R   0.358824 0.723139 0.699073 0.039339
C70   C     C_R   0.700257 0.190803 0.194383 0.067946
C71   C     C_R   0.280640 0.642065 0.302320 0.041867
C72   C     C_R   0.811470 0.301129 0.805013 0.080809
C73   C     C_R   0.695405 0.694173 0.260869 -0.002536
C74   C     C_R   0.228849 0.226665 0.828464 0.109501
C75   C     C_R   0.810594 0.255336 0.142216 0.023729
C76   C     C_R   0.253726 0.637771 0.719203 0.041396
C77   C     C_R   0.316888 0.290992 0.298009 0.036281
C78   C     C_R   0.896902 0.810810 0.618041 0.505749
C79   C     C_R   0.744277 0.769382 0.821661 0.005981
C80   C     C_R   0.730210 0.728410 0.323196 0.106013
C81   C     C_R   0.195462 0.191063 0.765908 0.006463
C82   C     C_R   0.238713 0.689174 0.351668 0.023693
C83   C     C_R   0.866978 0.249626 0.779607 0.019763
C84   C     C_R   0.261173 0.256451 0.339461 0.067583
C85   C     C_R   0.768714 0.817616 0.764533 0.079420
C86   C     C_R   0.858031 0.213246 0.191776 0.041139
C87   C     C_R   0.202118 0.692956 0.694401 0.074478
C88   C     C_R   0.783845 0.144671 0.806103 0.040596
C89   C     C_R   0.805283 0.900785 0.610414 0.504856
C90   C     C_R   0.308908 0.798691 0.305902 0.080857
C91   C     C_R   0.270151 0.270139 0.678798 0.104687
C92   C     C_R   0.806142 0.805909 0.235563 0.008728
C93   C     C_R   0.311515 0.764028 0.649347 0.025152
C94   C     C_R   0.750277 0.134342 0.219977 0.026259
C95   C     C_R   0.763068 0.711837 0.670963 0.027210
C96   C     C_R   0.199403 0.213247 0.220167 0.013786
Cl1   Cl    Cl    0.721792 0.112620 0.397494 -0.509658
Cl2   Cl    Cl    0.274821 0.056797 0.354540 -0.583797
Cl3   Cl    Cl    0.887499 0.277906 0.602366 -0.511375
Cl4   Cl    Cl    0.054998 0.754870 0.315842 -0.568627
Cl5   Cl    Cl    0.288066 0.077200 0.573967 -0.480964
Cl6   Cl    Cl    0.711877 0.932823 0.400841 -0.535985
Cl7   Cl    Cl    0.085985 0.717724 0.545630 -0.627806
Cl8   Cl    Cl    0.992537 0.090891 0.288618 -0.791448
Cl9   Cl    Cl    0.220036 0.608123 0.893264 -0.494097
Cl10  Cl    Cl    0.760889 0.440894 0.167103 -0.542413
Cl11  Cl    Cl    0.418706 0.213385 0.936362 -0.504084
Cl12  Cl    Cl    0.245130 0.945629 0.683896 -0.576342
Cl13  Cl    Cl    0.568543 0.787984 0.089585 -0.539888
Cl14  Cl    Cl    0.784879 0.431837 0.939516 -0.651341
Cl15  Cl    Cl    0.412348 0.513338 0.212538 -0.707124
Cl16  Cl    Cl    0.564174 0.780105 0.874228 -0.596136
Cl17  Cl    Cl    0.495556 0.339107 0.211175 -0.693106
Cl18  Cl    Cl    0.220769 0.440486 0.128765 -0.571130
Cl19  Cl    Cl    0.659092 0.514980 0.786688 -0.649556
Cl20  Cl    Cl    0.388921 0.779240 0.103231 -0.499446
Cl21  Cl    Cl    0.559142 0.239535 0.832767 -0.543844
Cl22  Cl    Cl    0.787123 0.581867 0.065041 -0.508238
Cl23  Cl    Cl    0.922836 0.712410 0.427086 -0.509003
Cl24  Cl    Cl    0.210954 0.430331 0.913047 -0.523734
Cl25  Cl    Cl    0.570453 0.215396 0.057321 -0.631805
Cl26  Cl    Cl    0.492588 0.600252 0.786448 -0.666595
Cl27  Cl    Cl    0.067890 0.287562 0.598455 -0.551340
Cl28  Cl    Cl    0.282547 0.914402 0.454672 -0.618846
Cl29  Cl    Cl    0.901978 0.004889 0.711515 -0.757416
Cl30  Cl    Cl    0.052147 0.281699 0.382930 -0.550018
Cl31  Cl    Cl    0.947463 0.730248 0.652297 -0.617815
Cl32  Cl    Cl    0.715489 0.947858 0.608709 -0.532628
H1    H     H_    0.341838 0.413547 0.750032 0.107713
H2    H     H_    0.767100 0.552487 0.689841 0.197765
H3    H     H_    0.191129 0.275298 0.079542 0.174833
H4    H     H_    0.252766 0.199244 0.076380 0.141558
H5    H     H_    0.451070 0.762209 0.760074 0.208471
H6    H     H_    0.473203 0.703285 0.682311 0.202698
H7    H     H_    0.611157 0.248794 0.246582 0.213254
H8    H     H_    0.584217 0.166989 0.193924 0.213750
H9    H     H_    0.240151 0.550729 0.241781 0.203482
H10   H     H_    0.304343 0.527935 0.314786 0.188856
H11   H     H_    0.760228 0.400966 0.767250 0.200184
H12   H     H_    0.412795 0.345149 0.752891 0.173864
H13   H     H_    0.850554 0.411173 0.807519 0.195091
H14   H     H_    0.587261 0.652872 0.252038 0.115554
H15   H     H_    0.658192 0.585109 0.249712 0.178157
H16   H     H_    0.256287 0.183722 0.933464 0.173416
H17   H     H_    0.186627 0.255634 0.933181 0.156388
H18   H     H_    0.805058 0.307427 0.037228 0.154292
H19   H     H_    0.866616 0.348025 0.101855 0.236665
H20   H     H_    0.270490 0.533014 0.673501 0.126920
H21   H     H_    0.240475 0.529458 0.764426 0.177383
H22   H     H_    0.429093 0.258984 0.308180 0.207021
H23   H     H_    0.817988 0.746889 0.070503 0.179016
H24   H     H_    0.407975 0.354071 0.341951 0.211532
H25   H     H_    0.704108 0.836953 0.909190 0.187277
H26   H     H_    0.736295 0.749461 0.938089 0.126118
H27   H     H_    0.759146 0.680394 0.425235 0.170246
H28   H     H_    0.692527 0.753837 0.431502 0.162139
H29   H     H_    0.089758 0.145043 0.752445 0.111032
H30   H     H_    0.163536 0.080690 0.755953 0.186301
H31   H     H_    0.214029 0.677712 0.463859 0.152465
H32   H     H_    0.137122 0.662946 0.402952 0.247704
H33   H     H_    0.980706 0.227762 0.755471 0.124801
H34   H     H_    0.742648 0.809453 0.066652 0.154153
H35   H     H_    0.949992 0.318164 0.735149 0.220087
H36   H     H_    0.216111 0.280928 0.443798 0.152644
H37   H     H_    0.273475 0.201853 0.441778 0.170431
H38   H     H_    0.830646 0.894660 0.824727 0.164792
H39   H     H_    0.738013 0.920827 0.806229 0.146780
H40   H     H_    0.959754 0.242434 0.241169 0.193242
H41   H     H_    0.964593 0.175783 0.167261 0.172368
H42   H     H_    0.097472 0.738935 0.727769 0.185684
H43   H     H_    0.093976 0.651259 0.680344 0.240143
H44   H     H_    0.747428 0.048645 0.751243 0.193340
H45   H     H_    0.693982 0.199834 0.962563 0.152658
H46   H     H_    0.811746 0.034742 0.826763 0.172189
H47   H     H_    0.262758 0.903613 0.274066 0.174496
H48   H     H_    0.350944 0.906364 0.320323 0.240280
H49   H     H_    0.309717 0.245481 0.572757 0.170416
H50   H     H_    0.241185 0.315093 0.576628 0.157371
H51   H     H_    0.847477 0.913293 0.247254 0.113459
H52   H     H_    0.915325 0.842702 0.246211 0.181370
H53   H     H_    0.322258 0.788270 0.536868 0.153632
H54   H     H_    0.338612 0.864752 0.597611 0.249420
H55   H     H_    0.768699 0.020525 0.244855 0.125699
H56   H     H_    0.652487 0.136640 0.900152 0.235853
H57   H     H_    0.678605 0.053849 0.264054 0.223420
H58   H     H_    0.765027 0.725336 0.554037 0.118307
H59   H     H_    0.823117 0.654678 0.587603 0.212208
H60   H     H_    0.148422 0.111895 0.195823 0.182312
H61   H     H_    0.089004 0.189954 0.201090 0.164975
H62   H     H_    0.473812 0.730732 0.318894 0.127635
H63   H     H_    0.469236 0.766077 0.229966 0.187942
H64   H     H_    0.804258 0.566993 0.781417 0.169664
N1    N     N_R   0.868470 0.074730 0.422590 -0.092391
N2    N     N_R   0.131530 0.074730 0.422590 -0.098142
N3    N     N_R   0.925270 0.131530 0.577410 -0.094512
N4    N     N_R   0.074730 0.868470 0.422590 -0.108908
N5    N     N_R   0.131530 0.074730 0.577410 -0.121664
N6    N     N_R   0.868470 0.925270 0.422590 -0.130448
N7    N     N_R   0.074730 0.868470 0.577410 -0.100416
N8    N     N_R   0.925270 0.131530 0.422590 -0.067708
N9    N     N_R   0.368470 0.574730 0.922590 -0.095837
N10   N     N_R   0.631530 0.425270 0.077410 -0.104710
N11   N     N_R   0.425270 0.368470 0.922590 -0.121246
N12   N     N_R   0.131530 0.925270 0.577410 -0.109736
N13   N     N_R   0.574730 0.631530 0.077410 -0.125259
N14   N     N_R   0.631530 0.425270 0.922590 -0.084331
N15   N     N_R   0.368470 0.574730 0.077410 -0.072369
N16   N     N_R   0.574730 0.631530 0.922590 -0.090707
N17   N     N_R   0.425270 0.368470 0.077410 -0.097194
N18   N     N_R   0.368470 0.425270 0.077410 -0.098842
N19   N     N_R   0.631530 0.574730 0.922590 -0.098221
N20   N     N_R   0.425270 0.631530 0.077410 -0.092092
N21   N     N_R   0.574730 0.368470 0.922590 -0.107567
N22   N     N_R   0.631530 0.574730 0.077410 -0.119142
N23   N     N_R   0.925270 0.868470 0.422590 -0.122683
N24   N     N_R   0.368470 0.425270 0.922590 -0.128542
N25   N     N_R   0.574730 0.368470 0.077410 -0.079263
N26   N     N_R   0.425270 0.631530 0.922590 -0.076857
N27   N     N_3   0.361116 0.361740 0.727070 -0.177782
N28   N     N_3   0.792035 0.794119 0.097288 -0.188612
N29   N     N_3   0.704147 0.159181 0.919636 -0.184778
N30   N     N_3   0.443828 0.769498 0.283512 -0.169180
N31   N     N_3   0.795072 0.590543 0.727013 -0.172807
N32   N     N_3   0.245833 0.255607 0.095972 -0.205117
N33   N     N_3   0.437176 0.746283 0.704134 -0.163918
N34   N     N_R   0.074730 0.131530 0.577410 -0.128195
N35   N     N_3   0.625828 0.192551 0.229212 -0.168715
N36   N     N_3   0.258819 0.563404 0.297276 -0.168279
N37   N     N_3   0.814660 0.376999 0.774370 -0.174397
N38   N     N_3   0.639899 0.636359 0.275014 -0.177609
N39   N     N_3   0.206777 0.205430 0.904328 -0.190831
N40   N     N_3   0.845025 0.296644 0.080699 -0.181800
N41   N     N_3   0.233784 0.558419 0.712879 -0.170861
N42   N     N_3   0.390301 0.296710 0.335918 -0.173686
N43   N     N_3   0.746368 0.794637 0.900632 -0.210147
N44   N     N_3   0.709892 0.705146 0.399489 -0.186053
N45   N     N_R   0.131530 0.925270 0.422590 -0.103714
N46   N     N_3   0.141759 0.131400 0.779315 -0.179560
N47   N     N_3   0.195984 0.653917 0.411343 -0.168434
N48   N     N_3   0.945557 0.273139 0.773731 -0.179791
N49   N     N_3   0.267006 0.257544 0.421804 -0.204694
N50   N     N_3   0.787271 0.895053 0.782797 -0.173824
N51   N     N_3   0.938535 0.225936 0.187721 -0.190430
N52   N     N_3   0.124125 0.685625 0.718916 -0.140047
N53   N     N_3   0.764540 0.065814 0.806018 -0.197678
N54   N     N_3   0.316076 0.876656 0.281938 -0.142741
N55   N     N_3   0.290658 0.293438 0.603252 -0.186801
N56   N     N_R   0.868470 0.074730 0.577410 -0.071252
N57   N     N_3   0.863883 0.861484 0.221710 -0.178637
N58   N     N_3   0.346764 0.805930 0.589239 -0.168172
N59   N     N_3   0.724406 0.056766 0.225995 -0.175696
N60   N     N_3   0.769550 0.681413 0.593992 -0.188232
N61   N     N_3   0.141961 0.169696 0.180997 -0.207313
N62   N     N_R   0.074730 0.131530 0.422590 -0.098927
N63   N     N_R   0.925270 0.868470 0.577410 -0.097385
N64   N     N_R   0.868470 0.925270 0.577410 -0.103408
Ni1   Ni    Ni4+2 0.869670 0.000000 0.500000 0.357231
Ni2   Ni    Ni4+2 0.130330 0.000000 0.500000 0.333119
Ni3   Ni    Ni4+2 1.000000 0.869670 0.500000 0.331691
Ni4   Ni    Ni4+2 1.000000 0.130330 0.500000 0.357029
Ni5   Ni    Ni4+2 0.369670 0.500000 0.000000 0.364546
Ni6   Ni    Ni4+2 0.630330 0.500000 0.000000 0.334287
Ni7   Ni    Ni4+2 0.500000 0.369670 0.000000 0.340071
Ni8   Ni    Ni4+2 0.500000 0.630330 0.000000 0.362814

loop_
_geom_bond_atom_site_label_1
_geom_bond_atom_site_label_2
_ccdc_geom_bond_type
C27   C48   S    
C37   C74   A    
C28   C47   S    
C34   Cl27  S    
C31   C85   A    
H32   N47   S    
H43   N52   S    
C26   N26   A    
N26   Ni8   S    
C71   N36   S    
C80   N44   S    
H16   N39   S    
C25   N25   A    
N3    Ni4   S    
C31   C52   S    
C30   C90   A    
H45   N29   S    
C94   N59   S    
C18   Cl18  S    
C22   C57   A    
H61   N61   S    
C37   C62   A    
C17   Cl17  S    
C28   C80   A    
H33   N48   S    
C23   N23   A    
C92   N57   S    
N5    Ni2   S    
C24   C55   A    
C39   C64   A    
C56   N56   A    
C18   C61   A    
C16   Cl16  S    
C42   C75   A    
C68   C96   A    
H7    N35   S    
H13   N37   S    
N21   Ni7   S    
N25   Ni7   S    
C78   N63   A    
H27   N44   S    
N10   N25   A    
H42   N52   S    
H2    N31   S    
C18   N18   A    
H5    N33   S    
N24   Ni5   S    
C29   C83   A    
H9    N36   S    
C17   N17   A    
H53   N58   S    
H62   N30   S    
C23   Cl23  S    
H51   N57   S    
C35   C86   A    
N11   Ni7   S    
H14   N38   S    
H40   N51   S    
H24   N42   S    
H36   N49   S    
C9    Cl9   S    
C42   C70   A    
C81   N46   S    
H25   N43   S    
C14   Cl14  S    
H20   N41   S    
H19   N40   S    
C65   C90   A    
N23   Ni3   S    
H59   N60   S    
C73   N38   S    
C29   C88   A    
C13   Cl13  S    
C1    C44   A    
C17   C61   A    
C88   N53   S    
C38   C71   A    
N12   Ni2   S    
C43   C53   S    
H47   N54   S    
C86   N51   S    
C89   N64   A    
H26   N43   S    
N1    Ni1   S    
C39   C72   A    
C27   C91   A    
C76   N41   S    
N62   Ni4   S    
C36   C63   A    
H58   N60   S    
C22   N22   A    
H63   N30   S    
N4    N45   A    
C71   C82   A    
N5    N34   A    
N18   Ni5   S    
C6    Cl6   S    
H17   N39   S    
C43   C69   A    
C82   N47   S    
C7    Cl7   S    
N64   Ni1   S    
N8    Ni4   S    
C77   N42   S    
C33   C46   S    
C52   C89   A    
C68   N32   S    
H41   N51   S    
C32   C84   A    
C78   Cl31  S    
N10   Ni6   S    
C13   N13   A    
C65   N30   S    
C3    C50   A    
N22   Ni6   S    
N17   Ni7   S    
H55   N59   S    
C29   C50   S    
C45   Cl28  S    
H56   N29   S    
C14   C58   A    
C5    C48   A    
C91   N55   S    
C24   Cl24  S    
C23   C47   A    
C72   N37   S    
C72   C83   A    
C7    C46   A    
C15   Cl15  S    
N11   N24   A    
C27   C81   A    
C25   C54   A    
H64   N31   S    
C12   C46   A    
C36   C57   S    
C6    C47   A    
C67   Cl30  S    
C1    Cl1   S    
C12   Cl12  S    
N6    N23   A    
N9    N26   A    
C74   N39   S    
H18   N40   S    
C77   C84   A    
H22   N42   S    
C39   C58   S    
C3    N3    A    
C40   C61   S    
N2    N62   A    
C69   N33   S    
C2    N2    A    
C63   N28   S    
C30   C82   A    
N4    Ni3   S    
C1    N1    A    
H6    N33   S    
C32   C51   S    
C3    Cl3   S    
H57   N59   S    
N14   Ni6   S    
H52   N57   S    
H12   N27   S    
C10   N10   A    
C38   C65   A    
C45   C49   A    
H39   N50   S    
C62   C91   A    
H3    N32   S    
C45   N45   A    
N17   N18   A    
C28   C92   A    
C51   C67   A    
C56   Cl29  S    
C70   N35   S    
C20   C59   A    
H10   N36   S    
C35   C44   S    
C8    Cl8   S    
C76   C87   A    
C84   N49   S    
C9    N9    A    
H30   N46   S    
C16   C60   A    
C63   C92   A    
C32   C96   A    
H8    N35   S    
H49   N55   S    
N13   N22   A    
C11   N11   A    
H50   N55   S    
H21   N41   S    
C14   N14   A    
C11   Cl11  S    
N15   N20   A    
H38   N50   S    
C19   N19   A    
C10   Cl10  S    
C9    C53   A    
C74   C81   A    
C30   C49   S    
N63   N64   A    
C26   C53   A    
C79   C85   A    
C11   C55   A    
C93   N58   S    
N14   N21   A    
C6    N6    A    
C67   N62   A    
C43   C76   A    
C4    N4    A    
C22   Cl22  S    
C83   N48   S    
N20   Ni8   S    
N19   Ni6   S    
C7    N7    A    
C34   N34   A    
H4    N32   S    
C15   C59   A    
H11   N37   S    
C8    C44   A    
C41   C60   S    
C20   Cl20  S    
C66   N31   S    
C16   N16   A    
C33   C93   A    
C95   N60   S    
C41   C79   A    
C5    N5    A    
N63   Ni3   S    
C41   C66   A    
N13   Ni8   S    
C19   C60   A    
C70   C94   A    
N1    N8    A    
N3    N56   A    
C34   C48   A    
C69   C93   A    
N16   Ni8   S    
C5    Cl5   S    
N34   Ni4   S    
C4    C49   A    
N9    Ni5   S    
C62   N27   S    
C35   C94   A    
C4    Cl4   S    
C33   C87   A    
C79   N43   S    
C21   C58   A    
H1    N27   S    
C42   C54   S    
H48   N54   S    
C24   N24   A    
C19   Cl19  S    
C87   N52   S    
N7    N12   A    
H44   N53   S    
H28   N44   S    
N16   N19   A    
C31   C95   A    
C90   N54   S    
C85   N50   S    
C73   C80   A    
H60   N61   S    
C64   N29   S    
C21   N21   A    
C12   N12   A    
H15   N38   S    
H54   N58   S    
C75   N40   S    
C10   C54   A    
C50   C56   A    
C21   Cl21  S    
C8    N8    A    
C2    C51   A    
H35   N48   S    
H37   N49   S    
N7    Ni3   S    
N56   Ni1   S    
C37   C55   S    
C20   N20   A    
H29   N46   S    
C52   C78   A    
C13   C57   A    
C2    Cl2   S    
C40   C68   A    
N45   Ni2   S    
H34   N28   S    
H31   N47   S    
C40   C77   A    
C75   C86   A    
H23   N28   S    
C26   Cl26  S    
N2    Ni2   S    
N15   Ni5   S    
C25   Cl25  S    
C36   C73   A    
C64   C88   A    
N6    Ni1   S    
C15   N15   A    
C96   N61   S    
C38   C59   S    
H46   N53   S    
C66   C95   A    
C89   Cl32  S    
