data_mof_unit_51141.cif
_audit_creation_date              2013-03-05T16:42:22-0500
_audit_creation_method            fapswitch 2.2
_symmetry_space_group_name_H-M    P1
_symmetry_Int_Tables_number       1
_space_group_crystal_system       triclinic
_cell_length_a                    9.869869
_cell_length_b                    10.727411
_cell_length_c                    15.61647
_cell_angle_alpha                 90.054403
_cell_angle_beta                  67.776532
_cell_angle_gamma                 89.138887
_cell_volume                      1530.40588234

loop_
_atom_site_label
_atom_site_type_symbol
_atom_site_description
_atom_site_fract_x
_atom_site_fract_y
_atom_site_fract_z
_atom_type_partial_charge
O1    O     O_R   0.385310 0.683210 0.499990 -0.609993
O2    O     O_R   0.614650 0.683240 0.500000 -0.624398
C1    C     C_R   0.500338 0.740133 0.498390 0.938734
O3    O     O_R   0.319830 0.499970 0.632240 -0.612900
O4    O     O_R   0.549170 0.500000 0.632250 -0.617685
C2    C     C_R   0.408580 0.501710 0.675591 0.906028
Zn1   Zn    Zn3+2 0.346870 0.499980 0.499990 0.968405
Zn2   Zn    Zn3+2 0.653130 0.500020 0.500010 0.959281
O5    O     O_R   0.385350 0.316760 0.500000 -0.621361
O6    O     O_R   0.614690 0.316790 0.500010 -0.626764
O7    O     O_R   0.450830 0.500000 0.367750 -0.617409
O8    O     O_R   0.680170 0.500030 0.367760 -0.619688
C3    C     C_R   0.502835 0.260230 0.496693 0.881588
C4    C     C_R   0.591554 0.501958 0.324375 0.861948
C5    C     C_R   0.352364 0.518588 0.775529 -0.058588
C6    C     C_R   0.649005 0.503078 0.223677 -0.055766
C7    C     C_R   0.172720 0.599138 0.917662 -0.141270
C8    C     C_R   0.213509 0.569060 0.824545 -0.156530
C9    C     C_R   0.448331 0.496700 0.819970 -0.243170
C10   C     C_R   0.415555 0.536013 0.911073 0.079808
C11   C     C_R   0.272838 0.583946 0.962355 0.090480
C12   C     C_R   0.520742 0.524111 0.952147 0.071207
C13   C     C_R   0.475736 0.538816 0.049294 -0.026437
C14   C     C_R   0.324176 0.566581 0.102423 -0.060263
C15   C     C_R   0.229611 0.605192 0.058069 -0.077366
C16   C     C_R   0.669839 0.495573 0.898275 -0.190384
C17   C     C_R   0.768588 0.466026 0.938887 -0.227016
C18   C     C_R   0.726237 0.474434 0.033995 0.193393
C19   C     C_R   0.584187 0.520811 0.088901 0.098113
C20   C     C_R   0.825861 0.440036 0.074913 -0.203871
C21   C     C_R   0.784422 0.448869 0.170449 -0.206197
C22   C     C_R   0.558436 0.550220 0.181034 -0.249201
H1    H     H_    0.468137 0.609677 0.221783 0.191970
H2    H     H_    0.857198 0.413539 0.202459 0.143295
H3    H     H_    0.879578 0.438494 0.895318 0.145659
H4    H     H_    0.061717 0.632544 0.953785 0.185093
H5    H     H_    0.137153 0.586030 0.791001 0.159724
H6    H     H_    0.548490 0.446533 0.781641 0.152185
H7    H     H_    0.714396 0.495212 0.823746 0.138397
H8    H     H_    0.933372 0.402409 0.033465 0.140854
C23   C     C_R   0.384718 0.940047 0.488892 0.026345
C24   C     C_R   0.506698 0.872015 0.487654 -0.051132
C25   C     C_R   0.639609 0.933412 0.469652 -0.189050
H9    H     H_    0.739322 0.882861 0.462257 0.171521
C26   C     C_R   0.641727 0.062549 0.468040 -0.202046
H10   H     H_    0.741962 0.109379 0.460748 0.167124
C27   C     C_R   0.511395 0.129080 0.483006 -0.065541
C28   C     C_R   0.388762 0.066700 0.483505 0.051831
C29   C     C_3   0.230765 0.084185 0.543204 -0.481575
C30   C     C_3   0.225019 0.943225 0.551186 0.134818
H11   H     H_    0.213833 0.134370 0.608986 0.228703
H12   H     H_    0.166533 0.122358 0.503773 0.177657
H13   H     H_    0.153885 0.901631 0.518552 0.091314
C31   C     C_R   0.881767 0.533899 0.577530 0.198983
N1    N     N_R   0.856900 0.500860 0.500610 -0.107795
C32   C     C_R   0.971457 0.448346 0.428834 -0.086562
H14   H     H_    0.952844 0.409183 0.370437 0.134603
C33   C     C_R   0.115081 0.446583 0.429702 -0.044025
H15   H     H_    0.203878 0.402871 0.373661 0.138513
N2    N     N_R   0.142540 0.500820 0.500610 -0.106339
C34   C     C_R   0.023823 0.532555 0.577974 0.145807
C35   C     C_3   0.996991 0.653271 0.628762 -0.417434
C36   C     C_3   0.844117 0.655759 0.627057 -0.463523
H16   H     H_    0.997297 0.643380 0.699455 0.210742
H17   H     H_    0.068144 0.725953 0.586080 0.224714
H18   H     H_    0.756179 0.647552 0.696776 0.207231
H19   H     H_    0.826696 0.731445 0.583503 0.219864
C37   C     C_2   0.081539 0.657733 0.113415 0.460470
H20   H     H_    0.010765 0.611955 0.175774 0.100000
O9    O     O_2   0.039457 0.755355 0.090907 -0.546741
N3    N     N_R   0.191207 0.903964 0.647053 0.220509
O10   O     O_R   0.058984 0.921001 0.707802 -0.385222
O11   O     O_R   0.290460 0.855600 0.673641 -0.399703
C38   C     C_2   0.256822 0.533760 0.201330 0.283749
H21   H     H_    0.281167 0.443004 0.222771 0.070798
O12   O     O_2   0.181229 0.608977 0.259022 -0.578510

loop_
_geom_bond_atom_site_label_1
_geom_bond_atom_site_label_2
_geom_bond_distance
_ccdc_geom_bond_type
C5    C8    1.393080 A    
N1    C32   1.368614 A    
C1    C24   1.424335 S    
C23   C24   1.392255 A    
Zn1   N2    2.012952 S    
C9    C10   1.397586 A    
C30   N3    1.468857 S    
C26   H10   1.083466 S    
C6    C21   1.396713 A    
Zn1   O7    1.927353 S    
C16   C17   1.382489 A    
C38   O12   1.221256 D    
C13   C19   1.435424 A    
C18   C19   1.420294 A    
C8    H5    1.081744 S    
C19   C22   1.397991 A    
C20   C21   1.392511 A    
O7    C4    1.295232 A    
C16   H7    1.077409 S    
C31   C36   1.487019 S    
C33   N2    1.366994 A    
C32   H14   1.081773 S    
O5    C3    1.283941 A    
C35   H16   1.110292 S    
C2    C5    1.455260 S    
C37   H20   1.083558 S    
C29   H11   1.113309 S    
C13   C14   1.435985 A    
C7    H4    1.080403 S    
C36   H18   1.110916 S    
C15   C37   1.489752 S    
O3    Zn1   1.979815 S    
Zn2   N1    2.014902 S    
C26   C27   1.401211 A    
C36   H19   1.112080 S    
C30   H13   1.109676 S    
C38   H21   1.082666 S    
C14   C15   1.414359 A    
O3    C2    1.294223 A    
N3    O11   1.301552 A    
C17   H3    1.084560 S    
C33   H15   1.077297 S    
C7    C11   1.416756 A    
N2    C34   1.365602 A    
O1    C1    1.289128 A    
C5    C9    1.387365 A    
C25   H9    1.083441 S    
C35   C36   1.518952 S    
C9    H6    1.077465 S    
C27   C28   1.389275 A    
Zn2   O8    1.979812 S    
C29   H12   1.112080 S    
C7    C8    1.390374 A    
C21   H2    1.083177 S    
C20   H8    1.083952 S    
C25   C26   1.385882 A    
C37   O9    1.220983 D    
C28   C29   1.492399 S    
O8    C4    1.293123 A    
C4    C6    1.456132 S    
C24   C25   1.407496 A    
C23   C30   1.506783 S    
C3    C27   1.419299 S    
Zn1   O5    1.996233 S    
C11   C15   1.407908 A    
C31   N1    1.361461 A    
C35   H17   1.099428 S    
O1    Zn1   2.007455 S    
O2    Zn2   1.996233 S    
C10   C12   1.416130 A    
O6    C3    1.285667 A    
O4    Zn2   1.927353 S    
C31   C34   1.404576 A    
C6    C22   1.391257 A    
C22   H1    1.076661 S    
C18   C20   1.405756 A    
O2    C1    1.283292 A    
N3    O10   1.300957 A    
C14   C38   1.477487 S    
O4    C2    1.293314 A    
C23   C28   1.361588 A    
C32   C33   1.422578 A    
C34   C35   1.484921 S    
C10   C11   1.419160 A    
Zn2   O6    2.007455 S    
C29   C30   1.517525 S    
C12   C16   1.420033 A    
C17   C18   1.384849 A    
C12   C13   1.418264 A    
