data_mof_unit_52631.cif
_audit_creation_date              2012-12-10T18:57:44-0500
_audit_creation_method            fapswitch 2.2
_symmetry_space_group_name_H-M    P1
_symmetry_Int_Tables_number       1
_space_group_crystal_system       triclinic
_cell_length_a                    10.899227
_cell_length_b                    10.849894
_cell_length_c                    9.541382
_cell_angle_alpha                 91.137754
_cell_angle_beta                  90.122514
_cell_angle_gamma                 90.762497
_cell_volume                      1127.99488935

loop_
_atom_site_label
_atom_site_type_symbol
_atom_type_description
_atom_site_fract_x
_atom_site_fract_y
_atom_site_fract_z
_atom_type_partial_charge
C1    C     C_R   0.499508 0.261828 0.498380 0.811625
C2    C     C_R   0.432300 0.416399 0.072710 -0.059109
C3    C     C_R   0.434466 0.414294 0.923465 -0.090471
C4    C     C_R   0.265455 0.493720 0.499858 0.806547
C5    C     C_R   0.546931 0.598359 0.929233 0.246124
C6    C     C_3   0.670965 0.657844 0.922981 0.220025
C7    C     C_3   0.675638 0.649359 0.083170 -0.581284
C8    C     C_R   0.505238 0.737362 0.501332 0.828975
C9    C     C_R   0.734818 0.503857 0.499965 0.756892
C10   C     C_2   0.932139 0.470122 0.392181 -0.280734
C11   C     C_2   0.866996 0.519635 0.498945 0.298497
C12   C     C_R   0.508049 0.127802 0.495801 -0.217733
C13   C     C_2   0.066075 0.478928 0.385511 -0.169682
C14   C     C_2   0.133985 0.476104 0.502079 -0.277776
C15   C     C_R   0.507685 0.066356 0.623396 0.074092
C16   C     C_3   0.769889 0.847060 0.888905 0.049199
C17   C     C_3   0.745325 0.972033 0.959483 -0.316690
C18   C     C_3   0.862457 0.050111 0.971833 -0.914296
C19   C     C_3   0.938315 0.711565 0.561636 0.059949
C20   C     C_3   0.033816 0.776513 0.655978 -0.325218
C21   C     C_3   0.050063 0.911917 0.618590 -0.962339
C22   C     C_3   0.401585 0.105362 0.184876 0.069984
C23   C     C_R   0.525677 0.057555 0.370254 0.459275
C24   C     C_3   0.353007 0.974932 0.146611 -0.391440
C25   C     C_3   0.233176 0.979951 0.063721 -0.932791
C26   C     C_R   0.543109 0.930723 0.378031 -0.329644
C27   C     C_R   0.521049 0.869859 0.503353 -0.184220
C28   C     C_R   0.511261 0.939395 0.626803 0.179363
C29   C     C_3   0.417967 0.932147 0.740402 -0.426248
C30   C     C_3   0.414593 0.071754 0.738168 -0.504292
C31   C     C_R   0.549126 0.596822 0.075697 0.206965
Cu1   Cu    Cu3+1 0.499990 0.499980 0.640670 0.958456
Cu2   Cu    Cu3+1 0.500010 0.500020 0.359330 0.947637
H1    H     H_    0.375412 0.351921 0.127996 0.120993
H2    H     H_    0.456474 0.896351 0.838937 0.238174
H3    H     H_    0.324930 0.108083 0.702969 0.190942
H4    H     H_    0.885600 0.424422 0.304308 0.143066
H5    H     H_    0.452535 0.116187 0.835100 0.202529
H6    H     H_    0.804280 0.863328 0.781685 0.166815
H7    H     H_    0.842811 0.799323 0.948820 0.132899
H8    H     H_    0.676550 0.022422 0.897244 0.231456
H9    H     H_    0.707173 0.957824 0.065935 0.230876
H10   H     H_    0.931688 0.002530 0.036119 0.252936
H11   H     H_    0.841474 0.140069 0.023235 0.265762
H12   H     H_    0.382981 0.343834 0.866148 0.137483
H13   H     H_    0.901107 0.067422 0.866339 0.256972
H14   H     H_    0.849405 0.760436 0.568683 0.130993
H15   H     H_    0.972028 0.716417 0.451444 0.150212
H16   H     H_    0.005578 0.770140 0.767320 0.210474
H17   H     H_    0.123425 0.729703 0.644246 0.221322
H18   H     H_    0.088074 0.919695 0.511145 0.260330
H19   H     H_    0.114541 0.957879 0.693829 0.256922
H20   H     H_    0.960901 0.960093 0.624101 0.255284
H21   H     H_    0.403667 0.156623 0.085810 0.155489
H22   H     H_    0.336895 0.153114 0.257406 0.127901
H23   H     H_    0.740045 0.602454 0.864578 0.138334
H24   H     H_    0.422588 0.924962 0.083405 0.228763
H25   H     H_    0.333830 0.922651 0.243134 0.220299
H26   H     H_    0.161256 0.025565 0.127825 0.253796
H27   H     H_    0.201497 0.884871 0.035873 0.259511
H28   H     H_    0.246289 0.031636 0.965594 0.263616
H29   H     H_    0.743610 0.581636 0.119965 0.181895
H30   H     H_    0.678819 0.739855 0.139389 0.199457
H31   H     H_    0.108537 0.486260 0.283067 0.165321
H32   H     H_    0.092666 0.458227 0.603162 0.200475
H33   H     H_    0.559340 0.878992 0.281907 0.174719
H34   H     H_    0.331000 0.886808 0.704824 0.191745
N1    N     N_R   0.500780 0.500930 0.147930 -0.176365
N2    N     N_R   0.500780 0.500890 0.852020 -0.214105
O1    O     O_R   0.500000 0.319640 0.618810 -0.581844
O2    O     O_3   0.921700 0.588903 0.606271 -0.619988
O3    O     O_3   0.523361 0.108682 0.238652 -0.600685
O4    O     O_R   0.500010 0.319680 0.381230 -0.548763
O5    O     O_R   0.321940 0.499980 0.618760 -0.588127
O6    O     O_R   0.321950 0.500020 0.381180 -0.582602
O7    O     O_R   0.499990 0.680320 0.618770 -0.555031
O8    O     O_R   0.500000 0.680360 0.381190 -0.589138
O9    O     O_R   0.678050 0.499980 0.618820 -0.564911
O10   O     O_R   0.678060 0.500020 0.381240 -0.602107
O11   O     O_3   0.658202 0.780035 0.877265 -0.603731

loop_
_geom_bond_atom_site_label_1
_geom_bond_atom_site_label_2
_ccdc_geom_bond_type
C19   O2    S    
C19   C20   S    
C22   H21   S    
C12   C23   A    
C26   C27   A    
C29   C30   S    
C10   H4    S    
C28   C29   S    
C3    N2    A    
C2    N1    A    
Cu1   O5    S    
C5    C6    S    
C19   H14   S    
C8    O7    A    
C30   H5    S    
C9    O10   A    
C23   C26   A    
C17   H9    S    
C4    O6    A    
C5    N2    A    
C29   H34   S    
Cu2   O6    S    
C16   C17   S    
C20   H17   S    
C25   H27   S    
C4    O5    A    
C2    H1    S    
C13   C14   D    
C1    C12   S    
C18   H13   S    
C22   O3    S    
C31   N1    A    
C7    C31   S    
C26   H33   S    
C24   C25   S    
C19   H15   S    
Cu2   O10   S    
Cu1   O1    S    
C3    H12   S    
C16   O11   S    
C7    H29   S    
C20   H16   S    
C18   H11   S    
C6    O11   S    
C12   C15   A    
C17   C18   S    
C25   H28   S    
C9    C11   S    
C7    H30   S    
C6    C7    S    
C16   H7    S    
Cu2   O4    S    
C8    O8    A    
C22   C24   S    
C21   H18   S    
C15   C30   S    
C24   H24   S    
Cu1   N2    S    
C23   O3    S    
C6    H23   S    
C10   C13   S    
Cu1   O7    S    
C22   H22   S    
C29   H2    S    
C1    O1    A    
C30   H3    S    
C1    O4    A    
Cu1   Cu2   S    
C2    C3    A    
C18   H10   S    
C21   H20   S    
Cu2   O8    S    
C15   C28   A    
C13   H31   S    
C14   H32   S    
C11   O2    S    
C9    O9    A    
C4    C14   S    
C17   H8    S    
C10   C11   D    
C16   H6    S    
Cu1   O9    S    
C20   C21   S    
C24   H25   S    
C27   C28   A    
C8    C27   S    
C25   H26   S    
C21   H19   S    
Cu2   N1    S    
C5    C31   A    
