data_mof_unit_54015.cif
_audit_creation_date              2012-12-10T18:47:49-0500
_audit_creation_method            fapswitch 2.2
_symmetry_space_group_name_H-M    P1
_symmetry_Int_Tables_number       1
_space_group_crystal_system       triclinic
_cell_length_a                    9.825431
_cell_length_b                    10.712811
_cell_length_c                    15.453278
_cell_angle_alpha                 89.966061
_cell_angle_beta                  67.148304
_cell_angle_gamma                 89.945996
_cell_volume                      1498.91496048

loop_
_atom_site_label
_atom_site_type_symbol
_atom_type_description
_atom_site_fract_x
_atom_site_fract_y
_atom_site_fract_z
_atom_type_partial_charge
C1    C     C_R   0.499801 0.740171 0.500332 0.848512
C2    C     C_R   0.369753 0.936116 0.511594 -0.212877
C3    C     C_R   0.499340 0.127345 0.501200 -0.005517
C4    C     C_R   0.499412 0.872557 0.500994 -0.006472
C5    C     C_R   0.965972 0.427735 0.437879 -0.057805
C6    C     C_R   0.034160 0.572540 0.561940 -0.117788
C7    C     C_R   0.109882 0.427651 0.437971 -0.037779
C8    C     C_R   0.890213 0.572573 0.561895 -0.064729
C9    C     C_R   0.406940 0.495802 0.676410 0.959302
C10   C     C_R   0.592561 0.504553 0.322973 0.962889
C11   C     C_R   0.346552 0.476759 0.778190 -0.335020
C12   C     C_R   0.499774 0.259796 0.500364 0.874559
C13   C     C_R   0.651693 0.515593 0.219491 -0.269040
C14   C     C_R   0.201112 0.353504 0.915833 0.542407
C15   C     C_R   0.852047 0.544316 0.065353 0.405528
C16   C     C_R   0.228919 0.393131 0.823543 0.292091
C17   C     C_R   0.804295 0.526407 0.164210 0.261521
C18   C     C_R   0.429320 0.524807 0.826326 0.389046
C19   C     C_R   0.551256 0.515427 0.175205 0.361646
C20   C     C_R   0.423897 0.465103 0.908424 -0.143385
C21   C     C_R   0.602607 0.495126 0.078415 -0.174110
C22   C     C_R   0.300467 0.387250 0.958222 -0.106211
C23   C     C_R   0.380444 0.381578 0.088037 -0.290556
C24   C     C_R   0.750405 0.525436 0.021748 -0.050950
C25   C     C_R   0.536157 0.483152 0.943452 0.079801
C26   C     C_R   0.504602 0.455238 0.037595 0.066801
C27   C     C_3   0.359170 0.655838 0.210017 0.099227
C28   C     C_3   0.352552 0.743934 0.289556 -0.313290
C29   C     C_3   0.299664 0.873789 0.276383 -0.970617
C30   C     C_3   0.440058 0.735322 0.800244 0.109065
C31   C     C_3   0.544083 0.842176 0.750646 -0.365914
C32   C     C_3   0.459547 0.963321 0.755328 -0.891766
C33   C     C_R   0.681738 0.519874 0.886307 -0.289046
C34   C     C_R   0.280621 0.344286 0.048771 0.466786
C35   C     C_R   0.789862 0.538490 0.923929 0.490983
C36   C     C_R   0.628768 0.935986 0.491095 -0.191422
C37   C     C_R   0.369723 0.063914 0.511664 -0.181163
C38   C     C_R   0.628698 0.063732 0.491284 -0.192378
H1    H     H_    0.365031 0.346091 0.156808 0.183475
H2    H     H_    0.805443 0.630644 0.611352 0.150980
H3    H     H_    0.164691 0.248438 0.161033 0.318647
H4    H     H_    0.938406 0.583405 0.801235 0.304455
H5    H     H_    0.246912 0.648882 0.209108 0.172078
H6    H     H_    0.431634 0.696394 0.140841 0.128060
H7    H     H_    0.275469 0.705284 0.357719 0.252325
H8    H     H_    0.464021 0.751830 0.291594 0.209923
H9    H     H_    0.376286 0.915336 0.209278 0.272383
H10   H     H_    0.296288 0.935169 0.335047 0.268840
H11   H     H_    0.186955 0.868739 0.276055 0.270148
H12   H     H_    0.716460 0.525448 0.810980 0.194352
H13   H     H_    0.383418 0.758155 0.876276 0.155473
H14   H     H_    0.356028 0.726274 0.768670 0.138735
H15   H     H_    0.624763 0.856793 0.783944 0.229135
H16   H     H_    0.606230 0.817020 0.675766 0.228516
H17   H     H_    0.380858 0.951464 0.720295 0.273880
H18   H     H_    0.538443 0.038741 0.718811 0.266060
H19   H     H_    0.397885 0.991426 0.829552 0.273390
H20   H     H_    0.999844 0.493085 0.162248 0.356487
H21   H     H_    0.116672 0.409142 0.745901 0.369917
H22   H     H_    0.012464 0.275712 0.931255 0.371685
H23   H     H_    0.729822 0.887404 0.482858 0.158489
H24   H     H_    0.036469 0.625806 0.050956 0.324864
H25   H     H_    0.268680 0.112524 0.519924 0.163954
H26   H     H_    0.729730 0.112164 0.483078 0.158134
H27   H     H_    0.268749 0.887604 0.519821 0.160764
H28   H     H_    0.941637 0.370030 0.388263 0.143166
H29   H     H_    0.058630 0.630461 0.611388 0.125355
H30   H     H_    0.194729 0.369715 0.388430 0.146291
N1    N     N_R   0.142780 0.500030 0.500020 -0.082306
N2    N     N_R   0.857220 0.499970 0.499980 -0.078261
O1    O     O_R   0.385370 0.683250 0.500010 -0.642414
O2    O     O_3   0.931912 0.572751 0.866468 -0.717397
O3    O     O_3   0.401355 0.534460 0.226655 -0.629068
O4    O     O_3   0.523742 0.624773 0.789042 -0.652104
O5    O     O_3   0.903113 0.522761 0.207855 -0.749664
O6    O     O_3   0.146982 0.341157 0.777794 -0.766491
O7    O     O_3   0.081068 0.278205 0.964165 -0.678088
O8    O     O_3   0.995259 0.579514 0.011218 -0.719898
O9    O     O_R   0.614630 0.316750 0.499990 -0.634399
O10   O     O_R   0.614700 0.683220 0.500000 -0.627098
O11   O     O_R   0.385300 0.316780 0.500000 -0.622412
O12   O     O_R   0.319830 0.500020 0.632250 -0.625174
O13   O     O_R   0.680170 0.499980 0.367750 -0.553141
O14   O     O_R   0.549160 0.499990 0.632240 -0.579415
O15   O     O_R   0.450840 0.500010 0.367760 -0.581823
O16   O     O_3   0.162986 0.267639 0.098675 -0.697790
Zn1   Zn    Zn3+2 0.346870 0.500020 0.500000 0.946260
Zn2   Zn    Zn3+2 0.653130 0.499980 0.500000 0.978395

loop_
_geom_bond_atom_site_label_1
_geom_bond_atom_site_label_2
_ccdc_geom_bond_type
C6    N1    A    
C21   C26   A    
C4    C36   A    
C10   O15   A    
C30   H13   S    
C2    H27   S    
N2    Zn2   S    
C11   C18   A    
C29   H11   S    
H3    O16   S    
C28   H8    S    
C1    O1    A    
C29   H9    S    
C28   C29   S    
C19   C21   A    
C30   C31   S    
C30   O4    S    
C23   C26   A    
C15   O8    S    
C20   C25   A    
O12   Zn1   S    
C12   O9    A    
C10   O13   A    
C34   O16   S    
C14   O7    S    
C3    C12   S    
C7    H30   S    
C27   H6    S    
C3    C38   A    
C32   H17   S    
N1    Zn1   S    
C9    O12   A    
O13   Zn2   S    
C18   O4    S    
C32   H19   S    
O9    Zn2   S    
C37   H25   S    
H20   O5    S    
C38   H26   S    
O15   Zn1   S    
C22   C34   A    
C28   H7    S    
C24   C35   A    
C13   C19   A    
C29   H10   S    
C19   O3    S    
H22   O7    S    
C5    C7    A    
C6    C8    A    
C25   C26   A    
C2    C4    A    
C5    N2    A    
C11   C16   A    
C31   C32   S    
C23   C34   A    
H4    O2    S    
C31   H15   S    
C9    C11   S    
O11   Zn1   S    
O1    Zn1   S    
C6    H29   S    
C20   C22   A    
C35   O2    S    
C14   C16   A    
C36   H23   S    
C15   C17   A    
C30   H14   S    
C15   C24   A    
C16   O6    S    
H24   O8    S    
O14   Zn2   S    
C5    H28   S    
C10   C13   S    
C7    N1    A    
C8    N2    A    
C13   C17   A    
C1    C4    S    
C14   C22   A    
C36   C38   A    
C33   H12   S    
O10   Zn2   S    
C2    C37   A    
C23   H1    S    
C33   C35   A    
C12   O11   A    
C18   C20   A    
C31   H16   S    
C9    O14   A    
C27   H5    S    
C3    C37   A    
C21   C24   A    
C27   C28   S    
C17   O5    S    
C1    O10   A    
C8    H2    S    
C27   O3    S    
H21   O6    S    
C32   H18   S    
C25   C33   A    
