data_mof_unit_66429.cif
_audit_creation_date              2012-12-10T20:17:49-0500
_audit_creation_method            fapswitch 2.2
_symmetry_space_group_name_H-M    P1
_symmetry_Int_Tables_number       1
_space_group_crystal_system       triclinic
_cell_length_a                    19.232446
_cell_length_b                    18.403167
_cell_length_c                    23.495337
_cell_angle_alpha                 90.021132
_cell_angle_beta                  89.754366
_cell_angle_gamma                 89.823077
_cell_volume                      8315.77392979

loop_
_atom_site_label
_atom_site_type_symbol
_atom_type_description
_atom_site_fract_x
_atom_site_fract_y
_atom_site_fract_z
_atom_type_partial_charge
C1    C     C_R   0.365600 0.500122 0.499317 1.026585
C2    C     C_R   0.532854 0.555585 0.703726 0.365475
C3    C     C_R   0.470446 0.558994 0.237549 0.504199
C4    C     C_R   0.526637 0.558591 0.762783 0.507395
C5    C     C_R   0.501842 0.500596 0.207951 -0.010484
C6    C     C_R   0.493780 0.500907 0.791900 -0.010871
C7    C     C_R   0.742316 0.447412 0.458683 0.255802
C8    C     C_R   0.250448 0.552266 0.522318 0.258531
C9    C     C_R   0.260408 0.452919 0.453064 0.254634
C10   C     C_R   0.748811 0.551741 0.523514 0.257408
C11   C     C_R   0.814833 0.450001 0.450793 0.289397
C12   C     C_R   0.634488 0.499858 0.499238 1.018958
C13   C     C_R   0.177796 0.552925 0.514986 0.290335
C14   C     C_R   0.187784 0.453599 0.445885 0.288848
C15   C     C_R   0.821477 0.553892 0.515766 0.289266
C16   C     C_R   0.853492 0.501759 0.480697 -0.107373
C17   C     C_R   0.147788 0.504612 0.475992 -0.105246
C18   C     C_R   0.709870 0.499722 0.493706 -0.222717
C19   C     C_R   0.290556 0.500471 0.492797 -0.225555
C20   C     C_R   0.499961 0.499989 0.389216 0.902260
C21   C     C_R   0.499722 0.500032 0.610757 0.895747
C22   C     C_R   0.963527 0.560583 0.451666 -0.122115
C23   C     C_R   0.533069 0.443739 0.237724 -0.131782
C24   C     C_R   0.037697 0.441355 0.494153 -0.135115
C25   C     C_R   0.035664 0.561024 0.450170 -0.112892
C26   C     C_R   0.965755 0.440976 0.495752 -0.121590
C27   C     C_R   0.072549 0.501721 0.472027 0.269817
C28   C     C_R   0.928766 0.500989 0.475291 0.267432
C29   C     C_R   0.543684 0.725937 0.464332 0.070696
C30   C     C_R   0.456513 0.274076 0.535833 0.060239
C31   C     C_R   0.456331 0.726195 0.535723 0.062779
C32   C     C_R   0.543389 0.273774 0.464078 0.059190
C33   C     C_R   0.544536 0.802178 0.463723 -0.264314
C34   C     C_R   0.461977 0.444982 0.761655 -0.134517
C35   C     C_R   0.455631 0.197836 0.536446 -0.264534
C36   C     C_R   0.455541 0.802443 0.536459 -0.267039
C37   C     C_R   0.544148 0.197528 0.463344 -0.269800
C38   C     C_R   0.500011 0.841229 0.500086 0.140554
C39   C     C_R   0.499909 0.158761 0.499907 0.139226
C40   C     C_R   0.454935 0.961022 0.463417 0.134674
C41   C     C_R   0.544963 0.038964 0.536582 0.140693
C42   C     C_R   0.545346 0.961517 0.536963 0.148127
C43   C     C_R   0.454549 0.038470 0.463049 0.153220
C44   C     C_R   0.499663 0.077327 0.499714 -0.001248
C45   C     C_R   0.536076 0.444709 0.296587 0.388267
C46   C     C_R   0.500236 0.922661 0.500290 -0.002654
C47   C     C_R   0.557283 0.490751 0.879794 0.536355
C48   C     C_R   0.437941 0.492518 0.120076 0.536684
C49   C     C_R   0.433101 0.498918 0.881964 0.527058
C50   C     C_R   0.562229 0.497756 0.117830 0.525968
C51   C     C_R   0.432893 0.495187 0.941326 -0.025989
C52   C     C_R   0.562345 0.493891 0.058489 -0.025032
C53   C     C_R   0.496981 0.492661 0.970036 -0.017572
C54   C     C_R   0.498221 0.492766 0.029799 -0.017407
C55   C     C_R   0.559848 0.490680 0.939144 -0.034069
C56   C     C_R   0.460286 0.446013 0.702737 0.395350
C57   C     C_R   0.435343 0.492389 0.060710 -0.034669
C58   C     C_R   0.370466 0.494863 0.972499 -0.144988
C59   C     C_R   0.624754 0.491972 0.027327 -0.145387
C60   C     C_R   0.371682 0.492653 0.031711 -0.141235
C61   C     C_R   0.623503 0.489547 0.968134 -0.141470
C62   C     C_3   0.407489 0.917329 0.424855 -0.827473
C63   C     C_3   0.592414 0.082653 0.575123 -0.841604
C64   C     C_3   0.594000 0.920930 0.576612 -0.837132
C65   C     C_3   0.405869 0.079056 0.423436 -0.849341
C66   C     C_R   0.500285 0.500061 0.326946 -0.375383
C67   C     C_R   0.497952 0.500258 0.672971 -0.374343
C68   C     C_R   0.465457 0.556100 0.296692 0.368831
H1    H     H_    0.320582 0.496264 0.951298 0.197302
H2    H     H_    0.578846 0.168973 0.434563 0.160752
H3    H     H_    0.322700 0.492434 0.054634 0.198475
H4    H     H_    0.672474 0.488092 0.945217 0.198384
H5    H     H_    0.557681 0.399584 0.214607 0.204171
H6    H     H_    0.436155 0.401447 0.784391 0.203890
H7    H     H_    0.934819 0.606872 0.435512 0.156840
H8    H     H_    0.066299 0.395764 0.511615 0.154029
H9    H     H_    0.062779 0.607819 0.433203 0.157595
H10   H     H_    0.938864 0.394942 0.514209 0.157759
H11   H     H_    0.439357 0.882155 0.396483 0.249897
H12   H     H_    0.674655 0.492265 0.048522 0.197303
H13   H     H_    0.372961 0.882507 0.451149 0.242763
H14   H     H_    0.373478 0.950282 0.397137 0.247317
H15   H     H_    0.626895 0.117511 0.548832 0.242735
H16   H     H_    0.560565 0.117791 0.603523 0.246648
H17   H     H_    0.626452 0.049697 0.602794 0.247753
H18   H     H_    0.590312 0.861046 0.573743 0.255634
H19   H     H_    0.648703 0.935178 0.566434 0.243268
H20   H     H_    0.581954 0.935593 0.621425 0.248784
H21   H     H_    0.351169 0.064752 0.433612 0.244279
H22   H     H_    0.409524 0.138946 0.426362 0.252940
H23   H     H_    0.577989 0.695812 0.436297 0.137923
H24   H     H_    0.417916 0.064442 0.378605 0.247780
H25   H     H_    0.597691 0.412620 0.356363 0.368432
H26   H     H_    0.399717 0.415438 0.641712 0.340333
H27   H     H_    0.402062 0.586647 0.356341 0.340972
H28   H     H_    0.597413 0.585059 0.644667 0.358454
H29   H     H_    0.459787 0.620514 0.170644 0.332902
H30   H     H_    0.536913 0.619768 0.829908 0.332702
H31   H     H_    0.729914 0.350012 0.428538 0.350853
H32   H     H_    0.256666 0.646823 0.558673 0.348788
H33   H     H_    0.281073 0.400567 0.382991 0.355369
H34   H     H_    0.422369 0.304204 0.563982 0.150495
H35   H     H_    0.747037 0.609922 0.592685 0.360260
H36   H     H_    0.817175 0.391228 0.381956 0.360647
H37   H     H_    0.156729 0.607255 0.584060 0.358704
H38   H     H_    0.181821 0.359325 0.408932 0.352275
H39   H     H_    0.834864 0.650687 0.546746 0.352626
H40   H     H_    0.422040 0.696270 0.563742 0.163031
H41   H     H_    0.577465 0.303656 0.435883 0.177769
H42   H     H_    0.579546 0.830514 0.435210 0.155799
H43   H     H_    0.420785 0.169518 0.565098 0.158986
H44   H     H_    0.420634 0.830986 0.565087 0.158341
N1    N     N_R   0.494712 0.496974 0.852618 -0.343167
N2    N     N_R   0.500629 0.497200 0.147216 -0.343108
N3    N     N_R   0.500000 0.689440 0.500000 -0.101395
N4    N     N_R   0.500000 0.310560 0.500000 -0.103799
O1    O     O_R   0.398180 0.560840 0.499980 -0.600337
O2    O     O_2   0.378454 0.488506 0.150601 -0.519811
O3    O     O_2   0.372417 0.505211 0.853708 -0.542202
O4    O     O_2   0.623028 0.502724 0.146044 -0.544616
O5    O     O_3   0.575200 0.391300 0.322467 -0.723174
O6    O     O_3   0.420653 0.393742 0.676202 -0.735132
O7    O     O_3   0.425930 0.608971 0.323288 -0.675868
O8    O     O_3   0.573654 0.607619 0.677738 -0.665692
O9    O     O_3   0.441972 0.618446 0.210190 -0.671390
O10   O     O_3   0.555536 0.617295 0.790615 -0.669515
O11   O     O_3   0.702055 0.395078 0.432654 -0.774290
O12   O     O_R   0.601820 0.439160 0.500020 -0.596195
O13   O     O_3   0.283563 0.600851 0.557879 -0.757228
O14   O     O_3   0.303450 0.409353 0.420234 -0.741120
O15   O     O_3   0.714785 0.596971 0.561583 -0.748675
O16   O     O_3   0.849315 0.404790 0.412978 -0.746561
O17   O     O_3   0.134359 0.596962 0.547064 -0.743042
O18   O     O_3   0.154169 0.404750 0.410849 -0.741608
O19   O     O_3   0.862547 0.605673 0.541658 -0.741679
O20   O     O_R   0.601820 0.560840 0.500020 -0.595993
O21   O     O_R   0.398180 0.439160 0.499980 -0.596485
O22   O     O_R   0.499980 0.560830 0.416150 -0.623416
O23   O     O_R   0.500020 0.439170 0.583850 -0.616782
O24   O     O_R   0.500020 0.560830 0.583850 -0.597886
O25   O     O_R   0.499980 0.439170 0.416150 -0.586231
O26   O     O_2   0.616722 0.485225 0.849307 -0.521591
Zn1   Zn    Zn3+2 0.500000 0.581210 0.500000 1.003411
Zn2   Zn    Zn3+2 0.500000 0.418790 0.500000 1.005559

loop_
_geom_bond_atom_site_label_1
_geom_bond_atom_site_label_2
_ccdc_geom_bond_type
C16   C28   S    
C65   H24   S    
C49   N1    A    
C34   C56   A    
C8    C13   A    
C23   C45   A    
C5    N2    S    
C41   C42   A    
C35   C39   A    
C3    C68   A    
O24   Zn1   S    
C43   C44   A    
C11   O16   S    
C1    O21   A    
C48   C57   A    
C30   N4    A    
C53   C54   A    
C40   C46   A    
C47   O26   S    
C26   H10   S    
C30   C35   A    
C25   H9    S    
C47   C55   A    
O1    Zn1   S    
H25   O5    S    
O20   Zn1   S    
C20   O22   A    
C10   C15   A    
C15   O19   S    
C66   C68   A    
C58   C60   A    
C15   C16   A    
C29   C33   A    
C40   C62   S    
C42   C46   A    
C31   N3    A    
C10   O15   S    
H39   O19   S    
N4    Zn2   S    
C45   C66   A    
C9    C19   A    
C40   C43   A    
C49   C51   A    
C22   C25   A    
C36   H44   S    
C50   C52   A    
C24   C27   A    
C64   H19   S    
H33   O14   S    
O23   Zn2   S    
C62   H14   S    
C22   C28   A    
C37   H2    S    
C63   H17   S    
C14   C17   A    
C22   H7    S    
C23   H5    S    
C68   O7    S    
C64   H18   S    
C52   C54   A    
C7    C11   A    
C53   C55   A    
C65   H22   S    
N3    Zn1   S    
C59   C61   A    
C8    C19   A    
C1    C19   S    
C32   H41   S    
H28   O8    S    
C17   C27   S    
C62   H11   S    
C4    C6    A    
C2    C67   A    
O25   Zn2   S    
H32   O13   S    
C24   H8    S    
C57   C60   A    
C48   O2    S    
C14   O18   S    
C60   H3    S    
C45   O5    S    
C9    O14   S    
C6    C34   A    
C63   H15   S    
C50   N2    A    
C56   O6    S    
C2    C4    A    
C9    C14   A    
C6    N1    S    
C52   C59   A    
C11   C16   A    
C5    C23   A    
H30   O10   S    
C43   C65   S    
C7    C18   A    
C30   H34   S    
C51   C58   A    
C1    O1    A    
C32   C37   A    
C32   N4    A    
O12   Zn2   S    
C34   H6    S    
H26   O6    S    
C61   H4    S    
H29   O9    S    
C62   H13   S    
H36   O16   S    
C41   C44   A    
C50   O4    S    
C41   C63   S    
C31   H40   S    
C42   C64   S    
C29   H23   S    
C35   H43   S    
C48   N2    A    
C20   C66   S    
C47   N1    A    
H37   O17   S    
C13   O17   S    
C20   O25   A    
O21   Zn2   S    
C24   C26   A    
C3    C5    A    
C59   H12   S    
H31   O11   S    
C3    O9    S    
C58   H1    S    
C39   C44   S    
C12   O12   A    
C2    O8    S    
C25   C27   A    
C56   C67   A    
C65   H21   S    
C26   C28   A    
C33   C38   A    
C4    O10   S    
C63   H16   S    
O22   Zn1   S    
C7    O11   S    
C36   C38   A    
C37   C39   A    
C49   O3    S    
C10   C18   A    
C55   C61   A    
C29   N3    A    
C38   C46   S    
C13   C17   A    
H38   O18   S    
C12   O20   A    
C12   C18   S    
C8    O13   S    
C21   O23   A    
C31   C36   A    
C33   H42   S    
C21   O24   A    
C51   C53   A    
H35   O15   S    
C64   H20   S    
C21   C67   S    
H27   O7    S    
C54   C57   A    
