data_mof_unit_11800.cif
_audit_creation_date              2013-03-05T15:42:14-0500
_audit_creation_method            fapswitch 2.2
_symmetry_space_group_name_H-M    P1
_symmetry_Int_Tables_number       1
_space_group_crystal_system       triclinic
_cell_length_a                    11.591979
_cell_length_b                    11.701275
_cell_length_c                    19.45306
_cell_angle_alpha                 89.555064
_cell_angle_beta                  89.126291
_cell_angle_gamma                 59.231992
_cell_volume                      2266.96885653

loop_
_atom_site_label
_atom_site_type_symbol
_atom_site_description
_atom_site_fract_x
_atom_site_fract_y
_atom_site_fract_z
_atom_type_partial_charge
O1    O     O_R   0.267740 0.231960 0.575440 -0.487203
O2    O     O_R   0.527280 0.186640 0.570530 -0.476408
C1    C     C_R   0.640397 0.116839 0.599178 0.571735
O3    O     O_R   0.728090 0.003450 0.576380 -0.486250
O4    O     O_R   0.682970 0.789190 0.570490 -0.491656
C2    C     C_R   0.612767 0.745236 0.598241 0.560223
O5    O     O_R   0.499290 0.771880 0.575530 -0.468713
O6    O     O_R   0.285330 0.030870 0.569730 -0.483963
C3    C     C_R   0.240611 0.145265 0.597812 0.554853
O7    O     O_R   0.270980 0.227080 0.423890 -0.506703
O8    O     O_R   0.530280 0.182120 0.430050 -0.401937
C4    C     C_R   0.620590 0.080972 0.393948 0.542168
O9    O     O_R   0.731330 0.998570 0.424830 -0.461743
O10   O     O_R   0.685970 0.784660 0.430010 -0.501121
C5    C     C_R   0.622567 0.725840 0.407988 0.561787
O11   O     O_R   0.502530 0.767000 0.423990 -0.495307
O12   O     O_R   0.288330 0.026350 0.429250 -0.455222
C6    C     C_R   0.245849 0.142367 0.400355 0.584407
Cr1   Cr    Cr6+3 0.404720 0.198220 0.499960 1.149321
Cr2   Cr    Cr6+3 0.698290 0.897110 0.500380 1.126843
Cr3   Cr    Cr6+3 0.396970 0.904720 0.499610 1.144440
O13   O     O_3   0.499990 0.000020 0.499980 -0.340478
C7    C     C_1   0.670578 0.647376 0.860330 0.004897
C8    C     C_1   0.655000 0.682719 0.728212 -0.024594
C9    C     C_1   0.663777 0.666927 0.799632 -0.029123
C10   C     C_1   0.641275 0.702502 0.667601 0.019089
C11   C     C_1   0.127601 0.199921 0.859601 0.006751
C12   C     C_1   0.170910 0.170240 0.727704 -0.024624
C13   C     C_1   0.150681 0.182956 0.799081 -0.028493
C14   C     C_1   0.194268 0.160523 0.667109 0.017613
C15   C     C_1   0.677970 0.192401 0.860928 0.006482
C16   C     C_1   0.658274 0.167116 0.728934 -0.023530
C17   C     C_1   0.665142 0.181646 0.800408 -0.026932
C18   C     C_1   0.652900 0.149051 0.668485 0.016851
C19   C     C_R   0.687115 0.594987 0.207870 -0.022827
C20   C     C_R   0.560383 0.644123 0.242299 -0.033864
C21   C     C_R   0.560539 0.627594 0.313399 -0.028686
C22   C     C_R   0.790740 0.575683 0.318931 0.175509
C23   C     C_R   0.803334 0.548343 0.248145 -0.169143
C24   C     C_R   0.433764 0.713394 0.210404 -0.153992
C25   C     C_R   0.317049 0.739474 0.245555 -0.171636
C26   C     C_R   0.321743 0.694707 0.313137 0.230565
C27   C     C_R   0.446677 0.633363 0.347311 0.281743
C28   C     C_R   0.664111 0.632418 0.349401 0.049500
H1    H     H_    0.420923 0.755137 0.159474 0.167922
H2    H     H_    0.902386 0.495057 0.224505 0.140802
H3    H     H_    0.222704 0.791829 0.218657 0.156086
C29   C     C_R   0.158359 0.176457 0.187607 -0.047987
C30   C     C_R   0.228365 0.232276 0.214454 -0.012292
C31   C     C_R   0.215612 0.256640 0.285323 -0.024091
C32   C     C_R   0.135506 0.102838 0.301884 0.209618
C33   C     C_R   0.115743 0.107537 0.231220 -0.128248
C34   C     C_R   0.277641 0.294961 0.170904 -0.080471
C35   C     C_R   0.264311 0.413876 0.191533 -0.129307
C36   C     C_R   0.216480 0.459821 0.257242 -0.086569
C37   C     C_R   0.203062 0.377930 0.305807 0.008525
C38   C     C_R   0.192105 0.172153 0.329815 0.038752
H4    H     H_    0.304065 0.264860 0.117698 0.123774
H5    H     H_    0.056293 0.067871 0.211591 0.179639
H6    H     H_    0.284589 0.473139 0.155859 0.112542
H7    H     H_    0.196189 0.556362 0.270736 0.192067
H8    H     H_    0.174488 0.415696 0.357333 0.253945
C39   C     C_R   0.651477 0.169513 0.181799 -0.039560
C40   C     C_R   0.708962 0.035123 0.201197 0.024033
C41   C     C_R   0.710550 0.002978 0.271747 -0.022337
C42   C     C_R   0.559719 0.238887 0.294737 0.222642
C43   C     C_R   0.573201 0.269119 0.227892 -0.111529
C44   C     C_R   0.772692 0.932269 0.151948 -0.080886
C45   C     C_R   0.856287 0.801758 0.172522 -0.120922
C46   C     C_R   0.871743 0.771688 0.241923 -0.075165
C47   C     C_R   0.794183 0.868710 0.290807 -0.044276
C48   C     C_R   0.632746 0.107130 0.319911 0.014719
H9    H     H_    0.762255 0.953128 0.097337 0.128334
H10   H     H_    0.528036 0.372762 0.213044 0.161352
H11   H     H_    0.911719 0.724492 0.134750 0.128549
H12   H     H_    0.943652 0.671898 0.257790 0.158200
H13   H     H_    0.806744 0.836779 0.343089 0.215168
O14   O     O_R   0.821500 0.119340 0.952830 -0.510531
O15   O     O_R   0.037130 0.162530 0.957360 -0.492922
C49   C     C_R   0.081816 0.231690 0.928909 0.542272
O16   O     O_R   0.056440 0.344740 0.951340 -0.506660
O17   O     O_R   0.797900 0.560360 0.957470 -0.489245
C50   C     C_R   0.683522 0.605171 0.929824 0.552289
O18   O     O_R   0.596130 0.579390 0.952730 -0.502359
O19   O     O_R   0.639060 0.321160 0.958670 -0.496687
C51   C     C_R   0.708087 0.207271 0.930234 0.540149
O20   O     O_R   0.821240 0.124200 0.104370 -0.511766
O21   O     O_R   0.036890 0.167040 0.097840 -0.507782
C52   C     C_R   0.086028 0.231631 0.123619 0.534232
O22   O     O_R   0.056180 0.349610 0.102880 -0.521363
O23   O     O_R   0.797660 0.564870 0.097950 -0.506320
C53   C     C_R   0.704267 0.559199 0.134270 0.569436
O24   O     O_R   0.595880 0.584250 0.104270 -0.526934
O25   O     O_R   0.638830 0.325670 0.099150 -0.519453
C54   C     C_R   0.702029 0.206403 0.122106 0.534769
Cr4   Cr    Cr6+3 0.926180 0.151990 0.028120 1.021220
Cr5   Cr    Cr6+3 0.921330 0.451820 0.027470 1.014749
Cr6   Cr    Cr6+3 0.626260 0.446870 0.028710 1.016510
O26   O     O_3   0.824590 0.350230 0.028100 -0.265388
N1    N     N_R   0.905954 0.524806 0.361527 0.040591
O27   O     O_R   0.944133 0.604245 0.384272 -0.336923
O28   O     O_R   0.945057 0.413216 0.393614 -0.299461
Cl1   Cl    Cl    0.456969 0.376144 0.344599 -0.561132
N2    N     N_R   0.199514 0.714802 0.345572 0.107108
O29   O     O_R   0.202501 0.633084 0.392177 -0.236705
O30   O     O_R   0.084631 0.794111 0.317173 -0.323070
N3    N     N_R   0.460011 0.582886 0.417187 0.152654
O31   O     O_R   0.369502 0.651379 0.464065 -0.238205
O32   O     O_R   0.575690 0.485447 0.437401 -0.264538
Cl2   Cl    Cl    0.056668 0.041918 0.356069 -0.452193

loop_
_geom_bond_atom_site_label_1
_geom_bond_atom_site_label_2
_geom_bond_distance
_ccdc_geom_bond_type
C36   C37   1.403158 A    
O21   Cr4   1.950765 S    
O11   Cr3   2.054899 S    
C11   C13   1.198623 T    
C25   C26   1.402869 A    
C19   C20   1.431465 A    
N2    O30   1.299978 A    
O4    Cr2   1.918754 S    
C35   H6    1.082614 S    
O19   C51   1.276379 A    
O8    Cr1   1.914812 S    
C7    C50   1.419138 S    
C40   C44   1.413753 A    
C12   C13   1.400959 S    
C8    C10   1.197056 T    
C5    C28   1.479792 S    
O21   C52   1.265792 A    
O4    C2    1.276215 A    
O25   Cr6   1.916934 S    
C5    O11   1.252394 A    
Cr4   O26   1.993178 S    
C39   C54   1.452031 S    
C30   C31   1.400184 A    
C53   O24   1.283742 A    
O19   Cr6   1.960563 S    
C42   C48   1.413842 A    
O14   Cr4   2.073821 S    
C44   C45   1.385509 A    
O20   C54   1.258788 A    
N3    O31   1.302531 A    
C15   C17   1.204475 T    
C46   C47   1.395666 A    
C32   C38   1.394888 A    
O22   Cr5   2.038572 S    
C19   C53   1.476561 S    
O14   C51   1.267625 A    
C42   C43   1.372488 A    
C4    C48   1.489620 S    
C15   C51   1.431782 S    
Cr3   O13   2.008129 S    
N3    O32   1.302916 A    
C45   C46   1.383498 A    
N2    O29   1.300412 A    
Cr5   O26   2.008490 S    
O6    Cr3   1.933209 S    
C2    C10   1.419079 S    
C24   H1    1.079309 S    
C39   C43   1.376638 A    
O1    Cr1   2.032156 S    
C32   C33   1.393073 A    
O10   Cr2   1.962618 S    
C20   C24   1.413877 A    
Cr1   O13   1.994443 S    
O1    C3    1.277788 A    
C8    C9    1.398505 S    
C22   N1    1.427358 S    
C11   C49   1.421876 S    
O23   C53   1.313430 A    
O6    C3    1.285184 A    
C1    C18   1.431971 S    
C44   H9    1.082823 S    
C41   C47   1.410424 A    
O12   Cr3   1.916625 S    
O15   C49   1.281691 A    
C16   C18   1.204526 T    
C21   C27   1.436946 A    
C19   C23   1.414192 A    
C22   C28   1.388983 A    
C33   H5    1.083598 S    
C6    C38   1.479539 S    
C50   O18   1.269897 A    
O7    Cr1   2.057631 S    
C34   H4    1.083857 S    
O20   Cr4   2.031720 S    
N1    O28   1.300173 A    
O12   C6    1.309200 A    
C25   H3    1.082665 S    
C43   H10   1.085286 S    
C27   N3    1.456353 S    
O23   Cr5   1.926864 S    
C3    C14   1.421691 S    
C23   H2    1.083740 S    
C29   C30   1.385071 A    
Cr2   O13   1.975458 S    
O17   C50   1.276000 A    
C32   Cl2   1.754947 S    
C29   C52   1.461087 S    
C46   H12   1.077022 S    
O17   Cr5   1.920373 S    
C37   H8    1.075499 S    
C26   C27   1.418786 A    
C1    O3    1.267233 A    
C47   H13   1.066834 S    
C35   C36   1.383640 A    
C24   C25   1.394204 A    
O9    Cr2   2.033978 S    
O2    Cr1   1.944482 S    
C31   C38   1.433811 A    
C42   Cl1   1.723591 S    
C49   O16   1.278182 A    
C26   N2    1.447450 S    
O8    C4    1.308725 A    
C34   C35   1.381252 A    
C2    O5    1.272290 A    
C41   C48   1.429654 A    
O18   Cr6   2.034000 S    
C40   C41   1.418108 A    
C21   C28   1.425047 A    
C12   C14   1.198561 T    
O2    C1    1.271433 A    
O15   Cr4   1.915660 S    
O5    Cr3   2.033617 S    
C16   C17   1.410447 S    
C22   C23   1.404554 A    
O16   Cr5   2.041188 S    
O7    C6    1.258425 A    
C30   C34   1.409351 A    
C36   H7    1.063583 S    
N1    O27   1.299595 A    
C45   H11   1.082482 S    
C7    C9    1.197057 T    
O25   C54   1.279843 A    
C31   C37   1.410664 A    
C39   C40   1.409126 A    
O3    Cr2   2.082626 S    
C29   C33   1.413638 A    
C4    O9    1.298695 A    
C20   C21   1.394978 A    
Cr6   O26   1.975835 S    
O10   C5    1.314974 A    
C52   O22   1.301993 A    
O24   Cr6   2.076144 S    
