data_mof_unit_8918.cif
_audit_creation_date              2012-12-10T17:16:09-0500
_audit_creation_method            fapswitch 2.2
_symmetry_space_group_name_H-M    P1
_symmetry_Int_Tables_number       1
_space_group_crystal_system       triclinic
_cell_length_a                    19.272738
_cell_length_b                    13.006663
_cell_length_c                    11.814788
_cell_angle_alpha                 98.762257
_cell_angle_beta                  92.071814
_cell_angle_gamma                 92.474114
_cell_volume                      2921.62670785

loop_
_atom_site_label
_atom_site_type_symbol
_atom_type_description
_atom_site_fract_x
_atom_site_fract_y
_atom_site_fract_z
_atom_type_partial_charge
C1    C     C_R   0.499652 0.300099 0.479541 0.803451
C2    C     C_R   0.463729 0.863117 0.454835 0.110099
C3    C     C_R   0.520866 0.029281 0.547259 0.053531
C4    C     C_R   0.478716 0.970803 0.454113 0.053552
C5    C     C_R   0.476585 0.365916 0.030481 0.053856
C6    C     C_R   0.523567 0.634103 0.969532 0.054851
C7    C     C_R   0.464620 0.388272 0.148004 0.035729
C8    C     C_R   0.535442 0.611714 0.851973 0.035860
C9    C     C_R   0.515464 0.558494 0.154061 0.311449
C10   C     C_R   0.484601 0.441497 0.845973 0.313020
C11   C     C_R   0.509084 0.549596 0.031642 -0.048959
C12   C     C_R   0.500521 0.699885 0.520496 0.799490
C13   C     C_R   0.491004 0.450437 0.968387 -0.050011
C14   C     C_R   0.367949 0.500247 0.501826 0.813807
C15   C     C_R   0.632161 0.500012 0.498090 0.819028
C16   C     C_R   0.258845 0.582877 0.567619 0.098824
C17   C     C_R   0.740747 0.419402 0.426082 0.098202
C18   C     C_R   0.185386 0.580061 0.570219 0.133695
C19   C     C_R   0.814299 0.416276 0.431251 0.139125
C20   C     C_R   0.146161 0.493915 0.507692 -0.068802
C21   C     C_R   0.854014 0.497161 0.502305 -0.080290
C22   C     C_R   0.179032 0.408907 0.445869 0.133069
C23   C     C_R   0.502053 0.812700 0.531515 -0.099598
C24   C     C_R   0.821811 0.580931 0.567762 0.135710
C25   C     C_R   0.252509 0.409319 0.448155 0.107109
C26   C     C_R   0.748566 0.584677 0.561072 0.112781
C27   C     C_R   0.291893 0.497606 0.506046 -0.098822
C28   C     C_R   0.708470 0.501997 0.493932 -0.115173
C29   C     C_R   0.930143 0.496620 0.504343 0.426526
C30   C     C_R   0.070011 0.493368 0.505962 0.435086
C31   C     C_3   0.301017 0.678029 0.629281 -0.847775
C32   C     C_3   0.695243 0.336242 0.349257 -0.820883
C33   C     C_3   0.482855 0.252016 0.980121 -0.434976
C34   C     C_R   0.498122 0.187246 0.468865 -0.101337
C35   C     C_3   0.531312 0.195062 0.052725 -0.835252
C36   C     C_3   0.517630 0.748077 0.019943 -0.434867
C37   C     C_3   0.469155 0.805287 0.947664 -0.832744
C38   C     C_3   0.148266 0.670378 0.636628 -0.381224
C39   C     C_3   0.126399 0.748397 0.559251 -0.821457
C40   C     C_3   0.850921 0.326227 0.363408 -0.375347
C41   C     C_3   0.856004 0.339429 0.237566 -0.801910
C42   C     C_3   0.135258 0.317111 0.379172 -0.384122
C43   C     C_3   0.112181 0.239506 0.456943 -0.825613
C44   C     C_3   0.866094 0.667085 0.643312 -0.383991
C45   C     C_R   0.453587 0.022473 0.363876 0.202231
C46   C     C_3   0.894484 0.748542 0.574169 -0.820346
C47   C     C_3   0.288408 0.314150 0.391048 -0.855798
C48   C     C_3   0.713684 0.679148 0.622131 -0.853936
C49   C     C_3   0.400174 0.805683 0.391046 -0.817098
C50   C     C_3   0.598720 0.194787 0.612220 -0.815831
C51   C     C_3   0.428356 0.967867 0.246598 -0.877033
C52   C     C_3   0.570974 0.031409 0.754921 -0.878252
C53   C     C_3   0.433748 0.358403 0.782657 -0.789835
C54   C     C_3   0.566395 0.641456 0.217402 -0.794384
C55   C     C_R   0.546183 0.977334 0.637206 0.202982
C56   C     C_R   0.458919 0.130157 0.377902 -0.264785
C57   C     C_R   0.541386 0.869611 0.622407 -0.264232
C58   C     C_R   0.535860 0.137010 0.546559 0.110025
Cu1   Cu    Cu3+1 0.505120 0.507730 0.615930 0.924999
Cu2   Cu    Cu3+1 0.494880 0.492270 0.384070 0.922778
H1    H     H_    0.566550 0.829576 0.685558 0.158150
H2    H     H_    0.722620 0.269459 0.306406 0.227128
H3    H     H_    0.582394 0.238702 0.069886 0.260991
H4    H     H_    0.508324 0.184854 0.135226 0.246637
H5    H     H_    0.539919 0.116259 0.005911 0.243419
H6    H     H_    0.430655 0.211201 0.970324 0.203779
H7    H     H_    0.506625 0.245648 0.896109 0.218856
H8    H     H_    0.491904 0.815171 0.864892 0.246469
H9    H     H_    0.417918 0.762024 0.931047 0.262086
H10   H     H_    0.460929 0.884228 0.994487 0.242655
H11   H     H_    0.494071 0.754677 0.104127 0.219341
H12   H     H_    0.434062 0.170006 0.314294 0.158652
H13   H     H_    0.569920 0.788611 0.029370 0.203171
H14   H     H_    0.172093 0.779181 0.518144 0.248906
H15   H     H_    0.088026 0.711584 0.491405 0.267596
H16   H     H_    0.101994 0.814566 0.611148 0.237353
H17   H     H_    0.101826 0.641664 0.677385 0.211503
H18   H     H_    0.180983 0.712112 0.709784 0.206002
H19   H     H_    0.803888 0.344029 0.196217 0.252270
H20   H     H_    0.887368 0.411584 0.230409 0.268165
H21   H     H_    0.881776 0.271993 0.190644 0.234181
H22   H     H_    0.904316 0.318825 0.398433 0.204799
H23   H     H_    0.554502 0.673021 0.807447 0.145157
H24   H     H_    0.824855 0.250233 0.371663 0.191860
H25   H     H_    0.157814 0.210479 0.500143 0.249635
H26   H     H_    0.077798 0.276063 0.523156 0.267920
H27   H     H_    0.082871 0.172151 0.404890 0.237601
H28   H     H_    0.088807 0.344309 0.336472 0.211187
H29   H     H_    0.163636 0.275512 0.307492 0.207133
H30   H     H_    0.930502 0.713734 0.509616 0.267081
H31   H     H_    0.851462 0.782541 0.529572 0.249159
H32   H     H_    0.923562 0.812064 0.632703 0.236953
H33   H     H_    0.836594 0.706684 0.714754 0.205644
H34   H     H_    0.445602 0.326921 0.192502 0.145689
H35   H     H_    0.909919 0.634328 0.687085 0.212590
H36   H     H_    0.264656 0.242063 0.415646 0.234058
H37   H     H_    0.284030 0.309782 0.296478 0.226681
H38   H     H_    0.344129 0.313412 0.416896 0.221194
H39   H     H_    0.740688 0.752150 0.605914 0.233138
H40   H     H_    0.659183 0.684998 0.591708 0.221325
H41   H     H_    0.714452 0.676936 0.715723 0.226689
H42   H     H_    0.380823 0.740351 0.433429 0.223657
H43   H     H_    0.356033 0.857748 0.392744 0.225944
H44   H     H_    0.412057 0.772490 0.302198 0.239744
H45   H     H_    0.356750 0.679574 0.610711 0.232816
H46   H     H_    0.617833 0.261565 0.572058 0.218978
H47   H     H_    0.586193 0.226212 0.701263 0.238390
H48   H     H_    0.643293 0.143485 0.609961 0.226563
H49   H     H_    0.433504 0.020095 0.180827 0.223188
H50   H     H_    0.461197 0.901773 0.219028 0.235319
H51   H     H_    0.372669 0.942656 0.245378 0.237297
H52   H     H_    0.566442 0.978417 0.820031 0.223266
H53   H     H_    0.626435 0.057926 0.756612 0.237566
H54   H     H_    0.537362 0.096402 0.783089 0.235310
H55   H     H_    0.401148 0.387997 0.718421 0.264856
H56   H     H_    0.281299 0.750075 0.603055 0.232327
H57   H     H_    0.460356 0.289511 0.741955 0.223558
H58   H     H_    0.395166 0.332213 0.840959 0.186711
H59   H     H_    0.599056 0.611709 0.281433 0.263467
H60   H     H_    0.604950 0.667692 0.159087 0.186707
H61   H     H_    0.539849 0.710341 0.258294 0.224879
H62   H     H_    0.297546 0.681652 0.723367 0.230338
H63   H     H_    0.654975 0.303046 0.399679 0.214688
H64   H     H_    0.669476 0.371505 0.279976 0.247883
N1    N     N_R   0.034138 0.520388 0.415075 -0.256432
N2    N     N_R   0.965934 0.468297 0.594642 -0.259157
N3    N     N_R   0.965201 0.521811 0.414207 -0.242933
N4    N     N_R   0.034917 0.467065 0.595619 -0.255000
N5    N     N_R   0.512830 0.519350 0.790130 -0.191895
N6    N     N_R   0.487170 0.480650 0.209870 -0.192949
O1    O     O_R   0.503640 0.354460 0.582000 -0.572215
O2    O     O_R   0.496360 0.645540 0.418000 -0.570961
O3    O     O_R   0.494980 0.341410 0.386200 -0.601593
O4    O     O_R   0.505020 0.658590 0.613800 -0.604250
O5    O     O_R   0.404470 0.506520 0.597930 -0.584529
O6    O     O_R   0.595530 0.493480 0.402070 -0.587927
O7    O     O_R   0.395820 0.493460 0.402130 -0.565932
O8    O     O_R   0.604180 0.506540 0.597870 -0.566670

loop_
_geom_bond_atom_site_label_1
_geom_bond_atom_site_label_2
_ccdc_geom_bond_type
C34   C56   A    
C54   H60   S    
C8    H23   S    
C40   H24   S    
C52   H52   S    
Cu2   O2    S    
C41   H20   S    
C20   C30   S    
C9    N6    A    
C16   C31   S    
C12   C23   S    
Cu1   O1    S    
C47   H38   S    
C36   C37   S    
C19   C21   A    
C24   C26   A    
C54   H59   S    
C37   H9    S    
C38   C39   S    
C53   H57   S    
C46   H32   S    
C14   O5    A    
C35   H5    S    
C37   H8    S    
C39   H14   S    
C48   H39   S    
C10   C53   S    
C32   H64   S    
C7    N6    A    
C44   H33   S    
C17   C19   A    
C3    C55   A    
C45   C56   A    
C56   H12   S    
C22   C25   A    
C5    C33   S    
C1    C34   S    
N2    N4    A    
C47   H36   S    
C35   H4    S    
C39   H15   S    
C14   C27   S    
Cu2   O6    S    
C5    C13   A    
C52   C55   S    
C26   C48   S    
Cu2   O7    S    
C15   O8    A    
C16   C27   A    
C30   N1    A    
Cu1   Cu2   S    
C51   H49   S    
C12   O4    A    
C37   H10   S    
C50   H48   S    
C31   H45   S    
C32   H63   S    
C49   H44   S    
C1    O3    A    
C44   C46   S    
C33   H6    S    
C4    C45   A    
C48   H40   S    
C30   N4    A    
C43   H25   S    
C40   H22   S    
C19   C40   S    
Cu2   N6    S    
C6    C11   A    
C5    C7    A    
C53   H58   S    
C6    C8    A    
C46   H31   S    
C38   H18   S    
Cu1   O8    S    
C52   H53   S    
C21   C29   S    
C50   C58   S    
C2    C4    A    
C15   O6    A    
C41   H19   S    
C2    C49   S    
C14   O7    A    
C41   H21   S    
C39   H16   S    
N1    N3    A    
C9    C11   A    
C40   C41   S    
C54   H61   S    
C20   C22   A    
C51   H50   S    
C29   N3    A    
C50   H47   S    
C24   C44   S    
C42   H28   S    
C42   C43   S    
C3    C4    A    
C31   H56   S    
C49   H42   S    
C33   H7    S    
C34   C58   A    
C23   C57   A    
C7    H34   S    
C25   C47   S    
Cu1   N5    S    
C51   H51   S    
C12   O2    A    
C17   C28   A    
C31   H62   S    
C1    O1    A    
C10   C13   A    
C49   H43   S    
C36   H11   S    
C57   H1    S    
C46   H30   S    
C38   H17   S    
C52   H54   S    
C25   C27   A    
Cu1   O4    S    
C26   C28   A    
C47   H37   S    
C42   H29   S    
C43   H27   S    
C55   C57   A    
C18   C38   S    
C10   N5    A    
C32   H2    S    
C44   H35   S    
C11   C13   A    
C15   C28   S    
C22   C42   S    
C48   H41   S    
C8    N5    A    
Cu1   O5    S    
C33   C35   S    
C6    C36   S    
C18   C20   A    
C43   H26   S    
C36   H13   S    
C3    C58   A    
C16   C18   A    
C21   C24   A    
C2    C23   A    
C50   H46   S    
C17   C32   S    
C45   C51   S    
C35   H3    S    
C9    C54   S    
C29   N2    A    
Cu2   O3    S    
C53   H55   S    
