data_mof_unit_6228.cif
_audit_creation_date              2012-12-10T17:03:40-0500
_audit_creation_method            fapswitch 2.2
_symmetry_space_group_name_H-M    P1
_symmetry_Int_Tables_number       1
_space_group_crystal_system       triclinic
_cell_length_a                    10.014854
_cell_length_b                    10.580403
_cell_length_c                    13.060736
_cell_angle_alpha                 90.731382
_cell_angle_beta                  69.708146
_cell_angle_gamma                 92.106124
_cell_volume                      1297.16509316

loop_
_atom_site_label
_atom_site_type_symbol
_atom_type_description
_atom_site_fract_x
_atom_site_fract_y
_atom_site_fract_z
_atom_type_partial_charge
C1    C     C_R   0.502039 0.738394 0.502194 0.928359
C2    C     C_R   0.418898 0.483760 0.991330 0.035271
C3    C     C_R   0.443382 0.443921 0.882504 0.063825
C4    C     C_R   0.527174 0.457426 0.034949 0.081502
C5    C     C_R   0.631831 0.367212 0.983553 0.180556
C6    C     C_R   0.635701 0.311787 0.885570 -0.256367
C7    C     C_R   0.545092 0.351957 0.834150 -0.199308
C8    C     C_R   0.540929 0.522857 0.124086 -0.277560
C9    C     C_R   0.726196 0.386557 0.130551 -0.199475
C10   C     C_R   0.365935 0.497305 0.823504 -0.119753
C11   C     C_2   0.573122 0.072479 0.565219 -0.239203
C12   C     C_R   0.420309 0.496942 0.704605 0.832540
C13   C     C_2   0.462149 0.136969 0.560839 -0.095607
C14   C     C_2   0.565776 0.935866 0.573569 0.118265
C15   C     C_2   0.509848 0.872784 0.506629 -0.394566
C16   C     C_2   0.095923 0.417712 0.446805 -0.132999
C17   C     C_2   0.947699 0.421304 0.442852 -0.150856
C18   C     C_R   0.490657 0.263236 0.514719 0.902783
C19   C     C_R   0.579270 0.500090 0.295370 0.876674
C20   C     C_R   0.732093 0.334166 0.030830 -0.201317
C21   C     C_R   0.626592 0.478294 0.178645 -0.063462
C22   C     C_R   0.244641 0.564997 0.877360 -0.237031
C23   C     C_R   0.203274 0.584576 0.988616 -0.171387
C24   C     C_R   0.288339 0.547153 0.047873 0.105728
H1    H     H_    0.793176 0.350758 0.172558 0.146112
H2    H     H_    0.468236 0.922690 0.452465 0.137272
H3    H     H_    0.163512 0.343561 0.401147 0.158847
H4    H     H_    0.087249 0.571826 0.539237 0.165202
H5    H     H_    0.919141 0.353555 0.390242 0.155270
H6    H     H_    0.876512 0.559584 0.552128 0.170166
H7    H     H_    0.712952 0.241282 0.846253 0.148470
H8    H     H_    0.810083 0.263664 0.993422 0.131603
H9    H     H_    0.480475 0.605017 0.156643 0.159490
H10   H     H_    0.182005 0.604026 0.833118 0.166179
H11   H     H_    0.104274 0.631578 0.028747 0.145659
H12   H     H_    0.553913 0.308934 0.756506 0.161151
H13   H     H_    0.678481 0.117078 0.545484 0.161382
N1    N     N_2   0.148270 0.498670 0.498870 -0.195339
N2    N     N_2   0.852610 0.498640 0.498840 -0.191183
O1    O     O_R   0.386950 0.680940 0.500020 -0.622764
O2    O     O_R   0.613110 0.680900 0.499980 -0.599378
O3    O     O_R   0.330780 0.500000 0.653640 -0.618332
O4    O     O_R   0.556930 0.499960 0.653610 -0.604929
O5    O     O_R   0.386890 0.319100 0.500020 -0.610387
O6    O     O_R   0.613050 0.319060 0.499980 -0.622071
O7    O     O_R   0.443070 0.500040 0.346390 -0.607377
O8    O     O_R   0.669220 0.500000 0.346360 -0.604797
Zn1   Zn    Zn3+2 0.349000 0.500030 0.500020 0.907475
Zn2   Zn    Zn3+2 0.651000 0.499970 0.499980 0.919559
C25   C     C_3   0.307301 0.086890 0.608487 -0.400791
C26   C     C_3   0.220843 0.163671 0.708737 -0.327628
C27   C     C_3   0.068032 0.110629 0.757573 -0.906215
H14   H     H_    0.014031 0.113436 0.696343 0.265197
H15   H     H_    0.066979 0.011492 0.784922 0.261910
H16   H     H_    0.008000 0.168526 0.829096 0.245637
H17   H     H_    0.272153 0.161006 0.771743 0.215193
H18   H     H_    0.216808 0.263828 0.686415 0.252742
H19   H     H_    0.257736 0.090469 0.544502 0.201927
H20   H     H_    0.299065 0.987279 0.635854 0.223026
C28   C     C_3   0.621278 0.875695 0.655176 -0.345279
C29   C     C_3   0.784294 0.869599 0.610167 -0.325626
C30   C     C_3   0.839708 0.808844 0.692308 -0.917842
H21   H     H_    0.811873 0.866196 0.768201 0.265553
H22   H     H_    0.793076 0.711552 0.712662 0.268715
H23   H     H_    0.957456 0.803624 0.656794 0.246294
H24   H     H_    0.818891 0.813774 0.533353 0.238447
H25   H     H_    0.832770 0.966584 0.591669 0.205331
H26   H     H_    0.588715 0.933563 0.731006 0.186117
H27   H     H_    0.571875 0.780085 0.679870 0.205760
C31   C     C_3   0.222385 0.565607 0.170575 -0.434738
C32   C     C_3   0.218979 0.707436 0.199937 -0.349647
C33   C     C_3   0.174208 0.728666 0.322589 -0.865902
H28   H     H_    0.067285 0.684254 0.364848 0.262098
H29   H     H_    0.253357 0.688573 0.353795 0.296260
H30   H     H_    0.169293 0.831669 0.340237 0.234545
H31   H     H_    0.325020 0.754560 0.159627 0.215305
H32   H     H_    0.142043 0.754654 0.170225 0.217042
H33   H     H_    0.110773 0.526773 0.198161 0.198607
H34   H     H_    0.273182 0.509484 0.216914 0.224071

loop_
_geom_bond_atom_site_label_1
_geom_bond_atom_site_label_2
_ccdc_geom_bond_type
C31   H33   S    
C17   H5    S    
C7    H12   S    
C4    C8    A    
C19   O7    A    
C24   C31   S    
O8    Zn2   S    
C5    C20   A    
C10   C22   A    
C13   C18   S    
C25   H20   S    
C19   C21   S    
C12   O4    A    
C3    C7    A    
C5    C6    A    
C11   C14   S    
C19   O8    A    
C26   H17   S    
C17   N2    D    
C11   H13   S    
C12   O3    A    
C1    O1    A    
C29   H24   S    
C16   C17   S    
C30   H22   S    
C23   C24   A    
C31   C32   S    
C1    C15   S    
H4    N1    S    
N1    Zn1   S    
C27   H16   S    
C16   H3    S    
C6    H7    S    
C33   H30   S    
O2    Zn2   S    
C27   H15   S    
C25   C26   S    
C22   H10   S    
O7    Zn1   S    
C9    H1    S    
C26   C27   S    
C25   H19   S    
C33   H29   S    
C33   H28   S    
C15   H2    S    
C28   C29   S    
C2    C4    A    
C30   H21   S    
C18   O5    A    
C29   H25   S    
C9    C20   A    
O6    Zn2   S    
C8    C21   A    
O3    Zn1   S    
C10   C12   S    
C26   H18   S    
C1    O2    A    
N2    Zn2   S    
C23   H11   S    
C2    C24   A    
C18   O6    A    
C32   H32   S    
C27   H14   S    
C20   H8    S    
O1    Zn1   S    
C30   H23   S    
C31   H34   S    
C14   C15   D    
O4    Zn2   S    
C4    C5    A    
C6    C7    A    
C14   C28   S    
C2    C3    A    
C32   C33   S    
C3    C10   A    
C11   C13   D    
C9    C21   A    
C32   H31   S    
C28   H27   S    
H6    N2    S    
C8    H9    S    
C29   C30   S    
C13   C25   S    
C28   H26   S    
C22   C23   A    
O5    Zn1   S    
C16   N1    D    
