data_mof_unit_8177.cif
_audit_creation_date              2012-12-10T19:33:11-0500
_audit_creation_method            fapswitch 2.2
_symmetry_space_group_name_H-M    P1
_symmetry_Int_Tables_number       1
_space_group_crystal_system       triclinic
_cell_length_a                    27.688943
_cell_length_b                    15.725549
_cell_length_c                    14.910556
_cell_angle_alpha                 90.636103
_cell_angle_beta                  89.798614
_cell_angle_gamma                 90.990924
_cell_volume                      6491.00453927

loop_
_atom_site_label
_atom_site_type_symbol
_atom_type_description
_atom_site_fract_x
_atom_site_fract_y
_atom_site_fract_z
_atom_type_partial_charge
C1    C     C_R   0.500290 0.337425 0.499369 0.923579
C2    C     C_R   0.500676 0.662606 0.500402 0.920204
C3    C     C_R   0.102024 0.497398 0.454295 -0.077925
C4    C     C_R   0.899391 0.497482 0.475572 -0.082145
C5    C     C_R   0.126442 0.426725 0.489198 -0.060792
C6    C     C_R   0.876307 0.576119 0.492598 -0.058368
C7    C     C_R   0.099899 0.352842 0.514314 0.007197
C8    C     C_R   0.904795 0.651849 0.500326 0.000902
C9    C     C_R   0.128341 0.568862 0.422203 -0.074603
C10   C     C_R   0.872171 0.420415 0.469578 -0.078022
C11   C     C_R   0.353404 0.499670 0.500129 -0.131797
C12   C     C_R   0.647344 0.500674 0.498744 -0.137649
C13   C     C_R   0.974277 0.418461 0.460951 -0.019017
C14   C     C_R   0.026285 0.571742 0.434627 -0.019551
C15   C     C_R   0.976582 0.573502 0.457793 0.043972
C16   C     C_R   0.025044 0.421209 0.472944 0.042468
C17   C     C_R   0.949962 0.496330 0.464308 0.059115
C18   C     C_R   0.051183 0.496637 0.452894 0.058495
C19   C     C_R   0.947358 0.341743 0.446706 -0.074959
C20   C     C_R   0.051878 0.641930 0.396581 -0.073858
C21   C     C_R   0.896369 0.342423 0.452675 -0.051575
C22   C     C_R   0.102949 0.640677 0.390908 -0.051328
C23   C     C_R   0.405979 0.501250 0.500284 0.884902
C24   C     C_R   0.594292 0.500009 0.499752 0.855266
C25   C     C_R   0.049811 0.352436 0.508576 -0.245786
C26   C     C_R   0.954055 0.649248 0.482345 -0.248917
C27   C     C_3   0.546993 0.976029 0.563331 0.016919
C28   C     C_3   0.484155 0.023776 0.438749 0.020195
C29   C     C_3   0.559673 0.033619 0.482238 -0.280780
C30   C     C_3   0.471347 0.967509 0.519885 -0.279162
C31   C     C_1   0.504747 0.249018 0.497703 -0.197162
C32   C     C_1   0.506851 0.751052 0.501018 -0.192560
C33   C     C_3   0.501085 0.027758 0.582171 0.012704
C34   C     C_3   0.529905 0.972326 0.420683 0.021702
C35   C     C_3   0.513227 0.083828 0.500856 0.098996
C36   C     C_3   0.517386 0.916553 0.501340 0.103623
C37   C     C_1   0.509107 0.174239 0.497969 -0.100380
C38   C     C_1   0.512712 0.825822 0.501071 -0.092871
C39   C     C_3   0.509251 0.422291 0.968165 -0.214088
C40   C     C_3   0.491791 0.580116 0.032073 -0.220216
C41   C     C_3   0.543651 0.475616 0.030139 -0.208919
C42   C     C_3   0.457371 0.526803 0.970085 -0.204376
C43   C     C_3   0.466128 0.447955 0.028530 0.084180
C44   C     C_3   0.534882 0.554513 0.971596 0.084976
C45   C     C_R   0.176342 0.434827 0.502707 0.491872
C46   C     C_R   0.825699 0.575754 0.500559 0.492459
C47   C     C_3   0.500207 0.500599 0.089659 0.069668
C48   C     C_3   0.500851 0.501703 0.910469 0.071803
C49   C     C_1   0.500171 0.500225 0.189768 0.046532
C50   C     C_1   0.500412 0.500890 0.810272 0.044579
C51   C     C_R   0.179303 0.563964 0.420553 0.504177
C52   C     C_R   0.821395 0.425327 0.476621 0.504775
C53   C     C_R   0.277500 0.573756 0.507044 -0.140583
C54   C     C_R   0.723607 0.460610 0.564745 -0.159945
C55   C     C_R   0.327433 0.574159 0.519948 -0.058748
C56   C     C_R   0.673223 0.456322 0.565142 -0.049029
C57   C     C_R   0.328866 0.425176 0.470840 -0.044362
C58   C     C_R   0.672974 0.545039 0.430529 -0.055100
C59   C     C_R   0.279708 0.428623 0.451944 -0.148893
C60   C     C_R   0.723208 0.544873 0.429909 -0.150836
C61   C     C_R   0.253629 0.501761 0.471928 0.269474
C62   C     C_R   0.748407 0.503788 0.497010 0.291914
H1    H     H_    0.517333 0.357909 0.941465 0.124950
H2    H     H_    0.483957 0.644430 0.059205 0.122938
H3    H     H_    0.260683 0.372144 0.427719 0.150843
H4    H     H_    0.743064 0.576986 0.376999 0.147627
H5    H     H_    0.030304 0.298111 0.534693 0.156455
H6    H     H_    0.975297 0.706565 0.493715 0.157671
N1    N     N_R   0.201924 0.500036 0.464333 -0.339991
N2    N     N_R   0.799952 0.501453 0.492766 -0.343109
N3    N     N_1   0.500020 0.500000 0.268010 -0.085476
N4    N     N_1   0.499980 0.500000 0.731990 -0.090482
O1    O     O_R   0.500000 0.376780 0.574460 -0.616200
O2    O     O_R   0.500000 0.623220 0.425540 -0.613409
O3    O     O_R   0.500010 0.376780 0.425520 -0.607384
O4    O     O_R   0.499990 0.623220 0.574480 -0.607190
O5    O     O_R   0.428750 0.500010 0.574460 -0.634713
O6    O     O_R   0.571250 0.499990 0.425540 -0.603464
O7    O     O_R   0.428760 0.500020 0.425520 -0.603813
O8    O     O_R   0.571240 0.499980 0.574480 -0.601553
O9    O     O_2   0.199093 0.380028 0.556554 -0.560213
O10   O     O_2   0.801779 0.648781 0.514209 -0.567471
O11   O     O_2   0.792990 0.355527 0.465457 -0.564464
O12   O     O_2   0.206322 0.621395 0.375267 -0.572647
Zn1   Zn    Zn3+2 0.499990 0.500000 0.599450 0.974427
Zn2   Zn    Zn3+2 0.500010 0.500000 0.400550 0.988264
C63   C     C_R   0.351351 0.340416 0.473433 0.125271
C64   C     C_R   0.372581 0.313008 0.553439 -0.130989
C65   C     C_R   0.386451 0.228630 0.562403 -0.151760
C66   C     C_R   0.379231 0.170840 0.491907 -0.094551
C67   C     C_R   0.358705 0.197730 0.411789 -0.121950
C68   C     C_R   0.344945 0.282120 0.402282 -0.154155
H7    H     H_    0.376307 0.355808 0.610470 0.141237
H8    H     H_    0.401566 0.207593 0.624911 0.144915
H9    H     H_    0.388842 0.105056 0.500170 0.134019
H10   H     H_    0.352071 0.152897 0.357809 0.153573
H11   H     H_    0.327759 0.301212 0.340778 0.116369
C69   C     C_R   0.648550 0.591463 0.358273 0.151870
C70   C     C_R   0.621178 0.663556 0.378410 -0.116481
C71   C     C_R   0.596287 0.704474 0.310416 -0.103218
C72   C     C_R   0.598772 0.674158 0.222016 -0.099533
C73   C     C_R   0.626643 0.603371 0.201288 -0.147133
C74   C     C_R   0.651586 0.562136 0.269107 -0.149573
H12   H     H_    0.618552 0.687104 0.446785 0.104386
H13   H     H_    0.574820 0.759198 0.326691 0.151883
H14   H     H_    0.579092 0.705214 0.169518 0.130929
H15   H     H_    0.628651 0.580163 0.132787 0.136633
H16   H     H_    0.672550 0.506578 0.252523 0.127363
C75   C     C_R   0.584797 0.954243 0.631614 0.109919
C76   C     C_R   0.601748 0.017538 0.691432 -0.132737
C77   C     C_R   0.637413 0.999448 0.754116 -0.136586
C78   C     C_R   0.656977 0.918290 0.756865 -0.126135
C79   C     C_R   0.640914 0.855193 0.696813 -0.117407
C80   C     C_R   0.605061 0.872970 0.634299 -0.145238
H17   H     H_    0.587305 0.080901 0.689719 0.126453
H18   H     H_    0.650053 0.048527 0.800237 0.127351
H19   H     H_    0.684827 0.904568 0.805059 0.114224
H20   H     H_    0.656504 0.792584 0.698140 0.138999
H21   H     H_    0.594202 0.823517 0.587484 0.133270
C81   C     C_R   0.451327 0.045667 0.362357 0.117012
C82   C     C_R   0.409179 0.996973 0.345979 -0.197642
C83   C     C_R   0.382130 0.009880 0.268512 -0.159300
C84   C     C_R   0.396745 0.071751 0.207158 -0.132035
C85   C     C_R   0.438534 0.120661 0.223049 -0.123643
C86   C     C_R   0.465966 0.107265 0.299962 -0.109858
H22   H     H_    0.397935 0.947331 0.391470 0.121317
H23   H     H_    0.349927 0.971689 0.255892 0.132114
H24   H     H_    0.375745 0.081372 0.147240 0.118151
H25   H     H_    0.450147 0.168011 0.175121 0.141367
H26   H     H_    0.499169 0.143482 0.309725 0.134262
C87   C     C_R   0.544064 0.940170 0.328856 0.107667
C88   C     C_R   0.587949 0.965722 0.289143 -0.159886
C89   C     C_R   0.599274 0.939249 0.201851 -0.126005
C90   C     C_R   0.566848 0.887581 0.153544 -0.127086
C91   C     C_R   0.523304 0.861271 0.192808 -0.158889
C92   C     C_R   0.512029 0.887020 0.280295 -0.135057
H27   H     H_    0.613263 0.006660 0.324878 0.124770
H28   H     H_    0.633067 0.959311 0.171390 0.126027
H29   H     H_    0.575550 0.867624 0.085878 0.117352
H30   H     H_    0.498388 0.820660 0.155574 0.123948
H31   H     H_    0.478207 0.865988 0.309959 0.140381
C93   C     C_R   0.484930 0.048852 0.676716 0.112796
C94   C     C_R   0.475112 0.981840 0.736021 -0.151036
C95   C     C_R   0.461326 0.998622 0.824662 -0.135169
C96   C     C_R   0.457526 0.082522 0.855228 -0.107138
C97   C     C_R   0.467718 0.149637 0.797225 -0.148308
C98   C     C_R   0.481487 0.133037 0.708517 -0.194287
H32   H     H_    0.478723 0.916457 0.713793 0.130711
H33   H     H_    0.453839 0.946538 0.869766 0.124490
H34   H     H_    0.446955 0.095540 0.923923 0.115558
H35   H     H_    0.465156 0.214681 0.821064 0.125604
H36   H     H_    0.489642 0.186353 0.666205 0.144730
H37   H     H_    0.579317 0.454882 0.054733 0.128642
H38   H     H_    0.421677 0.547380 0.945465 0.135920
C99   C     C_R   0.575291 0.611691 0.939502 0.104129
C100  C     C_R   0.575860 0.699338 0.958918 -0.169048
C101  C     C_R   0.614609 0.750704 0.930522 -0.123099
C102  C     C_R   0.652989 0.714944 0.883113 -0.110869
C103  C     C_R   0.652388 0.628063 0.862774 -0.134784
C104  C     C_R   0.613659 0.576615 0.890749 -0.160460
H39   H     H_    0.546668 0.728126 0.996076 0.108498
H40   H     H_    0.615026 0.818203 0.945449 0.122411
H41   H     H_    0.683218 0.754481 0.862094 0.112937
H42   H     H_    0.682081 0.600603 0.825786 0.123789
H43   H     H_    0.613680 0.509310 0.875304 0.129539
C105  C     C_R   0.425775 0.390667 0.060710 0.104086
C106  C     C_R   0.420947 0.306680 0.028539 -0.160875
C107  C     C_R   0.382628 0.254858 0.057684 -0.146823
C108  C     C_R   0.349336 0.285923 0.120079 -0.112448
C109  C     C_R   0.353850 0.369477 0.152237 -0.124665
C110  C     C_R   0.391720 0.421916 0.122238 -0.143563
H44   H     H_    0.446321 0.281248 0.980378 0.111435
H45   H     H_    0.378834 0.190536 0.031852 0.117624
H46   H     H_    0.319942 0.245415 0.143150 0.115566
H47   H     H_    0.327873 0.393806 0.200035 0.128386
H48   H     H_    0.394568 0.486778 0.147094 0.129173
C111  C     C_R   0.122739 0.271315 0.537232 0.204322
C112  C     C_R   0.113549 0.233024 0.620360 -0.141409
C113  C     C_R   0.133818 0.154607 0.640163 -0.135815
C114  C     C_R   0.163045 0.113703 0.577010 -0.109243
C115  C     C_R   0.171992 0.151052 0.493843 -0.136211
C116  C     C_R   0.151781 0.229407 0.473735 -0.087145
H49   H     H_    0.090803 0.263951 0.669664 0.120095
H50   H     H_    0.126769 0.125434 0.704402 0.125807
H51   H     H_    0.178632 0.052950 0.592404 0.119683
H52   H     H_    0.194433 0.119127 0.444829 0.118937
H53   H     H_    0.158582 0.257359 0.408730 0.105234
C117  C     C_R   0.885757 0.735265 0.529017 0.192320
C118  C     C_R   0.870973 0.748689 0.618178 -0.085246
C119  C     C_R   0.854748 0.828545 0.645818 -0.137555
C120  C     C_R   0.853790 0.895565 0.585055 -0.108640
C121  C     C_R   0.869061 0.882887 0.496522 -0.147822
C122  C     C_R   0.885085 0.803038 0.468503 -0.137645
H54   H     H_    0.872034 0.697378 0.665957 0.114584
H55   H     H_    0.843142 0.838599 0.714452 0.120459
H56   H     H_    0.841417 0.957355 0.606747 0.116640
H57   H     H_    0.868647 0.934949 0.449694 0.132806
H58   H     H_    0.896983 0.793902 0.399871 0.143632
C123  C     C_R   0.649280 0.398556 0.630346 0.155598
C124  C     C_R   0.620116 0.330192 0.599868 -0.094059
C125  C     C_R   0.598593 0.274429 0.661062 -0.125591
C126  C     C_R   0.606182 0.285870 0.752957 -0.123075
C127  C     C_R   0.635792 0.352742 0.783800 -0.153771
C128  C     C_R   0.657434 0.408795 0.722821 -0.154733
H59   H     H_    0.614291 0.319834 0.528757 0.104197
H60   H     H_    0.576268 0.222059 0.637131 0.124345
H61   H     H_    0.589443 0.242518 0.800142 0.123317
H62   H     H_    0.642114 0.360922 0.854986 0.120709
H63   H     H_    0.680477 0.460099 0.747546 0.114218
C129  C     C_R   0.350722 0.652550 0.556419 0.091954
C130  C     C_R   0.345796 0.729912 0.511444 -0.154592
C131  C     C_R   0.363914 0.805434 0.549506 -0.150681
C132  C     C_R   0.387326 0.804265 0.632343 -0.118042
C133  C     C_R   0.392692 0.727562 0.677264 -0.131083
C134  C     C_R   0.373988 0.652024 0.640033 -0.107525
H64   H     H_    0.327218 0.731857 0.447699 0.148617
H65   H     H_    0.359104 0.864981 0.515337 0.116334
H66   H     H_    0.400621 0.862931 0.662382 0.123497
H67   H     H_    0.410453 0.726897 0.741800 0.125398
H68   H     H_    0.376499 0.593710 0.677514 0.142143
H69   H     H_    0.743914 0.426812 0.614695 0.143350
H70   H     H_    0.256907 0.629268 0.525693 0.154951
C135  C     C_R   0.869342 0.260880 0.439405 0.208755
C136  C     C_R   0.853329 0.214099 0.513850 -0.105058
C137  C     C_R   0.828270 0.136980 0.501305 -0.131460
C138  C     C_R   0.819381 0.105892 0.414625 -0.118827
C139  C     C_R   0.835478 0.151962 0.340299 -0.136218
C140  C     C_R   0.860346 0.229355 0.352493 -0.098069
H71   H     H_    0.860191 0.237587 0.581242 0.111048
H72   H     H_    0.815680 0.101425 0.558772 0.120115
H73   H     H_    0.800016 0.046120 0.405064 0.126183
H74   H     H_    0.828642 0.127726 0.273239 0.123043
H75   H     H_    0.872729 0.264587 0.294548 0.113807
C141  C     C_R   0.128928 0.716652 0.355512 0.208120
C142  C     C_R   0.150467 0.775888 0.414906 -0.119703
C143  C     C_R   0.173951 0.848476 0.381759 -0.137681
C144  C     C_R   0.176023 0.862317 0.289364 -0.114877
C145  C     C_R   0.154636 0.803573 0.229954 -0.132384
C146  C     C_R   0.131125 0.730867 0.262796 -0.088661
H76   H     H_    0.148823 0.765857 0.486606 0.111476
H77   H     H_    0.190440 0.894088 0.427678 0.119968
H78   H     H_    0.194160 0.918598 0.263813 0.116611
H79   H     H_    0.156205 0.814468 0.158455 0.123979
H80   H     H_    0.114465 0.685906 0.216319 0.115670
C147  C     C_R   0.971586 0.264286 0.410708 0.121361
C148  C     C_R   0.970846 0.187685 0.458678 -0.166820
C149  C     C_R   0.995027 0.116693 0.425289 -0.130581
C150  C     C_R   0.020097 0.121454 0.343949 -0.116255
C151  C     C_R   0.020889 0.197119 0.295713 -0.145016
C152  C     C_R   0.996733 0.268264 0.328782 -0.138374
H81   H     H_    0.952697 0.183719 0.522924 0.121008
H82   H     H_    0.994677 0.058238 0.462929 0.123236
H83   H     H_    0.039090 0.066679 0.318387 0.120433
H84   H     H_    0.040381 0.200742 0.232794 0.124790
H85   H     H_    0.997830 0.326657 0.290925 0.124231
C153  C     C_R   0.025363 0.711001 0.351049 0.122354
C154  C     C_R   0.029070 0.795787 0.381741 -0.166792
C155  C     C_R   0.003439 0.859525 0.339232 -0.135160
C156  C     C_R   0.974116 0.839434 0.265689 -0.130214
C157  C     C_R   0.970192 0.755390 0.234770 -0.151096
C158  C     C_R   0.995653 0.691325 0.277234 -0.136677
H86   H     H_    0.050932 0.812070 0.439670 0.123510
H87   H     H_    0.006037 0.924367 0.363761 0.123007
H88   H     H_    0.954219 0.888906 0.233009 0.125057
H89   H     H_    0.947322 0.739840 0.177998 0.128169
H90   H     H_    0.992242 0.626402 0.252755 0.124862
H91   H     H_    0.595731 0.062727 0.468742 0.145887
H92   H     H_    0.435070 0.941390 0.536126 0.136407

loop_
_geom_bond_atom_site_label_1
_geom_bond_atom_site_label_2
_ccdc_geom_bond_type
C19   C21   A    
C40   C47   S    
C26   H6    S    
C63   C64   A    
C158  H90   S    
C124  H59   S    
C16   C25   A    
C152  H85   S    
C75   C76   A    
C27   C29   S    
C8    C26   A    
C108  C109  A    
C14   C18   A    
C155  H87   S    
C9    C51   A    
N4    Zn1   S    
C127  C128  A    
C10   C52   A    
C136  C137  A    
C112  C113  A    
C66   C67   A    
C106  H44   S    
C11   C55   A    
C66   H9    S    
C39   C41   S    
C132  C133  A    
C8    C117  S    
C138  H73   S    
C102  H41   S    
C7    C111  S    
C71   H13   S    
C101  C102  A    
C144  H78   S    
C84   C85   A    
C2    C32   S    
C100  C101  A    
C35   C37   S    
C79   C80   A    
C98   H36   S    
C133  H67   S    
C103  C104  A    
C78   H19   S    
C9    C22   A    
C57   C59   A    
C131  H65   S    
C58   C60   A    
C69   C74   A    
C58   C69   S    
C1    C31   S    
C143  C144  A    
C62   N2    S    
C3    C18   A    
C60   C62   A    
C154  C155  A    
C142  H76   S    
C11   C23   S    
C83   H23   S    
C139  C140  A    
C50   N4    T    
C120  H56   S    
C15   C26   A    
C119  C120  A    
C33   C35   S    
C67   H10   S    
C76   C77   A    
C53   C61   A    
C118  H54   S    
C24   O8    A    
C77   C78   A    
C28   C35   S    
C100  H39   S    
C88   C89   A    
C25   H5    S    
C128  H63   S    
C114  C115  A    
C108  H46   S    
C102  C103  A    
C20   C153  S    
C146  H80   S    
C32   C38   T    
C97   H35   S    
C21   C135  S    
C42   C43   S    
C148  C149  A    
C34   C36   S    
C112  H49   S    
C2    O2    A    
C109  H47   S    
C56   C123  S    
C12   C58   A    
O6    Zn2   S    
C40   C42   S    
C139  H74   S    
C101  H40   S    
C28   C34   S    
C123  C124  A    
C131  C132  A    
C46   O10   S    
C63   C68   A    
C105  C106  A    
C107  H45   S    
C150  C151  A    
C86   H26   S    
C78   C79   A    
C68   H11   S    
C96   C97   A    
C41   H37   S    
C148  H81   S    
C53   C55   A    
C10   C21   A    
C41   C47   S    
C91   H30   S    
C54   C56   A    
C59   C61   A    
C126  C127  A    
C13   C19   A    
C45   N1    A    
C154  H86   S    
C1    O3    A    
C72   C73   A    
C14   C20   A    
C91   C92   A    
C52   N2    A    
C135  C136  A    
C47   C49   S    
C156  H88   S    
C28   C81   S    
C106  C107  A    
C5    C7    A    
C150  H83   S    
C124  C125  A    
C54   H69   S    
C39   C43   S    
C54   C62   A    
C53   H70   S    
C115  C116  A    
C5    C45   A    
C145  H79   S    
C118  C119  A    
C23   O5    A    
C120  C121  A    
C117  C118  A    
C143  H77   S    
C52   O11   S    
C130  C131  A    
O8    Zn1   S    
C3    C9    A    
C57   C63   S    
N3    Zn2   S    
O3    Zn2   S    
C70   C71   A    
C14   C15   A    
C40   C44   S    
C103  H42   S    
C142  C143  A    
C153  C154  A    
C137  C138  A    
C151  C152  A    
C73   H15   S    
C16   C18   A    
C42   C48   S    
C121  H57   S    
O2    Zn2   S    
C89   H28   S    
C48   C50   S    
C111  C116  A    
O1    Zn1   S    
C82   C83   A    
C12   C56   A    
C113  C114  A    
C105  C110  A    
C119  H55   S    
C111  C112  A    
C60   H4    S    
C4    C17   A    
C75   C80   A    
C4    C6    A    
C107  C108  A    
C20   C22   A    
C34   C87   S    
C138  C139  A    
C134  H68   S    
C126  H61   S    
C49   N3    T    
C123  C128  A    
C27   C36   S    
C41   C44   S    
C30   H92   S    
C141  C142  A    
C4    C10   A    
C156  C157  A    
C90   H29   S    
C2    O4    A    
C81   C82   A    
C19   C147  S    
C116  H53   S    
C97   C98   A    
C113  H50   S    
C43   C105  S    
C24   O6    A    
C72   H14   S    
C15   C17   A    
C29   C35   S    
C64   H7    S    
C70   H12   S    
C6    C46   A    
C30   C33   S    
C42   H38   S    
C99   C104  A    
C133  C134  A    
C44   C99   S    
C93   C98   A    
C149  H82   S    
C96   H34   S    
C147  C148  A    
C157  C158  A    
C3    C5    A    
C87   C88   A    
C7    C25   A    
C65   H8    S    
C6    C8    A    
C115  H52   S    
C122  H58   S    
C30   C36   S    
C33   C93   S    
C51   O12   S    
C39   H1    S    
C110  H48   S    
C12   C24   S    
C90   C91   A    
C137  H72   S    
C40   H2    S    
C125  C126  A    
C13   C17   A    
C95   C96   A    
C77   H18   S    
C61   N1    S    
C121  C122  A    
C87   C92   A    
C104  H43   S    
C94   C95   A    
C83   C84   A    
C1    O1    A    
C82   H22   S    
C44   C48   S    
C11   C57   A    
C136  H71   S    
C59   H3    S    
C36   C38   S    
C135  C140  A    
C84   H24   S    
C89   C90   A    
C80   H21   S    
O5    Zn1   S    
C29   H91   S    
C29   C34   S    
C145  C146  A    
C76   H17   S    
C81   C86   A    
C92   H31   S    
C28   C30   S    
C85   H25   S    
C130  H64   S    
C125  H60   S    
C45   O9    S    
C141  C146  A    
C129  C130  A    
C88   H27   S    
C22   C141  S    
C73   C74   A    
C95   H33   S    
C94   H32   S    
C46   N2    A    
C27   C33   S    
C117  C122  A    
C114  H51   S    
C132  H66   S    
C79   H20   S    
C157  H89   S    
C31   C37   T    
C151  H84   S    
C64   C65   A    
C27   C75   S    
C127  H62   S    
C153  C158  A    
C69   C70   A    
C109  C110  A    
C13   C16   A    
C155  C156  A    
C99   C100  A    
C93   C94   A    
C39   C48   S    
C74   H16   S    
C71   C72   A    
C51   N1    A    
C23   O7    A    
C65   C66   A    
C144  C145  A    
C43   C47   S    
O4    Zn1   S    
O7    Zn2   S    
C67   C68   A    
C129  C134  A    
C149  C150  A    
C85   C86   A    
C55   C129  S    
C147  C152  A    
C140  H75   S    
