data_mof_unit_9206.cif
_audit_creation_date              2012-12-10T17:09:15-0500
_audit_creation_method            fapswitch 2.2
_symmetry_space_group_name_H-M    P1
_symmetry_Int_Tables_number       1
_space_group_crystal_system       triclinic
_cell_length_a                    18.002095
_cell_length_b                    18.951634
_cell_length_c                    11.841333
_cell_angle_alpha                 89.602004
_cell_angle_beta                  73.009306
_cell_angle_gamma                 90.052462
_cell_volume                      3863.45307402

loop_
_atom_site_label
_atom_site_type_symbol
_atom_type_description
_atom_site_fract_x
_atom_site_fract_y
_atom_site_fract_z
_atom_type_partial_charge
C1    C     C_R   0.402591 0.103261 0.522226 0.866860
C2    C     C_R   0.597264 0.896703 0.477657 0.884276
C3    C     C_R   0.600139 0.101316 0.475967 0.828885
C4    C     C_R   0.399695 0.898891 0.524110 0.835056
C5    C     C_R   0.902591 0.603261 0.522226 0.866860
C6    C     C_R   0.097264 0.396703 0.477657 0.884274
C7    C     C_R   0.100139 0.601316 0.475967 0.828883
C8    C     C_R   0.899695 0.398891 0.524110 0.835055
C9    C     C_R   0.537674 0.997991 0.959042 -0.089081
C10   C     C_R   0.462779 0.002358 0.040681 -0.098408
C11   C     C_R   0.037674 0.497991 0.959042 -0.089080
C12   C     C_R   0.962779 0.502359 0.040681 -0.098408
C13   C     C_R   0.408411 0.003682 0.871365 0.471204
C14   C     C_R   0.591735 0.997369 0.128823 0.468536
C15   C     C_R   0.908411 0.503682 0.871365 0.471204
C16   C     C_R   0.091735 0.497369 0.128823 0.468536
C17   C     C_R   0.398038 0.008949 0.994052 -0.185702
C18   C     C_R   0.602405 0.991945 0.005972 -0.192046
C19   C     C_R   0.898038 0.508949 0.994052 -0.185702
C20   C     C_R   0.102404 0.491945 0.005972 -0.192046
C21   C     C_R   0.545107 0.000763 0.833935 0.120565
C22   C     C_R   0.455101 0.998585 0.165721 0.119854
C23   C     C_R   0.045107 0.500763 0.833935 0.120564
C24   C     C_R   0.955101 0.498585 0.165721 0.119855
C25   C     C_R   0.657274 0.160025 0.457062 -0.227203
C26   C     C_R   0.342021 0.840765 0.543168 -0.194868
C27   C     C_R   0.348994 0.164495 0.537529 -0.197802
C28   C     C_R   0.650613 0.835361 0.461776 -0.215322
C29   C     C_R   0.157274 0.660025 0.457062 -0.227203
C30   C     C_R   0.842021 0.340765 0.543169 -0.194870
C31   C     C_R   0.848994 0.664494 0.537529 -0.197802
C32   C     C_R   0.150613 0.335361 0.461776 -0.215323
C33   C     C_R   0.205280 0.815241 0.618241 0.324416
C34   C     C_R   0.793664 0.186694 0.378135 0.325499
C35   C     C_R   0.779895 0.798545 0.356203 0.357503
C36   C     C_R   0.220028 0.201864 0.644562 0.340583
C37   C     C_R   0.705280 0.315241 0.618242 0.324415
C38   C     C_R   0.293664 0.686694 0.378135 0.325499
C39   C     C_R   0.279895 0.298545 0.356202 0.357503
C40   C     C_R   0.720028 0.701864 0.644561 0.340582
C41   C     C_R   0.272018 0.845192 0.634743 -0.144363
C42   C     C_R   0.726051 0.157588 0.362636 -0.108315
C43   C     C_R   0.708772 0.826249 0.353187 -0.130921
C44   C     C_R   0.291640 0.174601 0.646645 -0.120164
C45   C     C_R   0.772018 0.345191 0.634744 -0.144361
C46   C     C_R   0.226051 0.657588 0.362636 -0.108314
C47   C     C_R   0.208772 0.326249 0.353187 -0.130920
C48   C     C_R   0.791639 0.674600 0.646645 -0.120165
C49   C     C_R   0.351499 0.786888 0.459213 -0.048706
C50   C     C_R   0.648843 0.212769 0.542827 -0.183232
C51   C     C_R   0.652773 0.793438 0.560370 -0.050474
C52   C     C_R   0.345718 0.205547 0.438528 -0.062420
C53   C     C_R   0.851499 0.286888 0.459213 -0.048706
C54   C     C_R   0.148843 0.712769 0.542827 -0.183232
C55   C     C_R   0.152773 0.293438 0.560370 -0.050474
C56   C     C_R   0.845718 0.705547 0.438528 -0.062421
C57   C     C_R   0.287435 0.742518 0.459774 -0.037058
C58   C     C_R   0.712497 0.258149 0.539215 -0.019034
C59   C     C_R   0.716753 0.747768 0.551286 -0.053103
C60   C     C_R   0.282337 0.252010 0.448943 -0.049115
C61   C     C_R   0.787435 0.242518 0.459774 -0.037057
C62   C     C_R   0.212497 0.758149 0.539215 -0.019033
C63   C     C_R   0.216753 0.247768 0.551286 -0.053103
C64   C     C_R   0.782337 0.752010 0.448943 -0.049115
Cu1   Cu    Cu3+1 0.507800 1.000000 0.383250 1.073630
Cu2   Cu    Cu3+1 0.492200 1.000000 0.616750 1.077024
Cu3   Cu    Cu3+1 0.007800 0.500000 0.383250 1.073630
Cu4   Cu    Cu3+1 0.992200 0.500000 0.616750 1.077024
N1    N     N_R   0.519530 1.000000 0.207810 -0.246174
N2    N     N_R   0.480470 1.000000 0.792190 -0.249313
N3    N     N_R   0.019530 0.500000 0.207810 -0.246174
N4    N     N_R   0.980470 0.500000 0.792190 -0.249313
O1    O     O_R   0.430030 0.075530 0.417420 -0.567602
O2    O     O_R   0.569970 0.924470 0.582580 -0.569061
O3    O     O_R   0.569970 0.075530 0.582580 -0.586097
O4    O     O_R   0.430030 0.924470 0.417420 -0.585318
O5    O     O_R   0.930030 0.575530 0.417420 -0.567602
O6    O     O_R   0.069970 0.424470 0.582580 -0.569061
O7    O     O_R   0.069970 0.575530 0.582580 -0.586097
O8    O     O_R   0.930030 0.424470 0.417420 -0.585317
O9    O     O_R   0.416860 0.075510 0.614610 -0.529652
O10   O     O_R   0.583140 0.924490 0.385390 -0.531727
O11   O     O_R   0.583140 0.075510 0.385390 -0.522680
O12   O     O_R   0.416860 0.924490 0.614610 -0.526914
O13   O     O_R   0.916860 0.575510 0.614610 -0.529650
O14   O     O_R   0.083140 0.424490 0.385390 -0.531728
O15   O     O_R   0.083140 0.575510 0.385390 -0.522679
O16   O     O_R   0.916860 0.424490 0.614610 -0.526914
Cl1   Cl    Cl    0.673356 0.994161 0.181163 -0.510234
Cl2   Cl    Cl    0.326654 0.008186 0.819617 -0.521838
Cl3   Cl    Cl    0.173356 0.494161 0.181163 -0.510235
Cl4   Cl    Cl    0.826654 0.508186 0.819617 -0.521838
C65   C     C_2   0.378371 0.980214 0.247868 0.902909
O17   O     O_2   0.353828 0.919971 0.248458 -0.547734
O18   O     O_R   0.331389 0.031718 0.317226 -0.720778
H1    H     H_    0.279838 0.012103 0.367585 0.342906
C66   C     C_2   0.622309 0.016026 0.750550 0.902500
O19   O     O_2   0.661260 0.969086 0.691904 -0.555224
O20   O     O_R   0.653496 0.083824 0.747275 -0.715196
H2    H     H_    0.707259 0.088178 0.689026 0.353556
C67   C     C_2   0.878371 0.480215 0.247868 0.902910
O21   O     O_2   0.853828 0.419972 0.248458 -0.547734
O22   O     O_R   0.831389 0.531718 0.317226 -0.720777
H3    H     H_    0.779838 0.512103 0.367584 0.342905
C68   C     C_2   0.122309 0.516026 0.750550 0.902500
O23   O     O_2   0.161260 0.469086 0.691905 -0.555225
O24   O     O_R   0.153496 0.583824 0.747274 -0.715196
H4    H     H_    0.207259 0.588178 0.689026 0.353556
C69   C     C_2   0.572436 0.219225 0.633951 1.043272
O25   O     O_2   0.567192 0.208804 0.737863 -0.450076
O26   O     O_R   0.506097 0.237204 0.601848 -0.675650
H5    H     H_    0.517488 0.246454 0.514084 0.324663
C70   C     C_2   0.430299 0.776248 0.378036 0.988449
O27   O     O_2   0.444703 0.791572 0.273347 -0.485314
O28   O     O_R   0.487664 0.747962 0.422872 -0.703716
H6    H     H_    0.537286 0.736631 0.359014 0.376084
C71   C     C_2   0.406033 0.196735 0.323273 0.990042
O29   O     O_2   0.387211 0.179382 0.236163 -0.493751
O30   O     O_R   0.484134 0.208099 0.314810 -0.734411
H7    H     H_    0.518976 0.201965 0.231198 0.377754
C72   C     C_2   0.589483 0.800091 0.672855 0.993412
O31   O     O_2   0.604419 0.818263 0.762738 -0.502855
O32   O     O_R   0.512741 0.786864 0.674855 -0.690629
H8    H     H_    0.475144 0.792429 0.756674 0.377338
C73   C     C_2   0.072436 0.719225 0.633952 1.043273
O33   O     O_2   0.067194 0.708806 0.737864 -0.450076
O34   O     O_R   0.006097 0.737202 0.601850 -0.675650
H9    H     H_    0.017486 0.746450 0.514086 0.324661
C74   C     C_2   0.930299 0.276248 0.378036 0.988449
O35   O     O_2   0.944704 0.291573 0.273348 -0.485315
O36   O     O_R   0.987663 0.247961 0.422872 -0.703715
H10   H     H_    0.037285 0.236630 0.359014 0.376085
C75   C     C_2   0.906033 0.696735 0.323273 0.990042
O37   O     O_2   0.887211 0.679383 0.236163 -0.493751
O38   O     O_R   0.984134 0.708099 0.314810 -0.734412
H11   H     H_    0.018976 0.701964 0.231198 0.377754
C76   C     C_2   0.089483 0.300092 0.672855 0.993411
O39   O     O_2   0.104419 0.318263 0.762738 -0.502855
O40   O     O_R   0.012741 0.286864 0.674856 -0.690629
H12   H     H_    0.975145 0.292429 0.756675 0.377338
C77   C     C_2   0.724217 0.141679 0.240800 1.013370
O41   O     O_2   0.781088 0.117456 0.167806 -0.431580
O42   O     O_R   0.658836 0.160145 0.206368 -0.734404
H13   H     H_    0.665139 0.149700 0.120199 0.355582
C78   C     C_2   0.271453 0.863217 0.756721 1.017009
O43   O     O_2   0.214300 0.889914 0.825546 -0.433230
O44   O     O_R   0.334481 0.843717 0.796436 -0.730240
H14   H     H_    0.326266 0.855154 0.882747 0.361665
C79   C     C_2   0.308290 0.167448 0.762660 1.011582
O45   O     O_2   0.255557 0.158770 0.854017 -0.458481
O46   O     O_R   0.384016 0.176145 0.769117 -0.674559
H15   H     H_    0.387764 0.171389 0.852632 0.365471
C80   C     C_2   0.693686 0.835248 0.236246 1.001724
O47   O     O_2   0.747326 0.844580 0.146223 -0.449560
O48   O     O_R   0.618439 0.827638 0.227119 -0.738696
H16   H     H_    0.615919 0.833278 0.143093 0.371749
C81   C     C_2   0.224218 0.641679 0.240800 1.013369
O49   O     O_2   0.281088 0.617456 0.167806 -0.431580
O50   O     O_R   0.158836 0.660144 0.206368 -0.734404
H17   H     H_    0.165139 0.649700 0.120199 0.355582
C82   C     C_2   0.771454 0.363216 0.756721 1.017009
O51   O     O_2   0.714301 0.389914 0.825547 -0.433230
O52   O     O_R   0.834481 0.343717 0.796436 -0.730241
H18   H     H_    0.826267 0.355154 0.882747 0.361664
C83   C     C_2   0.808289 0.667447 0.762660 1.011583
O53   O     O_2   0.755556 0.658769 0.854017 -0.458481
O54   O     O_R   0.884015 0.676144 0.769118 -0.674558
H19   H     H_    0.887763 0.671389 0.852633 0.365471
C84   C     C_2   0.193686 0.335248 0.236246 1.001724
O55   O     O_2   0.247326 0.344580 0.146222 -0.449560
O56   O     O_R   0.118439 0.327637 0.227120 -0.738695
H20   H     H_    0.115918 0.333277 0.143093 0.371750
Cl5   Cl    Cl    0.616523 0.360267 0.681162 -0.410617
Cl6   Cl    Cl    0.382109 0.643457 0.306249 -0.414007
Cl7   Cl    Cl    0.365295 0.337083 0.260040 -0.397768
Cl8   Cl    Cl    0.635575 0.663515 0.743322 -0.392544
Cl9   Cl    Cl    0.116523 0.860268 0.681159 -0.410618
Cl10  Cl    Cl    0.882109 0.143458 0.306247 -0.414007
Cl11  Cl    Cl    0.865295 0.837084 0.260040 -0.397768
Cl12  Cl    Cl    0.135576 0.163516 0.743323 -0.392543
C85   C     C_2   0.319500 0.028817 0.068152 0.940579
O57   O     O_2   0.307673 0.088626 0.107177 -0.490498
O58   O     O_R   0.258793 0.979795 0.089895 -0.668106
H21   H     H_    0.207870 0.999737 0.140830 0.375976
C86   C     C_2   0.680975 0.971675 0.932429 0.946144
O59   O     O_2   0.734365 0.014320 0.912496 -0.479149
O60   O     O_R   0.694041 0.902949 0.889303 -0.672562
H22   H     H_    0.749994 0.894943 0.841270 0.377658
C87   C     C_2   0.819500 0.528817 0.068152 0.940578
O61   O     O_2   0.807673 0.588626 0.107176 -0.490499
O62   O     O_R   0.758793 0.479795 0.089895 -0.668105
H23   H     H_    0.707870 0.499737 0.140830 0.375976
C88   C     C_2   0.180975 0.471674 0.932429 0.946144
O63   O     O_2   0.234365 0.514319 0.912495 -0.479148
O64   O     O_R   0.194041 0.402948 0.889304 -0.672562
H24   H     H_    0.249993 0.394941 0.841271 0.377658

loop_
_geom_bond_atom_site_label_1
_geom_bond_atom_site_label_2
_ccdc_geom_bond_type
C6    C32   S    
O56   H20   S    
C81   O49   D    
C7    C29   S    
C37   C45   A    
C13   Cl2   S    
O18   H1    S    
O32   H8    S    
C84   O55   D    
C14   C18   A    
C30   C45   A    
C49   C70   S    
O44   H14   S    
Cu3   O5    S    
C36   Cl12  S    
C77   O42   S    
C66   O19   D    
C86   O59   D    
Cu1   O1    S    
C57   C62   A    
Cu2   N2    S    
C85   O57   D    
C10   C22   A    
C15   C19   A    
C15   N4    A    
C76   O40   S    
C59   C64   A    
C83   O53   D    
Cu1   O4    S    
C60   C63   A    
C39   C47   A    
C70   O27   D    
C79   O46   S    
C78   O43   D    
C28   C51   A    
C38   Cl6   S    
C29   C54   A    
C39   C60   A    
C10   C17   A    
C1    O9    A    
O42   H13   S    
Cu2   O2    S    
C11   C12   A    
C49   C57   A    
C24   C67   S    
C75   O38   S    
C67   O22   S    
C87   O62   S    
C45   C82   S    
C25   C50   A    
C5    C31   S    
C52   C60   A    
C69   O26   S    
C82   O52   S    
C15   Cl4   S    
C53   C61   A    
C27   C44   A    
C7    O15   A    
C48   C83   S    
O52   H18   S    
C34   C42   A    
C88   O64   S    
C55   C63   A    
C29   C46   A    
O24   H4    S    
C56   C64   A    
C35   C64   A    
C51   C72   S    
C31   C56   A    
C80   O48   S    
C36   C63   A    
C3    O3    A    
C9    C10   A    
C32   C55   A    
C37   C58   A    
C2    O2    A    
C36   C44   A    
C16   C20   A    
C5    O13   A    
C52   C71   S    
Cu4   O7    S    
C73   O33   D    
O46   H15   S    
C81   O50   S    
C40   C59   A    
C35   Cl11  S    
Cu4   O13   S    
C84   O56   S    
C16   N3    A    
C66   O20   S    
C56   C75   S    
C85   O58   S    
Cu4   O6    S    
C54   C73   S    
C11   C20   A    
C72   O32   S    
C78   O44   S    
C33   Cl9   S    
Cu3   Cu4   S    
C50   C58   A    
C67   O21   D    
O38   H11   S    
C34   Cl10  S    
C39   Cl7   S    
C26   C49   A    
O54   H19   S    
C40   Cl8   S    
C33   C62   A    
C22   C65   S    
C54   C62   A    
C46   C81   S    
C37   Cl5   S    
C50   C69   S    
O62   H23   S    
C8    O16   A    
Cu1   O11   S    
O58   H21   S    
C14   Cl1   S    
C38   C57   A    
C68   O24   S    
O50   H17   S    
C4    O12   A    
C3    C25   S    
Cu4   N4    S    
C8    O8    A    
C42   C77   S    
C41   C78   S    
C65   O17   D    
C30   C53   A    
O30   H7    S    
C72   O31   D    
C19   C87   S    
C1    O1    A    
Cu1   Cu2   S    
C31   C48   A    
C3    O11   A    
C75   O37   D    
Cu4   O16   S    
C14   N1    A    
C2    O10   A    
C53   C74   S    
C86   O60   S    
C5    O5    A    
O36   H10   S    
C20   C88   S    
O22   H3    S    
C35   C43   A    
C27   C52   A    
C7    O7    A    
C74   O35   D    
C68   O23   D    
C40   C48   A    
Cu3   O14   S    
C28   C43   A    
O26   H5    S    
Cu3   O15   S    
C23   N4    A    
Cu3   O8    S    
C55   C76   S    
C25   C42   A    
C4    C26   S    
O40   H12   S    
O34   H9    S    
C76   O39   D    
C12   C24   A    
C18   C86   S    
C71   O29   D    
C44   C79   S    
C6    O14   A    
O20   H2    S    
C13   C17   A    
C21   N2    A    
C33   C41   A    
C71   O30   S    
C8    C30   S    
O60   H22   S    
C1    C27   S    
C82   O51   D    
C79   O45   D    
Cu2   O9    S    
C9    C21   A    
Cu1   O10   S    
C65   O18   S    
C58   C61   A    
Cu1   N1    S    
Cu2   O3    S    
C12   C19   A    
C11   C23   A    
C32   C47   A    
C47   C84   S    
Cu3   N3    S    
C34   C61   A    
C87   O61   D    
C38   C46   A    
C6    O6    A    
C21   C66   S    
Cu2   O12   S    
O64   H24   S    
C17   C85   S    
C9    C18   A    
C51   C59   A    
C4    O4    A    
C24   N3    A    
C16   Cl3   S    
C83   O54   S    
C88   O63   D    
C13   N2    A    
C69   O25   D    
O48   H16   S    
C73   O34   S    
C22   N1    A    
C2    C28   S    
C70   O28   S    
C80   O47   D    
C77   O41   D    
C43   C80   S    
O28   H6    S    
C26   C41   A    
C74   O36   S    
C23   C68   S    
