data_mof_unit_46479.cif
_audit_creation_date              2012-12-10T17:39:06-0500
_audit_creation_method            fapswitch 2.2
_symmetry_space_group_name_H-M    P1
_symmetry_Int_Tables_number       1
_space_group_crystal_system       triclinic
_cell_length_a                    12.119607
_cell_length_b                    12.830984
_cell_length_c                    23.256022
_cell_angle_alpha                 89.935676
_cell_angle_beta                  87.405125
_cell_angle_gamma                 93.169247
_cell_volume                      3607.20472447

loop_
_atom_site_label
_atom_site_type_symbol
_atom_type_description
_atom_site_fract_x
_atom_site_fract_y
_atom_site_fract_z
_atom_type_partial_charge
C1    C     C_R   0.521379 0.699970 0.492755 0.922564
C2    C     C_R   0.478283 0.299304 0.504930 0.878042
C3    C     C_R   0.511001 0.449211 0.768895 -0.162557
C4    C     C_R   0.435341 0.587227 0.241292 -0.151699
C5    C     C_R   0.524733 0.435503 0.709073 0.343037
C6    C     C_R   0.445697 0.585525 0.301042 0.417911
C7    C     C_R   0.504961 0.518165 0.671908 -0.307154
C8    C     C_R   0.493414 0.501065 0.327176 -0.352341
C9    C     C_R   0.481287 0.617341 0.693233 0.294580
C10   C     C_R   0.532954 0.418530 0.293812 0.386196
C11   C     C_R   0.464717 0.630605 0.752997 0.442799
C12   C     C_R   0.526485 0.421422 0.233987 0.492084
C13   C     C_R   0.481822 0.547568 0.790203 0.021909
C14   C     C_R   0.478756 0.506178 0.207759 -0.036318
C15   C     C_R   0.464582 0.185660 0.505543 -0.199251
C16   C     C_R   0.535320 0.811330 0.477612 -0.252972
C17   C     C_R   0.654808 0.968457 0.481838 -0.089610
C18   C     C_R   0.369856 0.044417 0.457336 -0.137524
C19   C     C_R   0.643051 0.860700 0.472343 -0.118829
C20   C     C_R   0.364455 0.137704 0.487764 -0.105667
C21   C     C_R   0.441867 0.871550 0.470308 -0.089226
C22   C     C_R   0.559532 0.127748 0.509530 -0.123285
C23   C     C_R   0.501314 0.501017 0.610363 1.036517
C24   C     C_R   0.498508 0.499297 0.389550 0.975597
C25   C     C_R   0.457756 0.980583 0.468459 0.017629
C26   C     C_R   0.558668 0.026309 0.487074 -0.017007
C27   C     C_R   0.951719 0.421602 0.436237 -0.198399
C28   C     C_R   0.048460 0.590126 0.557779 -0.225957
C29   C     C_R   0.835939 0.426665 0.444509 0.611956
C30   C     C_R   0.162367 0.572273 0.555583 0.579794
C31   C     C_R   0.858454 0.531370 0.527841 -0.028160
C32   C     C_R   0.142637 0.475562 0.469194 -0.025087
C33   C     C_R   0.976401 0.532667 0.520876 -0.125416
C34   C     C_R   0.024223 0.474859 0.475019 -0.103300
C35   C     C_R   0.576600 0.542462 0.117262 0.678683
C36   C     C_R   0.378260 0.551345 0.880877 0.687147
C37   C     C_R   0.382162 0.500432 0.119759 0.551892
C38   C     C_R   0.573683 0.588409 0.876908 0.591739
C39   C     C_R   0.377259 0.525320 0.061242 -0.114309
C40   C     C_R   0.575813 0.588765 0.937199 -0.139231
C41   C     C_R   0.477390 0.550337 0.029333 -0.062263
C42   C     C_R   0.475509 0.566239 0.969434 -0.070206
C43   C     C_R   0.579542 0.556079 0.057060 -0.158789
C44   C     C_R   0.373804 0.555992 0.941445 -0.134198
C45   C     C_R   0.274996 0.528876 0.034555 0.467456
C46   C     C_R   0.676245 0.603889 0.965588 0.459655
C47   C     C_R   0.272751 0.543618 0.974739 -0.159263
C48   C     C_R   0.679663 0.579813 0.024361 -0.154636
N1    N     N_R   0.479744 0.513095 0.146410 -0.316127
N2    N     N_R   0.477008 0.565958 0.850775 -0.306864
N3    N     N_R   0.207800 0.519350 0.510590 -0.180526
N4    N     N_R   0.792200 0.480650 0.489410 -0.169536
O1    O     O_R   0.421690 0.658830 0.502820 -0.568748
O2    O     O_R   0.578310 0.341170 0.497180 -0.600008
O3    O     O_R   0.609320 0.646410 0.496030 -0.588407
O4    O     O_R   0.390680 0.353590 0.503970 -0.577055
O5    O     O_R   0.406170 0.506240 0.587240 -0.564439
O6    O     O_R   0.593830 0.493760 0.412760 -0.533063
O7    O     O_R   0.593790 0.493820 0.580450 -0.638089
O8    O     O_R   0.406210 0.506180 0.419550 -0.598476
O9    O     O_2   0.668092 0.562121 0.147277 -0.506972
O10   O     O_2   0.286963 0.524407 0.852067 -0.541980
O11   O     O_2   0.290551 0.464937 0.150474 -0.498768
O12   O     O_2   0.667822 0.604611 0.844088 -0.494945
Zn1   Zn    Zn3+2 0.374720 0.508290 0.504530 1.069941
Zn2   Zn    Zn3+2 0.625280 0.491710 0.495470 1.052088
O13   O     O_3   0.175968 0.517485 0.066750 -0.549962
C49   C     C_3   0.147055 0.616801 0.086499 -0.123896
H1    H     H_    0.211340 0.653423 0.113883 0.165771
H2    H     H_    0.069122 0.607317 0.113335 0.217162
H3    H     H_    0.131903 0.669615 0.050062 0.145450
O14   O     O_3   0.774318 0.631688 0.935131 -0.554964
C50   C     C_3   0.784889 0.741661 0.931301 -0.124129
H4    H     H_    0.785650 0.778441 0.974606 0.162146
H5    H     H_    0.717803 0.773101 0.906381 0.164006
H6    H     H_    0.864785 0.764406 0.908298 0.195276
C51   C     C_2   0.197834 0.437069 0.416681 1.002655
O15   O     O_2   0.199963 0.489386 0.372585 -0.565996
O16   O     O_R   0.244719 0.340190 0.416663 -0.755538
H7    H     H_    0.274854 0.320578 0.377036 0.335225
C52   C     C_2   0.805163 0.576490 0.579167 0.998712
O17   O     O_2   0.804649 0.530127 0.625126 -0.642861
O18   O     O_R   0.761051 0.674292 0.576098 -0.755141
H8    H     H_    0.732662 0.699041 0.615003 0.337473
O19   O     O_3   0.231144 0.616218 0.596042 -0.557819
C53   C     C_3   0.200997 0.575029 0.651634 -0.149673
H9    H     H_    0.134106 0.511525 0.653040 0.139050
H10   H     H_    0.175539 0.639245 0.680247 0.186008
H11   H     H_    0.273456 0.541945 0.670476 0.174336
O20   O     O_3   0.765098 0.383352 0.404803 -0.559458
C54   C     C_3   0.761705 0.273146 0.407010 -0.045482
H12   H     H_    0.675784 0.242909 0.416991 0.176859
H13   H     H_    0.815462 0.240386 0.439254 0.168325
H14   H     H_    0.786874 0.243087 0.363943 0.206124
C55   C     C_2   0.990852 0.358818 0.386793 0.917980
O21   O     O_2   0.026887 0.273164 0.395060 -0.566636
O22   O     O_R   0.980855 0.395548 0.330782 -0.703694
H15   H     H_    0.008708 0.345197 0.300600 0.362925
C56   C     C_2   0.013336 0.680993 0.591943 0.977417
O23   O     O_2   0.985922 0.671081 0.642982 -0.612507
O24   O     O_R   0.014839 0.778885 0.565560 -0.716049
H16   H     H_    0.989636 0.835235 0.592885 0.378077
C57   C     C_2   0.163342 0.551819 0.949184 1.056506
O25   O     O_2   0.089228 0.484874 0.959400 -0.533836
O26   O     O_R   0.144321 0.638084 0.914919 -0.790265
H17   H     H_    0.066441 0.635649 0.900595 0.364635
C58   C     C_2   0.790036 0.569847 0.048512 1.092825
O27   O     O_2   0.858359 0.643665 0.046718 -0.624951
O28   O     O_R   0.816232 0.474627 0.072244 -0.724549
H18   H     H_    0.893892 0.476821 0.086843 0.372991
C59   C     C_2   0.525253 0.360566 0.809032 1.034373
O29   O     O_2   0.596529 0.298640 0.798617 -0.589732
O30   O     O_R   0.456647 0.347077 0.858715 -0.797878
H19   H     H_    0.474994 0.284603 0.882499 0.352644
C60   C     C_2   0.382865 0.676517 0.214582 0.994527
O31   O     O_2   0.421274 0.714859 0.169329 -0.663462
O32   O     O_R   0.290271 0.718150 0.242074 -0.691448
H20   H     H_    0.262298 0.778864 0.220064 0.343873
O33   O     O_3   0.546053 0.338144 0.687024 -0.591146
C61   C     C_3   0.661418 0.332011 0.677129 -0.067638
H21   H     H_    0.712428 0.380280 0.707011 0.182949
H22   H     H_    0.685123 0.354243 0.632146 0.183121
H23   H     H_    0.682582 0.249922 0.683245 0.217746
O34   O     O_3   0.413233 0.669094 0.334004 -0.506667
C62   C     C_3   0.501846 0.745294 0.333099 -0.155074
H24   H     H_    0.573283 0.715920 0.355074 0.168500
H25   H     H_    0.474835 0.815228 0.356336 0.223589
H26   H     H_    0.528045 0.770956 0.288601 0.149594
O35   O     O_3   0.465167 0.696870 0.654366 -0.595870
C63   C     C_3   0.538496 0.784374 0.663248 -0.123217
H27   H     H_    0.494315 0.845619 0.687009 0.210134
H28   H     H_    0.566533 0.817577 0.620630 0.181199
H29   H     H_    0.613711 0.766272 0.686453 0.147705
O36   O     O_3   0.583595 0.336848 0.318738 -0.529264
C64   C     C_3   0.501842 0.260472 0.337926 -0.268380
H30   H     H_    0.436650 0.244701 0.306327 0.148422
H31   H     H_    0.463909 0.283300 0.379987 0.148101
H32   H     H_    0.541901 0.186008 0.344578 0.189331
O37   O     O_3   0.438698 0.725915 0.776299 -0.603723
C65   C     C_3   0.326297 0.742288 0.768000 -0.220211
H33   H     H_    0.270895 0.673075 0.780274 0.192772
H34   H     H_    0.313572 0.764871 0.722805 0.195954
H35   H     H_    0.301257 0.807880 0.795797 0.207531
O38   O     O_3   0.574655 0.344140 0.201571 -0.538526
C66   C     C_3   0.491839 0.278644 0.177138 -0.185454
H36   H     H_    0.475629 0.306501 0.133316 0.171230
H37   H     H_    0.412887 0.270974 0.203760 0.134924
H38   H     H_    0.523022 0.199278 0.172588 0.197577
C67   C     C_2   0.641120 0.158673 0.552987 0.960650
O39   O     O_2   0.632454 0.117323 0.600470 -0.591951
O40   O     O_R   0.729845 0.229863 0.539359 -0.828913
H39   H     H_    0.783305 0.238421 0.571506 0.334891
C68   C     C_2   0.326177 0.824512 0.472261 1.016838
O41   O     O_2   0.259309 0.851776 0.509467 -0.575572
O42   O     O_R   0.293792 0.750666 0.431273 -0.691885
H40   H     H_    0.213548 0.724738 0.437331 0.356994
C69   C     C_2   0.255540 0.168676 0.513544 1.086372
O43   O     O_2   0.168508 0.133916 0.494679 -0.542833
O44   O     O_R   0.252334 0.230349 0.563134 -0.783019
H41   H     H_    0.174162 0.244793 0.577036 0.337006
C70   C     C_2   0.742527 0.802237 0.455045 1.015464
O45   O     O_2   0.739798 0.743509 0.413724 -0.630096
O46   O     O_R   0.839489 0.815555 0.485115 -0.710312
H42   H     H_    0.900667 0.772129 0.468592 0.370127
C71   C     C_2   0.766943 0.020532 0.477186 0.941823
O47   O     O_2   0.806821 0.046668 0.429827 -0.628596
O48   O     O_R   0.830333 0.030338 0.525826 -0.727043
H43   H     H_    0.906578 0.064483 0.516722 0.380824
C72   C     C_2   0.303049 0.027414 0.405113 0.939935
O49   O     O_2   0.317014 0.952081 0.374024 -0.614812
O50   O     O_R   0.232050 0.102817 0.388064 -0.724095
H44   H     H_    0.194552 0.083873 0.351106 0.367014

loop_
_geom_bond_atom_site_label_1
_geom_bond_atom_site_label_2
_ccdc_geom_bond_type
C64   H32   S    
C30   N3    A    
C19   C70   S    
C16   C21   A    
C27   C29   A    
C50   H5    S    
C41   C42   A    
C4    C60   S    
C27   C55   S    
C55   O21   D    
C65   H35   S    
C6    O34   S    
C31   N4    A    
O50   H44   S    
C66   H38   S    
O22   H15   S    
N4    Zn2   S    
C64   H30   S    
C39   C41   A    
C51   O15   D    
C23   O7    A    
C71   O47   D    
C5    O33   S    
O18   H8    S    
C17   C26   A    
C65   H34   S    
O35   C63   S    
C67   O40   S    
O7    Zn2   S    
N3    Zn1   S    
C53   H10   S    
C48   C58   S    
O4    Zn1   S    
C23   O5    A    
C72   O49   D    
C11   O37   S    
C1    O1    A    
C37   O11   S    
C32   C51   S    
C67   O39   D    
O6    Zn2   S    
C15   C22   A    
O46   H42   S    
C36   N2    A    
C3    C59   S    
C49   H1    S    
C60   O32   S    
C45   O13   S    
C62   H26   S    
O40   H39   S    
C31   C33   A    
C68   O42   S    
C35   C43   A    
C43   C48   A    
C46   O14   S    
C3    C13   A    
C44   C47   A    
C24   O8    A    
C39   C45   A    
C40   C42   A    
C22   C67   S    
C69   O44   S    
C69   O43   D    
C41   C43   A    
C71   O48   S    
C18   C25   A    
C42   C44   A    
C36   O10   S    
C29   O20   S    
C70   O46   S    
C61   H22   S    
C66   H36   S    
C38   O12   S    
C45   C47   A    
C27   C34   A    
C15   C20   A    
O37   C65   S    
C46   C48   A    
O42   H40   S    
C47   C57   S    
C66   H37   S    
O13   C49   S    
O24   H16   S    
C65   H33   S    
C59   O30   S    
C2    O2    A    
O48   H43   S    
C5    C7    A    
C53   H9    S    
O14   C50   S    
C6    C8    A    
C25   C26   A    
O19   C53   S    
C52   O17   D    
C12   O38   S    
C32   C34   A    
C63   H28   S    
C32   N3    A    
C35   N1    A    
C54   H13   S    
C37   N1    A    
O8    Zn1   S    
O44   H41   S    
C58   O27   D    
C55   O22   S    
C33   C34   A    
C51   O16   S    
C57   O26   S    
C1    C16   S    
C30   O19   S    
C2    C15   S    
C9    C11   A    
C10   C12   A    
O2    Zn2   S    
C28   C56   S    
C4    C6    A    
C56   O24   S    
C12   C14   A    
C28   C33   A    
C20   C69   S    
C62   H24   S    
C50   H6    S    
C36   C44   A    
C63   H29   S    
C40   C46   A    
C17   C19   A    
C50   H4    S    
C54   H12   S    
O3    Zn2   S    
O1    Zn1   S    
C61   H21   S    
O30   H19   S    
C72   O50   S    
C18   C72   S    
C64   H31   S    
C21   C25   A    
C59   O29   D    
C8    C10   A    
C10   O36   S    
O5    Zn1   S    
O38   C66   S    
C3    C5    A    
C53   H11   S    
C52   O18   S    
O33   C61   S    
C61   H23   S    
C49   H3    S    
O36   C64   S    
C38   N2    A    
C9    O35   S    
O26   H17   S    
C31   C52   S    
C56   O23   D    
C28   C30   A    
C63   H27   S    
C1    O3    A    
C37   C39   A    
C17   C71   S    
O32   H20   S    
C54   H14   S    
C38   C40   A    
C11   C13   A    
O20   C54   S    
C58   O28   S    
C70   O45   D    
C35   O9    S    
C16   C19   A    
C7    C23   S    
C13   N2    S    
C8    C24   S    
C18   C20   A    
C4    C14   A    
O16   H7    S    
C14   N1    S    
C7    C9    A    
C24   O6    A    
C22   C26   A    
C57   O25   D    
C62   H25   S    
C49   H2    S    
C21   C68   S    
C2    O4    A    
C68   O41   D    
O28   H18   S    
C60   O31   D    
O34   C62   S    
C29   N4    A    
