data_mof_unit_25802.cif
_audit_creation_date              2012-12-10T17:42:16-0500
_audit_creation_method            fapswitch 2.2
_symmetry_space_group_name_H-M    P1
_symmetry_Int_Tables_number       1
_space_group_crystal_system       triclinic
_cell_length_a                    15.060068
_cell_length_b                    13.693023
_cell_length_c                    10.740982
_cell_angle_alpha                 90.12322
_cell_angle_beta                  89.561354
_cell_angle_gamma                 90.136863
_cell_volume                      2214.9060294

loop_
_atom_site_label
_atom_site_type_symbol
_atom_type_description
_atom_site_fract_x
_atom_site_fract_y
_atom_site_fract_z
_atom_type_partial_charge
C1    C     C_R   0.328681 0.500004 0.507098 0.807673
C2    C     C_3   0.498507 0.606831 0.928730 -0.386905
C3    C     C_R   0.815164 0.424546 0.441688 -0.248135
C4    C     C_R   0.767846 0.501400 0.496855 -0.070730
C5    C     C_R   0.812737 0.580489 0.550168 -0.255336
C6    C     C_R   0.905082 0.581716 0.552892 0.113372
C7    C     C_R   0.953139 0.504020 0.498992 0.074136
C8    C     C_R   0.907844 0.425966 0.440928 0.111250
C9    C     C_R   0.949937 0.659133 0.609366 -0.227667
C10   C     C_R   0.042017 0.657908 0.617496 -0.215274
C11   C     C_R   0.091534 0.578715 0.569704 0.103026
C12   C     C_R   0.499725 0.500002 0.259891 0.772803
C13   C     C_R   0.046364 0.503667 0.504676 0.016766
C14   C     C_R   0.093832 0.427083 0.447341 0.104870
C15   C     C_R   0.048479 0.351584 0.386166 -0.201672
C16   C     C_R   0.955954 0.350467 0.384142 -0.217518
C17   C     C_R   0.184586 0.571930 0.585864 0.116799
C18   C     C_R   0.231730 0.500208 0.516013 -0.113019
C19   C     C_R   0.185983 0.427745 0.450235 -0.285568
C20   C     C_R   0.446324 0.793387 0.581542 0.005705
C21   C     C_R   0.445820 0.206692 0.580982 0.005428
C22   C     C_R   0.553729 0.793282 0.418451 0.004291
C23   C     C_R   0.553975 0.206740 0.418770 0.003105
C24   C     C_R   0.555022 0.896380 0.416459 -0.005382
C25   C     C_R   0.555130 0.103659 0.416611 -0.004324
C26   C     C_R   0.671337 0.500190 0.498526 0.808139
C27   C     C_R   0.499890 0.948199 0.499784 0.086437
C28   C     C_R   0.499870 0.051846 0.499780 0.086921
C29   C     C_R   0.444858 0.896415 0.583239 -0.002992
C30   C     C_R   0.444623 0.103624 0.583007 -0.005508
C31   C     C_R   0.609898 0.948682 0.333566 -0.205711
C32   C     C_R   0.609992 0.051372 0.333693 -0.208019
C33   C     C_R   0.389783 0.051322 0.665941 -0.205820
C34   C     C_R   0.389946 0.948653 0.666120 -0.209031
C35   C     C_R   0.499603 0.500221 0.740339 0.774836
C36   C     C_3   0.421422 0.436152 0.070954 0.004669
C37   C     C_3   0.588566 0.452739 0.071075 -0.053268
C38   C     C_3   0.415562 0.447626 0.928057 -0.419578
C39   C     C_3   0.584480 0.448935 0.926195 -0.385273
C40   C     C_3   0.495334 0.606646 0.070997 -0.364774
C41   C     C_3   0.500430 0.500054 0.122133 0.094850
C42   C     C_3   0.499599 0.500650 0.878129 0.097014
Cu1   Cu    Cu3+1 0.499990 0.597420 0.500010 0.919384
Cu2   Cu    Cu3+1 0.499990 0.402580 0.500010 0.924303
H1    H     H_    0.073539 0.719840 0.661466 0.156101
H2    H     H_    0.222498 0.371489 0.400520 0.156363
H3    H     H_    0.084603 0.292723 0.341269 0.140129
H4    H     H_    0.922049 0.290683 0.338208 0.140639
H5    H     H_    0.404870 0.752662 0.645660 0.113887
H6    H     H_    0.403646 0.247623 0.644213 0.124619
H7    H     H_    0.595707 0.752320 0.354990 0.122978
H8    H     H_    0.596167 0.247718 0.355580 0.119852
H9    H     H_    0.652788 0.910194 0.268695 0.133850
H10   H     H_    0.652963 0.089874 0.268930 0.131917
H11   H     H_    0.346820 0.089794 0.730731 0.134109
H12   H     H_    0.347087 0.910118 0.731011 0.133499
H13   H     H_    0.440618 0.358498 0.086251 0.113234
H14   H     H_    0.591090 0.376128 0.105796 0.147483
H15   H     H_    0.408929 0.374125 0.884491 0.146574
H16   H     H_    0.584444 0.371257 0.895412 0.159835
H17   H     H_    0.355713 0.489802 0.901784 0.178995
H18   H     H_    0.643988 0.483813 0.883010 0.167065
H19   H     H_    0.434770 0.644792 0.103240 0.185349
H20   H     H_    0.551341 0.651473 0.106661 0.156268
H21   H     H_    0.439665 0.646851 0.892995 0.167582
H22   H     H_    0.558967 0.646730 0.896585 0.173727
H23   H     H_    0.779849 0.364350 0.398601 0.144541
H24   H     H_    0.775670 0.639918 0.592475 0.152044
H25   H     H_    0.913685 0.720210 0.648897 0.143759
N1    N     N_R   0.499930 0.743810 0.499950 -0.180822
N2    N     N_R   0.499930 0.256190 0.499950 -0.181745
O1    O     O_R   0.370250 0.582280 0.500040 -0.589435
O2    O     O_R   0.370250 0.417720 0.500040 -0.584879
O3    O     O_R   0.499970 0.582270 0.317700 -0.591553
O4    O     O_R   0.499970 0.417730 0.317700 -0.602280
O5    O     O_R   0.629730 0.582260 0.499980 -0.587774
O6    O     O_R   0.629730 0.417740 0.499980 -0.580122
O7    O     O_R   0.500000 0.582270 0.682320 -0.597034
O8    O     O_R   0.500000 0.417730 0.682320 -0.587466
C43   C     C_3   0.329442 0.442512 0.137557 -0.404546
C44   C     C_3   0.289819 0.544365 0.152371 -0.825551
H26   H     H_    0.324715 0.585538 0.226422 0.254272
H27   H     H_    0.292557 0.585035 0.063561 0.246964
H28   H     H_    0.219148 0.537706 0.181489 0.244211
H29   H     H_    0.281426 0.396702 0.085045 0.200078
H30   H     H_    0.334165 0.409242 0.231466 0.207467
C45   C     C_3   0.674621 0.504157 0.116813 -0.386380
C46   C     C_3   0.756555 0.439530 0.100263 -0.856522
H31   H     H_    0.748577 0.370867 0.154124 0.238822
H32   H     H_    0.767598 0.421411 0.000586 0.255119
H33   H     H_    0.816027 0.478713 0.135274 0.252270
H34   H     H_    0.685765 0.573628 0.065698 0.210160
H35   H     H_    0.669173 0.522332 0.217309 0.194962
C47   C     C_3   0.231035 0.634376 0.684291 -0.414102
C48   C     C_3   0.197560 0.611388 0.815905 -0.878131
H36   H     H_    0.126256 0.628470 0.828614 0.264746
H37   H     H_    0.207838 0.532902 0.837080 0.253986
H38   H     H_    0.235291 0.656201 0.883593 0.231545
H39   H     H_    0.303160 0.621054 0.688149 0.213792
H40   H     H_    0.222860 0.713190 0.663400 0.191280

loop_
_geom_bond_atom_site_label_1
_geom_bond_atom_site_label_2
_ccdc_geom_bond_type
C33   H11   S    
C45   C46   S    
C34   H12   S    
Cu1   O1    S    
C12   O3    A    
C27   C29   A    
C48   H36   S    
C24   C27   A    
C15   H3    S    
C2    H21   S    
C16   H4    S    
C6    C9    A    
C44   H26   S    
C19   H2    S    
C7    C8    A    
C25   C28   A    
C1    C18   S    
C20   H5    S    
C40   H19   S    
C21   N2    A    
Cu2   O6    S    
C9    H25   S    
C38   C42   S    
C5    C6    A    
C15   C16   A    
C43   H29   S    
Cu2   N2    S    
C18   C19   A    
C35   C42   S    
C43   H30   S    
C26   O5    A    
C9    C10   A    
C37   H14   S    
C38   H17   S    
Cu1   O3    S    
C8    C16   A    
C45   H34   S    
C20   N1    A    
C36   C41   S    
C47   C48   S    
C5    H24   S    
C32   H10   S    
C21   H6    S    
C44   H27   S    
C17   C18   A    
C39   C42   S    
C20   C29   A    
C48   H38   S    
C26   O6    A    
C1    O1    A    
C23   N2    A    
C3    C8    A    
C36   C43   S    
C4    C5    A    
C29   C34   A    
Cu1   O7    S    
Cu2   O4    S    
Cu1   Cu2   S    
C12   C41   S    
C31   C32   A    
C46   H33   S    
C47   H40   S    
C10   H1    S    
C33   C34   A    
C31   H9    S    
C40   C41   S    
C46   H32   S    
C36   H13   S    
Cu1   N1    S    
C22   C24   A    
C3    C4    A    
C44   H28   S    
Cu1   O5    S    
C39   H18   S    
C11   C17   A    
C30   C33   A    
C14   C19   A    
C37   C45   S    
Cu2   O8    S    
C3    H23   S    
C43   C44   S    
C2    H22   S    
C4    C26   S    
C48   H37   S    
C6    C7    A    
C21   C30   A    
C35   O7    A    
C40   H20   S    
C1    O2    A    
C36   C38   S    
C24   C31   A    
C28   C30   A    
C37   C39   S    
C11   C13   A    
C23   H8    S    
C47   H39   S    
C2    C42   S    
C39   H16   S    
C45   H35   S    
C35   O8    A    
C23   C25   A    
C37   C41   S    
Cu2   O2    S    
C10   C11   A    
C38   H15   S    
C2    C40   S    
C7    C13   A    
C46   H31   S    
C12   O4    A    
C27   C28   A    
C14   C15   A    
C17   C47   S    
C13   C14   A    
C22   N1    A    
C22   H7    S    
C25   C32   A    
