data_mof_unit_16074.cif
_audit_creation_date              2012-12-10T17:50:39-0500
_audit_creation_method            fapswitch 2.2
_symmetry_space_group_name_H-M    P1
_symmetry_Int_Tables_number       1
_space_group_crystal_system       triclinic
_cell_length_a                    15.706195
_cell_length_b                    10.634992
_cell_length_c                    9.934597
_cell_angle_alpha                 89.851251
_cell_angle_beta                  89.907526
_cell_angle_gamma                 91.697012
_cell_volume                      1658.69219633

loop_
_atom_site_label
_atom_site_type_symbol
_atom_type_description
_atom_site_fract_x
_atom_site_fract_y
_atom_site_fract_z
_atom_type_partial_charge
C1    C     C_R   0.501425 0.260900 0.500189 0.854689
C2    C     C_R   0.719605 0.073099 0.650258 -0.136756
C3    C     C_R   0.719371 0.942289 0.649054 -0.140899
C4    C     C_R   0.338029 0.499550 0.500092 0.897233
C5    C     C_R   0.648851 0.874368 0.599748 -0.176153
C6    C     C_R   0.576598 0.937093 0.551444 0.079960
C7    C     C_R   0.577059 0.068791 0.552464 0.097765
C8    C     C_R   0.505577 0.128972 0.500358 -0.098162
C9    C     C_R   0.436066 0.063568 0.445811 -0.250209
C10   C     C_R   0.434601 0.934654 0.445259 -0.006918
C11   C     C_R   0.504261 0.872124 0.499142 -0.148938
C12   C     C_3   0.082589 0.497730 0.500736 0.202858
C13   C     C_R   0.389046 0.334069 0.140465 -0.166280
C14   C     C_R   0.334750 0.251616 0.070929 -0.240064
C15   C     C_R   0.334657 0.251341 0.931290 0.026374
C16   C     C_R   0.501004 0.739259 0.499779 0.876033
C17   C     C_R   0.389122 0.333985 0.860889 -0.194638
C18   C     C_R   0.445400 0.418145 0.928154 0.150871
C19   C     C_R   0.445396 0.418199 0.072566 0.173766
C20   C     C_R   0.552209 0.578350 0.071058 -0.104805
C21   C     C_R   0.552191 0.578321 0.928089 -0.102225
C22   C     C_R   0.661976 0.500389 0.499930 0.874869
C23   C     C_3   0.973738 0.593476 0.577095 -0.167520
C24   C     C_3   0.969340 0.388188 0.550771 -0.162513
C25   C     C_3   0.026200 0.402523 0.424023 -0.163277
C26   C     C_1   0.248977 0.498654 0.500389 -0.162344
C27   C     C_1   0.751002 0.499701 0.499861 -0.189721
C28   C     C_3   0.027561 0.483388 0.627493 -0.158732
C29   C     C_1   0.360070 0.868448 0.392311 0.183518
C30   C     C_1   0.278280 0.165987 0.859387 0.155014
C31   C     C_3   0.917339 0.498291 0.500371 0.203936
C32   C     C_3   0.030557 0.607798 0.450362 -0.154560
C33   C     C_3   0.972380 0.512614 0.373640 -0.162129
C34   C     C_1   0.173568 0.498008 0.500636 -0.067686
C35   C     C_1   0.826382 0.498981 0.500062 -0.081993
C36   C     C_R   0.649347 0.136350 0.602043 -0.165003
H1    H     H_    0.049873 0.324508 0.361506 0.136273
H2    H     H_    0.947635 0.524568 0.269919 0.136851
H3    H     H_    0.057799 0.697513 0.409350 0.144430
H4    H     H_    0.950063 0.671517 0.639582 0.133282
H5    H     H_    0.052346 0.471410 0.731189 0.139533
H6    H     H_    0.382301 0.113650 0.405886 0.136808
H7    H     H_    0.652707 0.237985 0.602665 0.145588
H8    H     H_    0.774626 0.125772 0.687660 0.133533
H9    H     H_    0.774220 0.893254 0.685529 0.132527
H10   H     H_    0.652103 0.772973 0.598564 0.136114
H11   H     H_    0.594902 0.642469 0.124288 0.146969
H12   H     H_    0.384815 0.329134 0.247223 0.204093
H13   H     H_    0.292507 0.187975 0.126670 0.154228
H14   H     H_    0.385610 0.329969 0.754023 0.205148
H15   H     H_    0.594859 0.642439 0.874198 0.145458
H16   H     H_    0.942043 0.298493 0.591769 0.132369
N1    N     N_R   0.499210 0.498800 0.142780 -0.118513
N2    N     N_R   0.499180 0.498720 0.857170 -0.116083
N3    N     N_1   0.300521 0.815502 0.350041 -0.206350
N4    N     N_1   0.233056 0.097472 0.801478 -0.209738
O1    O     O_R   0.500000 0.316780 0.614690 -0.638902
O2    O     O_R   0.499990 0.316750 0.385360 -0.631426
O3    O     O_R   0.376780 0.500000 0.614650 -0.629248
O4    O     O_R   0.376770 0.499980 0.385310 -0.625961
O5    O     O_R   0.500010 0.683250 0.614640 -0.613146
O6    O     O_R   0.500000 0.683220 0.385310 -0.608327
O7    O     O_R   0.623230 0.500020 0.614690 -0.624453
O8    O     O_R   0.623220 0.500000 0.385350 -0.606885
Zn1   Zn    Zn3+2 0.500010 0.500020 0.653130 0.939952
Zn2   Zn    Zn3+2 0.499990 0.499980 0.346870 0.950516

loop_
_geom_bond_atom_site_label_1
_geom_bond_atom_site_label_2
_ccdc_geom_bond_type
C17   H14   S    
C24   H16   S    
C13   H12   S    
C4    C26   S    
O7    Zn1   S    
C22   O8    A    
C6    C7    A    
C1    O1    A    
C1    C8    S    
C5    H10   S    
C33   H2    S    
C12   C25   S    
C26   C34   T    
C25   H1    S    
C32   C33   S    
C4    O4    A    
C31   C33   S    
C17   C18   A    
C22   O7    A    
C24   C31   S    
O4    Zn2   S    
C7    C8    A    
N2    Zn1   S    
C23   C28   S    
C12   C32   S    
N1    Zn2   S    
C10   C29   S    
C19   N1    A    
C9    H6    S    
C21   N2    A    
C16   O6    A    
C12   C28   S    
C16   O5    A    
C4    O3    A    
O2    Zn2   S    
C2    C3    A    
C18   N2    A    
C3    C5    A    
C22   C27   S    
C5    C6    A    
C31   C35   S    
C11   C16   S    
C10   C11   A    
O6    Zn2   S    
C12   C34   S    
C23   H4    S    
C14   H13   S    
C9    C10   A    
O5    Zn1   S    
C28   H5    S    
C21   H15   S    
C2    C36   A    
C24   C25   S    
C15   C30   S    
C18   C19   A    
C7    C36   A    
C32   H3    S    
C25   C33   S    
C6    C11   A    
C15   C17   A    
C13   C19   A    
C14   C15   A    
C8    C9    A    
C36   H7    S    
C29   N3    T    
C13   C14   A    
C27   C35   T    
C20   C21   A    
C1    O2    A    
C30   N4    T    
C3    H9    S    
O3    Zn1   S    
C20   H11   S    
C24   C28   S    
C23   C32   S    
C2    H8    S    
C20   N1    A    
O1    Zn1   S    
C23   C31   S    
O8    Zn2   S    
