data_mof_unit_47950.cif
_audit_creation_date              2012-12-10T17:18:13-0500
_audit_creation_method            fapswitch 2.2
_symmetry_space_group_name_H-M    P1
_symmetry_Int_Tables_number       1
_space_group_crystal_system       triclinic
_cell_length_a                    10.324579
_cell_length_b                    10.385322
_cell_length_c                    14.994778
_cell_angle_alpha                 92.154029
_cell_angle_beta                  81.220204
_cell_angle_gamma                 94.591285
_cell_volume                      1583.33734056

loop_
_atom_site_label
_atom_site_type_symbol
_atom_type_description
_atom_site_fract_x
_atom_site_fract_y
_atom_site_fract_z
_atom_type_partial_charge
C1    C     C_R   0.553967 0.734505 0.490128 0.947637
C2    C     C_2   0.069492 0.480475 0.498466 0.323374
C3    C     C_R   0.499523 0.498719 0.673018 0.872800
C4    C     C_R   0.499952 0.499617 0.327008 0.911521
C5    C     C_R   0.607338 0.457025 0.173086 -0.151688
C6    C     C_R   0.389040 0.533926 0.827081 -0.160863
C7    C     C_R   0.499816 0.499329 0.231032 -0.075049
C8    C     C_R   0.497527 0.493662 0.769077 -0.066669
C9    C     C_R   0.391664 0.540319 0.197874 -0.168081
C10   C     C_R   0.603383 0.447916 0.802335 -0.182807
C11   C     C_R   0.390534 0.542618 0.105489 -0.026709
C12   C     C_R   0.445995 0.265146 0.501927 0.944854
C13   C     C_R   0.603128 0.442854 0.894795 -0.019247
C14   C     C_R   0.497876 0.494965 0.046525 -0.008148
C15   C     C_R   0.495776 0.490415 0.953793 -0.005564
C16   C     C_R   0.607494 0.452283 0.080552 -0.020976
C17   C     C_R   0.386722 0.534219 0.919731 -0.018196
C18   C     C_R   0.282880 0.587961 0.071058 0.396609
C19   C     C_R   0.709854 0.395730 0.929324 0.395557
C20   C     C_R   0.279519 0.580238 0.978516 0.157598
C21   C     C_R   0.713585 0.404063 0.021844 0.160121
C22   C     C_2   0.579438 0.870714 0.469583 -0.092375
C23   C     C_2   0.420029 0.126959 0.488186 -0.081837
C24   C     C_2   0.497908 0.925068 0.422012 0.307683
C25   C     C_2   0.497830 0.066057 0.421911 0.313662
C26   C     C_2   0.926358 0.507479 0.511272 0.328269
H1    H     H_    0.689097 0.425127 0.201272 0.192836
H2    H     H_    0.814921 0.377737 0.351019 0.396001
H3    H     H_    0.308460 0.568419 0.798926 0.193069
H4    H     H_    0.308269 0.569181 0.244943 0.198423
H5    H     H_    0.686443 0.418369 0.755309 0.185168
H6    H     H_    0.215897 0.698810 0.171032 0.340365
H7    H     H_    0.775645 0.285409 0.828642 0.338235
H8    H     H_    0.632055 0.073976 0.316232 0.354344
H9    H     H_    0.357427 0.906968 0.349039 0.354061
H10   H     H_    0.209036 0.713458 0.581948 0.395183
I1    I     I_    0.110534 0.646235 0.932142 -0.157997
I2    I     I_    0.881381 0.335812 0.068392 -0.154689
I3    I     I_    0.273002 0.028797 0.581910 -0.234550
I4    I     I_    0.733648 0.978103 0.525439 -0.218874
I5    I     I_    0.119549 0.303191 0.428071 -0.155855
I6    I     I_    0.857550 0.629914 0.624575 -0.161419
N1    N     N_2   0.842700 0.448880 0.462930 0.014445
N2    N     N_2   0.157300 0.551120 0.537070 0.009821
O1    O     O_R   0.431060 0.692470 0.507460 -0.574778
O2    O     O_3   0.812625 0.342078 0.874581 -0.704034
O3    O     O_3   0.582939 0.135934 0.357719 -0.748420
O4    O     O_3   0.408845 0.849083 0.378698 -0.735222
O5    O     O_3   0.132642 0.674814 0.555350 -0.637993
O6    O     O_3   0.891712 0.413844 0.378322 -0.652647
O7    O     O_R   0.568940 0.307530 0.492540 -0.563781
O8    O     O_R   0.651120 0.659650 0.483670 -0.588460
O9    O     O_R   0.348880 0.340350 0.516330 -0.602501
O10   O     O_R   0.389960 0.516440 0.644050 -0.622896
O11   O     O_R   0.610040 0.483560 0.355950 -0.623696
O12   O     O_R   0.610030 0.483620 0.620260 -0.621208
O13   O     O_R   0.389970 0.516380 0.379740 -0.594285
O14   O     O_3   0.179363 0.640271 0.125878 -0.698611
Zn1   Zn    Zn3+2 0.353060 0.521920 0.515880 1.048778
Zn2   Zn    Zn3+2 0.646940 0.478080 0.484120 1.049710

loop_
_geom_bond_atom_site_label_1
_geom_bond_atom_site_label_2
_ccdc_geom_bond_type
C4    O13   A    
N2    O5    S    
C11   C18   A    
C2    I5    S    
C16   C21   A    
H7    O2    S    
C14   C16   A    
C5    C7    A    
C3    O12   A    
C25   O3    S    
C12   O9    A    
H6    O14   S    
C22   I4    S    
C6    H3    S    
O7    Zn2   S    
C13   C15   A    
C1    O8    A    
O9    Zn1   S    
C19   O2    S    
C1    C22   S    
N1    O6    S    
O11   Zn2   S    
C20   I1    S    
C9    C11   A    
C12   C23   S    
C1    O1    A    
N1    Zn2   S    
C4    C7    S    
C23   I3    S    
H9    O4    S    
C9    H4    S    
C8    C10   A    
C19   C21   A    
C26   N1    D    
C10   H5    S    
C18   C20   A    
O10   Zn1   S    
C23   C25   D    
C4    O11   A    
C3    O10   A    
C22   C24   D    
O13   Zn1   S    
C13   C19   A    
N2    Zn1   S    
C24   O4    S    
C7    C9    A    
C21   I2    S    
C12   O7    A    
C24   C25   S    
C26   I6    S    
C2    C26   S    
C3    C8    S    
C11   C14   A    
C15   C17   A    
C6    C17   A    
C14   C15   A    
O1    Zn1   S    
C5    C16   A    
C6    C8    A    
H8    O3    S    
O8    Zn2   S    
C5    H1    S    
H2    O6    S    
C17   C20   A    
C18   O14   S    
H10   O5    S    
O12   Zn2   S    
C2    N2    D    
C10   C13   A    
