data_mof_unit_44149.cif
_audit_creation_date              2012-12-10T17:16:36-0500
_audit_creation_method            fapswitch 2.2
_symmetry_space_group_name_H-M    P1
_symmetry_Int_Tables_number       1
_space_group_crystal_system       triclinic
_cell_length_a                    10.248001
_cell_length_b                    10.668885
_cell_length_c                    10.847961
_cell_angle_alpha                 91.177753
_cell_angle_beta                  96.116572
_cell_angle_gamma                 79.384288
_cell_volume                      1159.12249006

loop_
_atom_site_label
_atom_site_type_symbol
_atom_type_description
_atom_site_fract_x
_atom_site_fract_y
_atom_site_fract_z
_atom_type_partial_charge
C1    C     C_R   0.442908 0.510603 0.268084 0.896056
C2    C     C_R   0.493300 0.740488 0.485159 0.886250
C3    C     C_R   0.751295 0.065224 0.470890 -0.131939
C4    C     C_R   0.249065 0.935970 0.523975 -0.129502
C5    C     C_R   0.839829 0.991070 0.397722 -0.158856
C6    C     C_R   0.160529 0.009339 0.597789 -0.185466
C7    C     C_R   0.803767 0.885750 0.335408 -0.011948
C8    C     C_R   0.197869 0.112409 0.663266 -0.167258
C9    C     C_R   0.683494 0.849705 0.353678 -0.083035
C10   C     C_R   0.318674 0.148136 0.646157 -0.137616
C11   C     C_R   0.595166 0.921017 0.432190 0.067613
C12   C     C_R   0.557027 0.488584 0.732154 0.906268
C13   C     C_R   0.406358 0.078068 0.566449 0.088340
C14   C     C_R   0.621933 0.037811 0.478911 0.106348
C15   C     C_R   0.378994 0.962250 0.518271 0.101274
C16   C     C_R   0.482219 0.877322 0.466556 -0.256028
C17   C     C_R   0.518677 0.122310 0.531643 -0.249640
C18   C     C_2   0.418628 0.371864 0.899716 0.413541
C19   C     C_2   0.561776 0.642649 0.096294 0.434436
C20   C     C_2   0.901124 0.530492 0.652682 0.531832
C21   C     C_2   0.128717 0.359218 0.434908 0.510260
C22   C     C_2   0.859060 0.438856 0.319731 0.592503
C23   C     C_2   0.408454 0.502647 0.136685 -0.392924
C24   C     C_2   0.107299 0.675658 0.595597 0.528596
C25   C     C_2   0.590863 0.493111 0.864414 -0.427000
C26   C     C_2   0.490349 0.535435 0.059644 -0.002376
C27   C     C_2   0.502693 0.468640 0.939422 0.022996
C28   C     C_2   0.076875 0.475722 0.503620 0.000940
C29   C     C_2   0.932627 0.489887 0.526895 -0.036020
C30   C     C_R   0.506775 0.259364 0.514197 0.875850
H1    H     H_    0.130657 0.168389 0.722562 0.152734
H2    H     H_    0.336395 0.442146 0.109478 0.227849
H3    H     H_    0.466688 0.278179 0.871182 0.028766
H4    H     H_    0.507282 0.728028 0.136303 0.020106
H5    H     H_    0.954373 0.476747 0.732302 0.014625
H6    H     H_    0.104397 0.268919 0.459426 -0.008832
H7    H     H_    0.814821 0.368976 0.263899 0.045230
H8    H     H_    0.167192 0.717763 0.667714 0.064595
H9    H     H_    0.871102 0.829131 0.276629 0.179646
H10   H     H_    0.787766 0.140914 0.523700 0.149887
H11   H     H_    0.213072 0.861485 0.468903 0.171162
H12   H     H_    0.936379 0.015547 0.389206 0.133769
H13   H     H_    0.063257 0.985908 0.604690 0.175318
H14   H     H_    0.660175 0.765694 0.305972 0.164397
H15   H     H_    0.342209 0.231636 0.694441 0.159843
H16   H     H_    0.671590 0.542623 0.894267 0.233723
N1    N     N_2   0.157300 0.551390 0.551120 -0.181894
N2    N     N_2   0.842700 0.448610 0.448880 -0.233281
O1    O     O_R   0.568940 0.489660 0.307530 -0.631899
O2    O     O_2   0.681189 0.633949 0.089653 -0.555675
O3    O     O_2   0.823539 0.629415 0.668774 -0.490050
O4    O     O_2   0.185210 0.364741 0.342398 -0.508215
O5    O     O_2   0.913377 0.513629 0.269076 -0.518894
O6    O     O_2   0.003965 0.739673 0.547398 -0.579238
O7    O     O_R   0.431060 0.510340 0.692470 -0.605095
O8    O     O_R   0.348880 0.522640 0.340350 -0.538898
O9    O     O_R   0.651120 0.477360 0.659650 -0.596872
O10   O     O_R   0.610030 0.300280 0.483580 -0.645507
O11   O     O_R   0.389970 0.699720 0.516420 -0.650047
O12   O     O_R   0.389970 0.333270 0.516400 -0.601028
O13   O     O_R   0.610030 0.666730 0.483600 -0.551709
O14   O     O_2   0.296951 0.398373 0.892929 -0.585624
Zn1   Zn    Zn3+2 0.646940 0.477980 0.478080 0.973226
Zn2   Zn    Zn3+2 0.353060 0.522020 0.521920 0.994387

loop_
_geom_bond_atom_site_label_1
_geom_bond_atom_site_label_2
_ccdc_geom_bond_type
N1    Zn2   S    
C24   H8    S    
C5    H12   S    
O8    Zn2   S    
C28   N1    D    
C1    C23   S    
O1    Zn1   S    
C25   C27   D    
C2    C16   S    
C11   C16   A    
C22   N2    S    
C14   C17   A    
C2    O13   A    
C13   C17   A    
C12   C25   S    
O12   Zn2   S    
C23   H2    S    
C10   H15   S    
C13   C15   A    
C26   C27   S    
C10   C13   A    
C21   H6    S    
C21   C28   S    
O7    Zn2   S    
C17   C30   S    
C24   N1    S    
C19   O2    D    
O11   Zn2   S    
C3    C14   A    
C4    C15   A    
C12   O9    A    
C30   O10   A    
C8    C10   A    
C28   C29   S    
C8    H1    S    
C1    O8    A    
C3    H10   S    
O9    Zn1   S    
C20   O3    D    
C5    C7    A    
C20   C29   S    
C9    C11   A    
C18   H3    S    
C12   O7    A    
C4    H11   S    
C29   N2    D    
C24   O6    D    
C15   C16   A    
C7    C9    A    
O10   Zn1   S    
C22   O5    D    
C4    C6    A    
C23   C26   D    
C11   C14   A    
O13   Zn1   S    
C19   C26   S    
C7    H9    S    
C6    H13   S    
C18   O14   D    
C9    H14   S    
C6    C8    A    
C3    C5    A    
C2    O11   A    
C22   H7    S    
C1    O1    A    
C25   H16   S    
C20   H5    S    
C21   O4    D    
C18   C27   S    
N2    Zn1   S    
C19   H4    S    
C30   O12   A    
