data_mof_unit_41291.cif
_audit_creation_date              2012-12-11T14:06:41-0500
_audit_creation_method            fapswitch 2.2
_symmetry_space_group_name_H-M    P1
_symmetry_Int_Tables_number       1
_space_group_crystal_system       triclinic
_cell_length_a                    6.932671
_cell_length_b                    17.399128
_cell_length_c                    24.076247
_cell_angle_alpha                 104.598036
_cell_angle_beta                  90.498834
_cell_angle_gamma                 89.972322
_cell_volume                      2810.27266459

loop_
_atom_site_label
_atom_site_type_symbol
_atom_type_description
_atom_site_fract_x
_atom_site_fract_y
_atom_site_fract_z
_atom_type_partial_charge
O1    O     O_R   0.494290 0.391990 0.999150 -0.536856
O2    O     O_R   0.827170 0.534410 0.082350 -0.526463
O3    O     O_R   0.994360 0.608010 0.000850 -0.524660
C1    C     C_R   0.658930 0.548197 0.105956 0.746365
O4    O     O_R   0.824210 0.388010 0.004470 -0.547240
O5    O     O_R   0.991370 0.460560 0.922410 -0.554042
C2    C     C_R   0.653794 0.354768 0.000848 0.751076
O6    O     O_R   0.497270 0.539440 0.077590 -0.546265
O7    O     O_3   0.659770 0.523970 0.973170 -0.347004
V1    V     V_3+5 0.935840 0.495550 0.004980 1.537728
O8    O     O_R   0.320910 0.465590 0.917650 -0.519331
C3    C     C_R   0.150901 0.451328 0.894105 0.782756
O9    O     O_R   0.323870 0.611990 0.995530 -0.505220
C4    C     C_R   0.153775 0.645424 0.000019 0.779468
V2    V     V_3+5 0.435470 0.504450 0.995020 1.594763
O10   O     O_3   0.161670 0.476030 0.026830 -0.379481
C5    C     C_2   0.135488 0.733038 0.009845 -0.280955
C6    C     C_2   0.977914 0.767136 0.990744 -0.259328
C7    C     C_R   0.223843 0.282020 0.621073 0.631853
N1    N     N_R   0.079590 0.329771 0.648988 -0.529035
C8    C     C_R   0.927188 0.350912 0.619348 0.706082
C9    C     C_R   0.918653 0.326493 0.558353 -0.106387
C10   C     C_R   0.062954 0.273760 0.529567 0.004720
C11   C     C_R   0.216215 0.251747 0.561186 -0.056679
C12   C     C_R   0.769863 0.350386 0.524964 -0.025722
C13   C     C_R   0.760290 0.316902 0.465603 -0.158506
C14   C     C_R   0.901216 0.263946 0.437283 -0.014119
C15   C     C_R   0.054765 0.242897 0.469040 -0.061071
C16   C     C_R   0.198389 0.190080 0.440381 -0.136150
C17   C     C_R   0.346692 0.166129 0.473228 0.467348
C18   C     C_R   0.357748 0.199203 0.532595 -0.214007
C19   C     C_R   0.892080 0.231934 0.377456 0.661142
N2    N     N_R   0.033369 0.182000 0.349887 -0.554119
C20   C     C_R   0.186385 0.161772 0.379848 0.649710
O11   O     O_2   0.373632 0.263339 0.651361 -0.507631
O12   O     O_2   0.782691 0.393338 0.649276 -0.506937
H1    H     H_    0.644773 0.334944 0.440988 0.182656
O13   O     O_2   0.741538 0.249817 0.347115 -0.517726
O14   O     O_2   0.326064 0.114537 0.350989 -0.449756
H2    H     H_    0.475964 0.181510 0.556360 0.194450
C21   C     C_R   0.970777 0.065768 0.267317 -0.004448
C22   C     C_R   0.951573 0.032513 0.207192 -0.174465
C23   C     C_R   0.976471 0.081717 0.168911 -0.206518
C24   C     C_R   0.018882 0.162987 0.190912 0.401796
C25   C     C_R   0.040271 0.194680 0.250257 -0.151918
H3    H     H_    0.076246 0.256913 0.266611 0.156551
C26   C     C_R   0.015167 0.147138 0.288675 0.241789
C27   C     C_R   0.144570 0.440361 0.733468 0.434997
C28   C     C_R   0.159520 0.472688 0.793577 -0.142608
C29   C     C_R   0.136641 0.422054 0.830816 -0.172089
C30   C     C_R   0.079912 0.343006 0.807855 -0.257692
H4    H     H_    0.052260 0.306176 0.837043 0.178836
C31   C     C_R   0.051435 0.311676 0.748521 -0.043550
C32   C     C_R   0.091346 0.360308 0.710755 0.218748
C33   C     C_R   0.680683 0.848998 0.620044 0.723506
N3    N     N_R   0.518729 0.834326 0.647884 -0.552958
C34   C     C_R   0.372016 0.788150 0.618891 0.708150
C35   C     C_R   0.387098 0.751804 0.559444 -0.066649
C36   C     C_R   0.552473 0.767505 0.529798 -0.056562
C37   C     C_R   0.697227 0.819681 0.559575 -0.097133
C38   C     C_R   0.241976 0.700365 0.528844 0.435921
C39   C     C_R   0.259727 0.667884 0.469613 -0.157066
C40   C     C_R   0.423648 0.682143 0.440017 -0.043831
C41   C     C_R   0.571706 0.731457 0.470161 -0.060351
C42   C     C_R   0.738068 0.744762 0.440507 -0.133876
C43   C     C_R   0.876982 0.800667 0.469471 0.391836
C44   C     C_R   0.854250 0.839620 0.528131 -0.079678
C45   C     C_R   0.440946 0.649266 0.380416 0.723780
N4    N     N_R   0.605006 0.661077 0.352350 -0.548632
C46   C     C_R   0.755640 0.704562 0.381658 0.650416
O15   O     O_2   0.826400 0.890333 0.651277 -0.481658
O16   O     O_2   0.213568 0.776770 0.647966 -0.465517
H5    H     H_    0.143155 0.631304 0.446931 0.183063
O17   O     O_2   0.294839 0.606020 0.350734 -0.491768
O18   O     O_2   0.920885 0.709200 0.353518 -0.458488
C47   C     C_R   0.604337 0.687223 0.255627 -0.049619
C48   C     C_R   0.628548 0.660756 0.195175 -0.109331
C49   C     C_R   0.651048 0.578920 0.169311 -0.119951
C50   C     C_R   0.658958 0.525049 0.203734 -0.243610
H6    H     H_    0.678804 0.462570 0.183170 0.144068
C51   C     C_R   0.645986 0.550496 0.263910 0.029578
C52   C     C_R   0.615680 0.632216 0.290278 0.238628
C53   C     C_R   0.578528 0.822313 0.746977 -0.177419
C54   C     C_R   0.553905 0.850480 0.806786 0.335309
C55   C     C_R   0.466419 0.924410 0.830241 -0.191970
C56   C     C_R   0.398509 0.970388 0.793195 -0.170766
C57   C     C_R   0.415262 0.940633 0.732651 -0.048298
C58   C     C_R   0.504641 0.866187 0.709571 0.204658
C59   C     C_2   0.638026 0.269573 0.000700 -0.408738
H7    H     H_    0.771875 0.239241 0.005320 0.182276
C60   C     C_2   0.467634 0.228956 0.996328 -0.183940
O19   O     O_R   0.618210 0.960470 0.922400 -0.525573
O20   O     O_R   0.291310 0.111960 0.995450 -0.528311
O21   O     O_R   0.124210 0.039530 0.077580 -0.527618
C61   C     C_R   0.460586 0.144817 0.998365 0.708688
O22   O     O_R   0.288310 0.965490 0.917650 -0.531861
O23   O     O_R   0.121180 0.892010 0.999220 -0.544820
C62   C     C_R   0.456861 0.953332 0.893905 0.772395
O24   O     O_R   0.621230 0.107990 0.000760 -0.551871
O25   O     O_3   0.455770 0.976060 0.026840 -0.368950
V3    V     V_3+5 0.179680 0.004440 0.995020 1.587823
O26   O     O_R   0.791670 0.888040 0.004570 -0.532827
C63   C     C_R   0.961456 0.854565 0.999637 0.738263
O27   O     O_R   0.794680 0.034510 0.082370 -0.536289
C64   C     C_R   0.964309 0.049363 0.105820 0.793494
V4    V     V_3+5 0.680070 0.995560 0.005010 1.560797
O28   O     O_3   0.953840 0.023940 0.973160 -0.366916
C65   C     C_2   0.274774 0.782537 0.050404 0.848561
O29   O     O_2   0.217436 0.826748 0.094980 -0.528470
O30   O     O_R   0.469072 0.781823 0.036424 -0.631312
H8    H     H_    0.544766 0.824146 0.064821 0.327774
O31   O     O_3   0.169579 0.488317 0.696142 -0.534806
C66   C     C_3   0.367941 0.492051 0.684917 -0.082797
H9    H     H_    0.388974 0.533541 0.657296 0.191206
H10   H     H_    0.422312 0.432896 0.661362 0.175775
H11   H     H_    0.454001 0.515241 0.724888 0.143508
C67   C     C_2   0.184588 0.559975 0.815925 0.759643
O32   O     O_2   0.271476 0.587617 0.860898 -0.582266
O33   O     O_R   0.106362 0.610840 0.785034 -0.596473
H12   H     H_    0.127687 0.668877 0.804508 0.324420
C68   C     C_2   0.970975 0.229746 0.728181 0.847472
O34   O     O_2   0.926431 0.202636 0.677798 -0.545395
O35   O     O_R   0.939369 0.184093 0.767522 -0.647969
H13   H     H_    0.875096 0.131290 0.749416 0.346109
O36   O     O_3   0.074927 0.686044 0.555636 -0.539505
C69   C     C_3   0.085502 0.609363 0.565036 -0.077307
H14   H     H_    0.960060 0.600989 0.591193 0.231263
H15   H     H_    0.218271 0.601890 0.589513 0.135191
H16   H     H_    0.077805 0.562728 0.523876 0.107204
O37   O     O_3   0.037350 0.817742 0.440767 -0.522652
C70   C     C_3   0.991758 0.880159 0.415239 -0.064415
H17   H     H_    0.867226 0.865021 0.385001 0.139554
H18   H     H_    0.118439 0.890593 0.390350 0.224092
H19   H     H_    0.961901 0.936343 0.448005 0.064523
C71   C     C_2   0.982658 0.908084 0.552867 0.871179
O38   O     O_2   0.157833 0.900554 0.549832 -0.542791
O39   O     O_R   0.901287 0.982736 0.575865 -0.634613
H20   H     H_    0.001649 0.026475 0.585612 0.305706
C72   C     C_2   0.571673 0.772654 0.283566 0.855418
O40   O     O_2   0.440528 0.792291 0.317872 -0.532610
O41   O     O_R   0.691994 0.830481 0.271223 -0.633079
H21   H     H_    0.652858 0.886243 0.292338 0.319369
C73   C     C_2   0.845738 0.718308 0.947575 0.814573
O42   O     O_2   0.703363 0.687883 0.962617 -0.513645
O43   O     O_R   0.890263 0.704530 0.889519 -0.660360
H22   H     H_    0.798564 0.665425 0.864007 0.316493
C74   C     C_2   0.635998 0.717772 0.158600 0.796872
O44   O     O_2   0.517227 0.771060 0.164345 -0.503802
O45   O     O_R   0.781453 0.710242 0.117695 -0.662367
H23   H     H_    0.780064 0.754273 0.097160 0.307316
C75   C     C_2   0.667854 0.490209 0.297773 0.817508
O46   O     O_2   0.715457 0.509934 0.348409 -0.547346
O47   O     O_R   0.637358 0.409852 0.271164 -0.672344
H24   H     H_    0.657765 0.374450 0.298297 0.327182
C76   C     C_2   0.682467 0.746349 0.723876 0.918934
O48   O     O_2   0.610239 0.694823 0.685294 -0.533616
O49   O     O_R   0.862966 0.732470 0.745689 -0.596093
H25   H     H_    0.916308 0.780373 0.774916 0.295129
O50   O     O_3   0.613615 0.805019 0.843254 -0.557674
C77   C     C_3   0.460073 0.754524 0.849003 -0.184356
H26   H     H_    0.317952 0.785449 0.855528 0.117526
H27   H     H_    0.485946 0.732080 0.887492 0.211191
H28   H     H_    0.454427 0.702736 0.811046 0.159342
C78   C     C_2   0.325338 0.052218 0.817549 0.817241
O51   O     O_2   0.191295 0.063754 0.851270 -0.534824
O52   O     O_R   0.408295 0.115974 0.800750 -0.644649
H29   H     H_    0.345488 0.168610 0.819640 0.326468
C79   C     C_2   0.336112 0.986800 0.693395 0.899827
O53   O     O_2   0.426347 0.992178 0.651127 -0.526201
O54   O     O_R   0.158534 0.025076 0.705340 -0.632396
H30   H     H_    0.125634 0.058440 0.677695 0.319230
C80   C     C_2   0.279049 0.265093 0.988438 0.839678
O55   O     O_2   0.162292 0.278574 0.027441 -0.563555
O56   O     O_R   0.233404 0.280910 0.935821 -0.666889
H31   H     H_    0.098580 0.303177 0.935309 0.275479
C81   C     C_2   0.628385 0.413874 0.548288 0.797519
O57   O     O_2   0.683241 0.478224 0.577666 -0.544021
O58   O     O_R   0.433558 0.401862 0.533087 -0.673770
H32   H     H_    0.351085 0.449916 0.550358 0.279120
O59   O     O_3   0.481766 0.109984 0.447852 -0.518099
C82   C     C_3   0.428244 0.036504 0.458160 -0.087597
H33   H     H_    0.526598 0.989617 0.434473 0.151286
H34   H     H_    0.279122 0.019124 0.442413 0.120234
H35   H     H_    0.441638 0.037937 0.504496 0.145092
C83   C     C_2   0.935504 0.018071 0.309121 0.804335
O60   O     O_2   0.036076 0.960432 0.309100 -0.521090
O61   O     O_R   0.793894 0.042225 0.350758 -0.626748
H36   H     H_    0.789569 0.007329 0.378576 0.280749
C84   C     C_2   0.903438 0.947152 0.184565 0.847195
O62   O     O_2   0.762773 0.927464 0.153255 -0.553315
O63   O     O_R   0.019483 0.889360 0.199035 -0.576623
H37   H     H_    0.969392 0.833550 0.182614 0.350395
O64   O     O_3   0.049753 0.210983 0.153967 -0.547033
C85   C     C_3   0.878328 0.252986 0.149954 -0.184551
H38   H     H_    0.839255 0.292959 0.192148 0.164285
H39   H     H_    0.756910 0.211785 0.132620 0.123690
H40   H     H_    0.901694 0.290759 0.119748 0.182901

loop_
_geom_bond_atom_site_label_1
_geom_bond_atom_site_label_2
_ccdc_geom_bond_type
V3    O28   S    
C85   H39   S    
C57   C58   A    
O21   C64   A    
C69   H14   S    
C76   O49   S    
C67   O32   D    
C21   C22   A    
O2    C1    A    
C7    N1    A    
C22   C84   S    
O45   H23   S    
C33   N3    A    
C70   H19   S    
O27   V4    S    
O58   H32   S    
C34   C35   A    
O19   C62   A    
O35   H13   S    
C8    O12   S    
C25   H3    S    
C18   H2    S    
C27   C32   A    
C15   C16   A    
C24   O64   S    
O49   H25   S    
C60   C80   S    
C53   C54   A    
C8    C9    A    
C6    C73   S    
C74   O45   S    
C67   O33   S    
O43   H22   S    
C17   C18   A    
C61   O24   A    
C83   O61   S    
C85   H40   S    
C53   C76   S    
O54   H30   S    
C45   O17   S    
C73   O42   D    
C2    C59   S    
C82   H33   S    
C65   O29   D    
C73   O43   S    
C23   C64   S    
O22   V3    S    
C84   O63   S    
O56   H31   S    
O27   C64   A    
N4    C52   S    
O26   C63   A    
O30   H8    S    
O8    V2    S    
C20   O14   S    
C28   C67   S    
C74   O44   D    
C37   C44   A    
C65   O30   S    
C45   N4    A    
C9    C12   A    
O22   C62   A    
C10   C11   A    
C39   H5    S    
O26   V4    S    
C55   C62   S    
C19   O13   S    
C59   C60   D    
C16   C17   A    
O7    V1    S    
C48   C74   S    
N3    C34   A    
O64   C85   S    
C1    O6    A    
C66   H11   S    
C35   C38   A    
C25   C26   A    
C53   C58   A    
C36   C37   A    
O20   C61   A    
O1    C2    A    
C33   C37   A    
C4    C5    S    
N4    C46   A    
O31   C66   S    
C54   O50   S    
C80   O56   S    
C29   C30   A    
C82   H34   S    
C76   O48   D    
C30   H4    S    
C77   H28   S    
C79   O53   D    
C71   O38   D    
C43   C44   A    
C47   C48   A    
O21   V3    S    
N1    C32   S    
C5    C65   S    
O20   V3    S    
C50   C51   A    
C49   C50   A    
C69   H16   S    
C12   C13   A    
C55   C56   A    
C16   C20   A    
C51   C52   A    
O63   H37   S    
C30   C31   A    
C77   H27   S    
C42   C46   A    
C44   C71   S    
C23   C24   A    
C1    C49   S    
C39   C40   A    
O50   C77   S    
C75   O46   D    
C5    C6    D    
C21   C26   A    
C21   C83   S    
C10   C15   A    
C54   C55   A    
O33   H12   S    
C68   O34   D    
O23   C63   A    
O3    C4    A    
O1    V2    S    
O19   V4    S    
C81   O57   D    
C27   O31   S    
C7    O11   S    
C42   C43   A    
O6    V2    S    
O9    V2    S    
C57   C79   S    
C13   C14   A    
O36   C69   S    
N2    C26   S    
C50   H6    S    
C56   C78   S    
C22   C23   A    
C47   C52   A    
C70   H17   S    
O2    V1    S    
C46   O18   S    
O59   C82   S    
O4    C2    A    
C66   H9    S    
C47   C72   S    
C84   O62   D    
C71   O39   S    
O24   V4    S    
C59   H7    S    
C40   C45   A    
C78   O51   D    
C69   H15   S    
C82   H35   S    
C14   C19   A    
C56   C57   A    
C7    C11   A    
C9    C10   A    
C24   C25   A    
C40   C41   A    
C70   H18   S    
O5    V1    S    
C3    C29   S    
C72   O40   D    
C13   H1    S    
C31   C32   A    
O39   H20   S    
O25   V4    S    
C41   C42   A    
C78   O52   S    
O37   C70   S    
C35   C36   A    
C11   C18   A    
O4    V1    S    
O3    V1    S    
C31   C68   S    
O41   H21   S    
C19   N2    A    
O5    C3    A    
C72   O41   S    
C12   C81   S    
C83   O60   D    
O52   H29   S    
V1    O10   S    
C27   C28   A    
C79   O54   S    
O25   V3    S    
N2    C20   A    
C85   H38   S    
C6    C63   S    
C75   O47   S    
C34   O16   S    
O7    V2    S    
C38   C39   A    
C77   H26   S    
C33   O15   S    
C68   O35   S    
N3    C58   S    
C60   C61   S    
C80   O55   D    
C36   C41   A    
O61   H36   S    
C51   C75   S    
N1    C8    A    
C28   C29   A    
V4    O28   S    
C14   C15   A    
C17   O59   S    
C48   C49   A    
C38   O36   S    
C43   O37   S    
O47   H24   S    
O9    C4    A    
O23   V3    S    
V2    O10   S    
O8    C3    A    
C81   O58   S    
C66   H10   S    
