data_mof_unit_10116.cif
_audit_creation_date              2012-12-10T20:00:31-0500
_audit_creation_method            fapswitch 2.2
_symmetry_space_group_name_H-M    P1
_symmetry_Int_Tables_number       1
_space_group_crystal_system       triclinic
_cell_length_a                    15.08742
_cell_length_b                    14.262921
_cell_length_c                    15.781962
_cell_angle_alpha                 90.704605
_cell_angle_beta                  92.06434
_cell_angle_gamma                 90.014955
_cell_volume                      3393.66958554

loop_
_atom_site_label
_atom_site_type_symbol
_atom_type_description
_atom_site_fract_x
_atom_site_fract_y
_atom_site_fract_z
_atom_type_partial_charge
C1    C     C_R   0.327696 0.500082 0.501684 0.988620
C2    C     C_R   0.553009 0.798202 0.557210 0.478800
C3    C     C_R   0.537469 0.205850 0.567289 0.492057
C4    C     C_R   0.447174 0.796494 0.442418 0.481847
C5    C     C_R   0.500290 0.054268 0.499338 0.123120
C6    C     C_R   0.500595 0.947699 0.499173 0.009572
C7    C     C_R   0.499984 0.499399 0.339359 0.889279
C8    C     C_R   0.501056 0.500570 0.660630 0.882779
C9    C     C_R   0.550066 0.577888 0.959935 0.344679
C10   C     C_R   0.495594 0.413737 0.041340 0.318268
C11   C     C_R   0.544596 0.577540 0.047929 0.324373
C12   C     C_R   0.672420 0.500037 0.500956 0.985884
C13   C     C_R   0.494258 0.416351 0.953120 0.330981
C14   C     C_R   0.521383 0.498330 0.913268 -0.234659
C15   C     C_R   0.517830 0.495373 0.087703 -0.227168
C16   C     C_1   0.515138 0.501506 0.824054 0.093617
C17   C     C_1   0.510943 0.495975 0.176503 0.110022
C18   C     C_1   0.505125 0.497648 0.251128 -0.156161
C19   C     C_1   0.508206 0.501850 0.749108 -0.161153
C20   C     C_R   0.091760 0.581592 0.488446 0.380425
C21   C     C_R   0.909605 0.426671 0.481289 0.377739
C22   C     C_R   0.904750 0.576730 0.556768 0.379190
C23   C     C_R   0.048923 0.505534 0.524945 -0.163271
C24   C     C_R   0.097545 0.429066 0.557086 0.398963
C25   C     C_R   0.183578 0.582956 0.487702 0.290421
C26   C     C_R   0.817648 0.420717 0.482182 0.283744
C27   C     C_R   0.813926 0.580501 0.540673 0.290463
C28   C     C_R   0.187391 0.422440 0.541644 0.302274
C29   C     C_R   0.231750 0.501058 0.509018 -0.430120
C30   C     C_R   0.768919 0.500406 0.507497 -0.421612
C31   C     C_3   0.498944 0.715216 0.106581 0.115864
C32   C     C_3   0.524835 0.790098 0.173116 -0.319242
C33   C     C_3   0.448947 0.858516 0.187584 -0.932309
C34   C     C_R   0.952930 0.502097 0.523012 -0.178150
C35   C     C_3   0.380569 0.338734 0.883621 0.113225
C36   C     C_3   0.362584 0.270303 0.809653 -0.324394
C37   C     C_3   0.265456 0.272345 0.779306 -0.933269
C38   C     C_3   0.661524 0.651243 0.890682 0.121293
C39   C     C_3   0.729060 0.687308 0.958203 -0.310186
C40   C     C_3   0.821989 0.691991 0.923398 -1.017044
C41   C     C_3   0.541785 0.276230 0.098732 0.130324
C42   C     C_3   0.511460 0.188891 0.144752 -0.322238
C43   C     C_3   0.589232 0.124528 0.167669 -0.967893
C44   C     C_3   0.018839 0.644448 0.373326 0.115613
C45   C     C_R   0.463794 0.105423 0.430580 -0.400931
C46   C     C_3   0.001036 0.739501 0.332690 -0.323298
C47   C     C_3   0.962805 0.728377 0.242295 -0.982603
C48   C     C_3   0.959181 0.371299 0.355715 0.098970
C49   C     C_3   0.022370 0.300986 0.316288 -0.338798
C50   C     C_3   0.024287 0.311802 0.220325 -0.969539
C51   C     C_3   0.958511 0.634754 0.683705 0.139495
C52   C     C_3   0.969455 0.727664 0.732258 -0.339923
C53   C     C_3   0.050839 0.781949 0.705556 -0.824912
C54   C     C_3   0.041229 0.380038 0.681161 0.093615
C55   C     C_3   0.018757 0.291535 0.729473 -0.313897
C56   C     C_R   0.554955 0.896564 0.555985 -0.263933
C57   C     C_3   0.004154 0.313452 0.822801 -0.990711
C58   C     C_3   0.232546 0.728925 0.529797 0.205514
C59   C     C_3   0.207581 0.826929 0.498958 -0.327166
C60   C     C_3   0.230399 0.901153 0.566831 -1.006741
C61   C     C_3   0.761569 0.277199 0.516456 0.194033
C62   C     C_3   0.837630 0.206868 0.527880 -0.364843
C63   C     C_3   0.815582 0.133237 0.593308 -1.022073
C64   C     C_3   0.775058 0.726543 0.493270 0.212505
C65   C     C_3   0.804488 0.822605 0.528017 -0.317761
C66   C     C_3   0.792918 0.897977 0.460645 -1.013845
C67   C     C_R   0.536054 0.106870 0.568638 -0.400017
C68   C     C_3   0.238114 0.278279 0.498678 0.197348
C69   C     C_3   0.166284 0.202613 0.500969 -0.364486
C70   C     C_3   0.180042 0.127715 0.432721 -1.025968
C71   C     C_R   0.446153 0.894897 0.442597 -0.271557
C72   C     C_R   0.461809 0.204496 0.432845 0.499039
H1    H     H_    0.437102 0.070012 0.374489 0.143412
H2    H     H_    0.469661 0.910809 0.237130 0.262028
H3    H     H_    0.389761 0.820525 0.209215 0.293493
H4    H     H_    0.357779 0.409782 0.863418 0.118752
H5    H     H_    0.341877 0.316802 0.938747 0.165690
H6    H     H_    0.404646 0.289323 0.756016 0.257522
H7    H     H_    0.380289 0.198064 0.829752 0.224443
H8    H     H_    0.221937 0.252631 0.831514 0.254395
H9    H     H_    0.254732 0.221735 0.725878 0.281088
H10   H     H_    0.247233 0.343486 0.756819 0.277249
H11   H     H_    0.665624 0.695478 0.833479 0.188602
H12   H     H_    0.600999 0.931378 0.599845 0.171895
H13   H     H_    0.679262 0.578587 0.870417 0.114364
H14   H     H_    0.709368 0.758462 0.980037 0.243360
H15   H     H_    0.730243 0.639762 0.013465 0.234805
H16   H     H_    0.843165 0.621535 0.901181 0.261075
H17   H     H_    0.869644 0.716865 0.974033 0.274890
H18   H     H_    0.823150 0.741679 0.869807 0.267815
H19   H     H_    0.592130 0.313730 0.140057 0.133309
H20   H     H_    0.572623 0.253912 0.038594 0.159066
H21   H     H_    0.478746 0.210495 0.203749 0.244608
H22   H     H_    0.462464 0.149737 0.103625 0.224528
H23   H     H_    0.562546 0.072603 0.624579 0.148530
H24   H     H_    0.622346 0.100753 0.109465 0.265424
H25   H     H_    0.564684 0.062037 0.200968 0.268558
H26   H     H_    0.638104 0.161734 0.210350 0.273410
H27   H     H_    0.956483 0.602841 0.370017 0.111487
H28   H     H_    0.070476 0.607579 0.336391 0.131418
H29   H     H_    0.953489 0.779633 0.371079 0.223456
H30   H     H_    0.064014 0.779885 0.331727 0.228052
H31   H     H_    0.009823 0.689248 0.202439 0.267732
H32   H     H_    0.951224 0.798643 0.214492 0.269662
H33   H     H_    0.898599 0.690203 0.242174 0.263531
H34   H     H_    0.400382 0.928449 0.398447 0.170409
H35   H     H_    0.983481 0.443081 0.342209 0.098637
H36   H     H_    0.891655 0.361450 0.326094 0.177118
H37   H     H_    0.090312 0.312529 0.343947 0.217509
H38   H     H_    0.001224 0.228495 0.331045 0.234704
H39   H     H_    0.957314 0.299001 0.190899 0.265632
H40   H     H_    0.071183 0.260099 0.193854 0.268981
H41   H     H_    0.046669 0.383443 0.204306 0.263422
H42   H     H_    0.019066 0.591603 0.694883 0.102374
H43   H     H_    0.900609 0.597649 0.710115 0.082918
H44   H     H_    0.909196 0.771300 0.721140 0.223872
H45   H     H_    0.440171 0.676400 0.129047 0.131968
H46   H     H_    0.976413 0.713267 0.801216 0.175241
H47   H     H_    0.111855 0.740024 0.717906 0.233498
H48   H     H_    0.056480 0.848445 0.742672 0.232988
H49   H     H_    0.044948 0.799214 0.637141 0.293367
H50   H     H_    0.983914 0.428734 0.683938 0.113020
H51   H     H_    0.100860 0.413496 0.712681 0.125842
H52   H     H_    0.957558 0.259268 0.700752 0.223226
H53   H     H_    0.073760 0.240171 0.724533 0.233663
H54   H     H_    0.065190 0.344091 0.853358 0.264547
H55   H     H_    0.987741 0.247854 0.856015 0.270499
H56   H     H_    0.480806 0.750003 0.045604 0.171349
H57   H     H_    0.948376 0.363599 0.829120 0.262068
H58   H     H_    0.302564 0.729933 0.554040 0.160830
H59   H     H_    0.190585 0.712319 0.584576 0.104464
H60   H     H_    0.243637 0.843125 0.440763 0.253074
H61   H     H_    0.135252 0.829319 0.483181 0.237496
H62   H     H_    0.197550 0.884959 0.626740 0.270266
H63   H     H_    0.207148 0.970775 0.545078 0.281483
H64   H     H_    0.303299 0.904376 0.579203 0.277379
H65   H     H_    0.700579 0.237232 0.498324 0.174613
H66   H     H_    0.748938 0.312949 0.578256 0.143328
H67   H     H_    0.543236 0.755573 0.234053 0.243881
H68   H     H_    0.850109 0.171604 0.466254 0.242122
H69   H     H_    0.898884 0.243796 0.550348 0.269621
H70   H     H_    0.804572 0.167261 0.655747 0.269817
H71   H     H_    0.871676 0.083277 0.600737 0.276245
H72   H     H_    0.754938 0.093717 0.572680 0.276582
H73   H     H_    0.708025 0.733227 0.462502 0.159966
H74   H     H_    0.821072 0.705088 0.442508 0.096990
H75   H     H_    0.764808 0.842255 0.583465 0.252964
H76   H     H_    0.875401 0.819308 0.549324 0.249594
H77   H     H_    0.828037 0.877983 0.402540 0.265526
H78   H     H_    0.583363 0.829725 0.151980 0.221585
H79   H     H_    0.820971 0.965194 0.485288 0.281773
H80   H     H_    0.721415 0.908283 0.444093 0.276031
H81   H     H_    0.303335 0.242959 0.505861 0.177125
H82   H     H_    0.236543 0.312387 0.435266 0.125434
H83   H     H_    0.168128 0.169261 0.564299 0.234510
H84   H     H_    0.099968 0.234356 0.489451 0.279643
H85   H     H_    0.177050 0.159522 0.368802 0.270655
H86   H     H_    0.127061 0.073885 0.435318 0.277258
H87   H     H_    0.245496 0.093150 0.442836 0.275421
H88   H     H_    0.389954 0.210098 0.328332 0.305802
H89   H     H_    0.431290 0.896162 0.128139 0.254992
H90   H     H_    0.607801 0.689059 0.606618 0.405105
H91   H     H_    0.602455 0.213506 0.675969 0.315881
H92   H     H_    0.388846 0.686490 0.395454 0.404395
N1    N     N_R   0.500000 0.252470 0.500000 -0.117028
N2    N     N_R   0.500000 0.747530 0.500000 -0.216533
O1    O     O_R   0.369060 0.579480 0.500010 -0.634500
O2    O     O_3   0.472108 0.336778 0.905892 -0.613849
O3    O     O_3   0.574207 0.659509 0.919984 -0.620897
O4    O     O_3   0.467506 0.334094 0.081726 -0.616722
O5    O     O_3   0.045392 0.659109 0.459141 -0.588536
O6    O     O_3   0.957873 0.355881 0.443793 -0.612497
O7    O     O_3   0.946587 0.652590 0.596229 -0.560011
O8    O     O_3   0.056325 0.355257 0.596090 -0.605633
O9    O     O_3   0.224777 0.663707 0.461166 -0.594913
O10   O     O_3   0.776587 0.340433 0.449762 -0.620948
O11   O     O_3   0.769847 0.662295 0.561014 -0.598019
O12   O     O_R   0.630940 0.420520 0.499990 -0.587086
O13   O     O_3   0.232371 0.342503 0.567623 -0.612810
O14   O     O_3   0.420343 0.254420 0.368606 -0.755722
O15   O     O_3   0.606188 0.756438 0.618312 -0.767007
O16   O     O_3   0.577071 0.256963 0.632971 -0.757773
O17   O     O_3   0.392789 0.753028 0.382244 -0.775840
O18   O     O_R   0.630940 0.579480 0.499990 -0.635034
O19   O     O_R   0.369060 0.420520 0.500010 -0.586252
O20   O     O_R   0.499980 0.579460 0.378020 -0.647127
O21   O     O_R   0.500020 0.420540 0.621980 -0.551482
O22   O     O_R   0.500020 0.579460 0.621980 -0.646185
O23   O     O_R   0.499980 0.420540 0.378020 -0.549205
O24   O     O_3   0.572023 0.654964 0.095709 -0.627094
Zn1   Zn    Zn3+2 0.500000 0.606140 0.500000 0.934591
Zn2   Zn    Zn3+2 0.500000 0.393860 0.500000 1.035675

loop_
_geom_bond_atom_site_label_1
_geom_bond_atom_site_label_2
_ccdc_geom_bond_type
C51   H42   S    
C12   O12   A    
C21   C26   A    
C38   H11   S    
C42   H21   S    
C72   N1    A    
C7    O20   A    
C9    O3    S    
C58   O9    S    
C43   H26   S    
C39   H15   S    
C5    C67   A    
C24   O8    S    
C53   H48   S    
C35   H4    S    
C48   H36   S    
C8    O22   A    
C46   H30   S    
C31   O24   S    
C69   H83   S    
C38   O3    S    
O22   Zn1   S    
C57   H57   S    
C36   C37   S    
C70   H87   S    
C68   H82   S    
C10   C15   A    
C5    C6    S    
C64   H73   S    
C44   H27   S    
C61   H66   S    
C48   H35   S    
C20   C25   A    
C1    O1    A    
N1    Zn2   S    
C45   H1    S    
N2    Zn1   S    
C41   C42   S    
O20   Zn1   S    
C51   O7    S    
H88   O14   S    
C46   C47   S    
C11   C15   A    
C33   H3    S    
C31   H45   S    
C55   H53   S    
C4    N2    A    
C68   C69   S    
C47   H33   S    
C17   C18   T    
C23   C24   A    
C10   C13   A    
C40   H17   S    
C65   H75   S    
C2    N2    A    
C64   H74   S    
C23   C34   S    
C28   O13   S    
C54   H50   S    
C59   C60   S    
C48   O6    S    
C13   C14   A    
H91   O16   S    
C67   H23   S    
C37   H9    S    
C61   C62   S    
C61   O10   S    
C31   H56   S    
C61   H65   S    
C50   H40   S    
C37   H8    S    
C50   H41   S    
C44   C46   S    
C56   H12   S    
C52   H44   S    
C8    O21   A    
C25   C29   A    
C6    C71   A    
C22   C34   A    
C46   H29   S    
C59   H60   S    
C69   H84   S    
C47   H31   S    
C38   H13   S    
C51   C52   S    
C8    C19   S    
C43   H25   S    
C38   C39   S    
H90   O15   S    
C68   H81   S    
C57   H54   S    
C27   C30   A    
C13   O2    S    
C21   C34   A    
C58   C59   S    
C5    C45   A    
C35   H5    S    
C2    C56   A    
C51   H43   S    
C70   H86   S    
C2    O15   S    
O23   Zn2   S    
C33   H89   S    
C9    C14   A    
C66   H80   S    
C62   C63   S    
O12   Zn2   S    
C25   O9    S    
C31   C32   S    
C20   C23   A    
C26   O10   S    
C58   H59   S    
C63   H72   S    
C7    C18   S    
C41   H20   S    
C1    C29   S    
C35   O2    S    
O18   Zn1   S    
C65   H76   S    
C9    C11   A    
C60   H63   S    
O21   Zn2   S    
C66   H77   S    
C48   C49   S    
C41   H19   S    
C26   C30   A    
C22   C27   A    
C55   C57   S    
C49   C50   S    
C14   C16   S    
C37   H10   S    
C54   H51   S    
C42   C43   S    
C72   O14   S    
C62   H69   S    
C32   H67   S    
C60   H62   S    
C53   H47   S    
C39   C40   S    
C22   O7    S    
C52   C53   S    
C3    N1    A    
O19   Zn2   S    
C49   H37   S    
C15   C17   S    
C60   H64   S    
C54   C55   S    
C28   C29   A    
C47   H32   S    
C12   C30   S    
C42   H22   S    
C3    C67   A    
C24   C28   A    
C6    C56   A    
C36   H7    S    
C57   H55   S    
C27   O11   S    
C1    O19   A    
C10   O4    S    
C21   O6    S    
O1    Zn1   S    
C41   O4    S    
C68   O13   S    
C11   O24   S    
C40   H18   S    
C64   C65   S    
C70   H85   S    
C44   O5    S    
C66   H79   S    
H92   O17   S    
C36   H6    S    
C32   C33   S    
C64   O11   S    
C44   H28   S    
C54   O8    S    
C12   O18   A    
C58   H58   S    
C16   C19   T    
C50   H39   S    
C63   H70   S    
C59   H61   S    
C4    O17   S    
C69   C70   S    
C3    O16   S    
C33   H2    S    
C20   O5    S    
C32   H78   S    
C65   C66   S    
C55   H52   S    
C71   H34   S    
C43   H24   S    
C63   H71   S    
C7    O23   A    
C53   H49   S    
C35   C36   S    
C39   H14   S    
C62   H68   S    
C4    C71   A    
C40   H16   S    
C49   H38   S    
C45   C72   A    
C52   H46   S    
