data_mof_unit_67389.cif
_audit_creation_date              2013-03-05T16:11:01-0500
_audit_creation_method            fapswitch 2.2
_symmetry_space_group_name_H-M    P1
_symmetry_Int_Tables_number       1
_space_group_crystal_system       triclinic
_cell_length_a                    16.783382
_cell_length_b                    28.425299
_cell_length_c                    8.350537
_cell_angle_alpha                 89.901512
_cell_angle_beta                  104.188651
_cell_angle_gamma                 90.083984
_cell_volume                      3862.27437139

loop_
_atom_site_label
_atom_site_type_symbol
_atom_site_description
_atom_site_fract_x
_atom_site_fract_y
_atom_site_fract_z
_atom_type_partial_charge
P1    P     P_3+3 0.171820 0.553000 0.158080 0.459116
P2    P     P_3+3 0.171820 0.447000 0.658080 0.452250
P3    P     P_3+3 0.671820 0.053000 0.158080 0.451732
P4    P     P_3+3 0.671820 0.947000 0.658080 0.458266
O1    O     O_2   0.163830 0.569270 0.980510 -0.350053
O2    O     O_2   0.163830 0.430730 0.480510 -0.385308
O3    O     O_2   0.663830 0.069270 0.980510 -0.382356
O4    O     O_2   0.663830 0.930730 0.480510 -0.351910
O5    O     O_3   0.095420 0.524330 0.188510 -0.393445
O6    O     O_3   0.095420 0.475670 0.688510 -0.369588
O7    O     O_3   0.595420 0.024330 0.188510 -0.371931
O8    O     O_3   0.595420 0.975670 0.688510 -0.392179
O9    O     O_3   0.028940 0.612400 0.656050 -0.401599
O10   O     O_3   0.028940 0.387600 0.156050 -0.389755
O11   O     O_3   0.528940 0.112400 0.656050 -0.392893
O12   O     O_3   0.528940 0.887600 0.156050 -0.387064
O13   O     O_2   0.160337 0.650461 0.854308 -0.391291
O14   O     O_2   0.161378 0.350065 0.350683 -0.388650
O15   O     O_2   0.661376 0.149939 0.850855 -0.386118
O16   O     O_2   0.659985 0.849231 0.351658 -0.382859
O17   O     O_3   0.261580 0.519395 0.204923 -0.621090
O18   O     O_3   0.256701 0.485368 0.707463 -0.622113
O19   O     O_3   0.756481 0.014576 0.207345 -0.623860
O20   O     O_3   0.761810 0.980524 0.706198 -0.623057
O21   O     O_3   0.052038 0.711216 0.693311 -0.493678
O22   O     O_3   0.046791 0.290236 0.206951 -0.520848
O23   O     O_3   0.547355 0.209788 0.704946 -0.521237
O24   O     O_3   0.545111 0.789927 0.202850 -0.520104
H1    H     H_    0.938582 0.678487 0.666077 0.153816
H2    H     H_    0.931772 0.321765 0.141136 0.150028
H3    H     H_    0.432597 0.177684 0.644344 0.148402
H4    H     H_    0.431021 0.822572 0.137703 0.145274
C1    C     C_3   0.923262 0.752456 0.629405 -0.983568
C2    C     C_3   0.921512 0.247094 0.118921 -0.977013
C3    C     C_3   0.421135 0.252191 0.619919 -0.980425
C4    C     C_3   0.417822 0.748145 0.112349 -0.972797
H5    H     H_    0.856118 0.747798 0.581114 0.226549
H6    H     H_    0.915204 0.241674 0.246519 0.312883
H7    H     H_    0.417024 0.258130 0.748447 0.314424
H8    H     H_    0.412587 0.742360 0.240500 0.314008
H9    H     H_    0.935018 0.763397 0.760143 0.309293
H10   H     H_    0.955603 0.217139 0.085125 0.234797
H11   H     H_    0.453570 0.282275 0.581752 0.235102
H12   H     H_    0.449385 0.717594 0.074957 0.231933
P5    P     P_3+3 0.829210 0.554130 0.532500 0.478185
P6    P     P_3+3 0.829210 0.445870 0.032500 0.451470
P7    P     P_3+3 0.329210 0.054130 0.532500 0.441901
P8    P     P_3+3 0.329210 0.945870 0.032500 0.440709
P9    P     P_3+3 0.900509 0.656975 0.013794 0.476254
P10   P     P_3+3 0.902127 0.342306 0.513886 0.464328
P11   P     P_3+3 0.400953 0.157084 0.012414 0.469479
P12   P     P_3+3 0.399541 0.843177 0.512834 0.470762
O25   O     O_2   0.837400 0.570350 0.710350 -0.341008
O26   O     O_2   0.837400 0.429650 0.210350 -0.323450
O27   O     O_2   0.337400 0.070350 0.710350 -0.342358
O28   O     O_2   0.337400 0.929650 0.210350 -0.355768
O29   O     O_3   0.972820 0.612580 0.035550 -0.362018
O30   O     O_3   0.972820 0.387420 0.535550 -0.344530
O31   O     O_3   0.472820 0.112580 0.035550 -0.360556
O32   O     O_3   0.472820 0.887420 0.535550 -0.365941
O33   O     O_2   0.838450 0.650280 0.844800 -0.369822
O34   O     O_2   0.840040 0.349249 0.344986 -0.373346
O35   O     O_2   0.339833 0.150394 0.842326 -0.367265
O36   O     O_2   0.338484 0.849958 0.342745 -0.380337
O37   O     O_3   0.734547 0.525590 0.482320 -0.639863
O38   O     O_3   0.738547 0.478504 0.978251 -0.651637
O39   O     O_3   0.236516 0.023207 0.481793 -0.654058
O40   O     O_3   0.238875 0.978883 0.977891 -0.651908
O41   O     O_3   0.953840 0.708596 0.993937 -0.514981
O42   O     O_3   0.956718 0.291437 0.491588 -0.516314
O43   O     O_3   0.455232 0.208358 0.992879 -0.521457
O44   O     O_3   0.450990 0.790882 0.494809 -0.505557
C5    C     C_3   0.011072 0.718768 0.144084 0.252742
C6    C     C_3   0.019053 0.283993 0.636395 0.438400
C7    C     C_3   0.517633 0.215275 0.137998 0.430107
C8    C     C_3   0.509632 0.781734 0.643746 0.441554
H13   H     H_    0.025024 0.688606 0.231785 -0.003371
H14   H     H_    0.045470 0.317183 0.697061 -0.015010
H15   H     H_    0.542360 0.182031 0.200924 -0.017620
H16   H     H_    0.530159 0.813547 0.720262 -0.054194
H17   H     H_    0.986455 0.747600 0.206859 -0.006648
H18   H     H_    0.993615 0.263648 0.725279 -0.047988
H19   H     H_    0.492857 0.236406 0.225427 -0.046457
H20   H     H_    0.482769 0.756775 0.717847 -0.012769
C9    C     C_3   0.092057 0.734757 0.108959 0.141406
C10   C     C_3   0.089485 0.256371 0.595633 0.061722
C11   C     C_3   0.589562 0.241514 0.097327 0.067356
C12   C     C_3   0.585690 0.759724 0.605972 0.055502
H21   H     H_    0.123243 0.703726 0.072786 0.185704
H22   H     H_    0.125339 0.280016 0.533509 0.173126
H23   H     H_    0.624902 0.216930 0.037948 0.173741
H24   H     H_    0.618363 0.786749 0.549915 0.174216
C13   C     C_3   0.739395 0.516843 0.083331 0.903988
C14   C     C_3   0.736400 0.482379 0.561603 0.929395
C15   C     C_3   0.237485 0.015216 0.089612 0.909544
C16   C     C_3   0.238218 0.981642 0.572260 0.880757
H25   H     H_    0.771651 0.508498 0.212836 0.072711
H26   H     H_    0.775188 0.483759 0.690455 0.037235
H27   H     H_    0.269105 0.005236 0.217717 0.069976
H28   H     H_    0.273747 0.985945 0.702304 0.055370
C17   C     C_3   0.648483 0.527803 0.079552 -0.682414
C18   C     C_3   0.646261 0.471820 0.566457 -0.747834
C19   C     C_3   0.145951 0.024586 0.084999 -0.682412
C20   C     C_3   0.147463 0.970573 0.571041 -0.655973
H29   H     H_    0.636202 0.517597 0.199573 0.169087
H30   H     H_    0.637777 0.481799 0.689719 0.185698
H31   H     H_    0.134642 0.016065 0.207166 0.167782
H32   H     H_    0.135170 0.983547 0.688023 0.164536
H33   H     H_    0.606364 0.505473 0.986303 0.174935
H34   H     H_    0.602916 0.494594 0.476986 0.195195
H35   H     H_    0.105100 0.000274 0.997182 0.169548
H36   H     H_    0.105153 0.990821 0.471348 0.173020
Ba1   Ba    Ba6+2 0.000400 0.534870 0.845190 1.569065
Ba2   Ba    Ba6+2 0.000400 0.465130 0.345190 1.560187
Ba3   Ba    Ba6+2 0.500400 0.034870 0.845190 1.552701
Ba4   Ba    Ba6+2 0.500400 0.965130 0.345190 1.560100
C21   C     C_3   0.256036 0.479964 0.103362 0.330564
C22   C     C_3   0.274963 0.505288 0.566952 0.414853
C23   C     C_3   0.773899 0.994236 0.067039 0.418073
C24   C     C_3   0.757789 0.019228 0.601459 0.333198
H37   H     H_    0.222843 0.488093 0.975217 0.140860
H38   H     H_    0.265887 0.480440 0.463861 0.110768
H39   H     H_    0.765581 0.019189 0.963988 0.112500
H40   H     H_    0.724628 0.010619 0.473869 0.142408
H41   H     H_    0.221374 0.451978 0.150368 0.074867
H42   H     H_    0.234764 0.536164 0.526586 0.071596
H43   H     H_    0.732542 0.963768 0.026967 0.070372
H44   H     H_    0.723787 0.047975 0.645640 0.073959
C25   C     C_3   0.344678 0.464614 0.106435 -0.679695
C26   C     C_3   0.366115 0.519000 0.607017 -0.706910
C27   C     C_3   0.864616 0.979524 0.107373 -0.711506
C28   C     C_3   0.846929 0.033583 0.604114 -0.678620
H45   H     H_    0.356806 0.470848 0.983352 0.199233
H46   H     H_    0.389573 0.513897 0.494660 0.181717
H47   H     H_    0.888522 0.984725 0.995539 0.181351
H48   H     H_    0.858252 0.027960 0.480128 0.198899
H49   H     H_    0.390039 0.486702 0.194280 0.212200
H50   H     H_    0.402881 0.495277 0.703215 0.200322
H51   H     H_    0.902043 0.002661 0.204608 0.200138
H52   H     H_    0.891650 0.010568 0.689642 0.210825
O45   O     O_3   0.904940 0.476110 0.001150 -0.403909
O46   O     O_3   0.904940 0.523890 0.501150 -0.379422
O47   O     O_3   0.404940 0.976110 0.001150 -0.404043
O48   O     O_3   0.404940 0.023890 0.501150 -0.419556
P13   P     P_3+3 0.099191 0.342111 0.182813 0.444329
P14   P     P_3+3 0.101116 0.657238 0.682225 0.462023
P15   P     P_3+3 0.598531 0.841830 0.182395 0.455067
P16   P     P_3+3 0.599514 0.157774 0.682458 0.443914
C29   C     C_3   0.968440 0.707043 0.611191 0.578117
C30   C     C_3   0.966993 0.292519 0.103646 0.557970
C31   C     C_3   0.466963 0.207006 0.604384 0.565355
C32   C     C_3   0.465374 0.793057 0.099347 0.552448
H53   H     H_    0.961778 0.700139 0.477628 -0.052955
H54   H     H_    0.969251 0.297071 0.972607 -0.045249
H55   H     H_    0.468013 0.202249 0.472845 -0.057087
H56   H     H_    0.467990 0.797890 0.968702 -0.054330
H57   H     H_    0.943637 0.781072 0.559983 0.218875
H58   H     H_    0.859163 0.247689 0.035109 0.214294
H59   H     H_    0.357910 0.250763 0.539999 0.214306
H60   H     H_    0.355000 0.750371 0.030472 0.211126
H61   H     H_    0.132756 0.749971 0.222394 0.015895
H62   H     H_    0.130704 0.243165 0.712030 0.048900
H63   H     H_    0.630644 0.254870 0.213601 0.046050
H64   H     H_    0.627397 0.747202 0.722831 0.043614
C33   C     C_2   0.872297 0.379439 0.797898 -0.501449
C34   C     C_2   0.871654 0.620182 0.298319 -0.467165
C35   C     C_2   0.362581 0.883420 0.782788 -0.457585
C36   C     C_2   0.371500 0.120595 0.297530 -0.455438
C37   C     C_R   0.140261 0.615436 0.409426 -0.482551
C38   C     C_R   0.139846 0.384604 0.911657 -0.481194
C39   C     C_R   0.640105 0.115266 0.411546 -0.483492
C40   C     C_R   0.637408 0.883669 0.907432 -0.460835
C41   C     C_2   0.763987 0.354845 0.931273 -0.287803
C42   C     C_2   0.766193 0.645721 0.436891 -0.277648
C43   C     C_2   0.263812 0.855218 0.935003 -0.326914
C44   C     C_2   0.262915 0.144765 0.429950 -0.279946
C45   C     C_2   0.822167 0.389023 0.917635 0.303949
C46   C     C_2   0.823514 0.611350 0.421569 0.313525
C47   C     C_2   0.320230 0.889732 0.915792 0.304926
C48   C     C_2   0.322010 0.111076 0.418294 0.333213
C49   C     C_2   0.851172 0.343752 0.687004 0.121401
C50   C     C_2   0.849835 0.655537 0.186769 0.191177
C51   C     C_2   0.347585 0.845258 0.683792 0.234919
C52   C     C_2   0.348878 0.155387 0.183622 0.173229
C53   C     C_3   0.778480 0.315706 0.683566 0.070885
C54   C     C_3   0.779261 0.684899 0.187974 0.091392
C55   C     C_3   0.304332 0.805153 0.729032 -0.126389
C56   C     C_3   0.275846 0.183181 0.179464 0.103928
C57   C     C_3   0.762356 0.310716 0.847581 -0.031040
C58   C     C_3   0.765254 0.689886 0.353618 -0.053182
C59   C     C_3   0.243118 0.816787 0.821392 0.164964
C60   C     C_3   0.260341 0.188626 0.343849 -0.057494
C61   C     C_2   0.776442 0.268437 0.596181 -0.187681
C62   C     C_2   0.779183 0.732572 0.103815 -0.206484
C63   C     C_2   0.270337 0.770319 0.590572 -0.150856
C64   C     C_2   0.273178 0.230322 0.090338 -0.211166
C65   C     C_2   0.242543 0.727884 0.623443 -0.157607
C66   C     C_2   0.209233 0.259952 0.072056 -0.190561
C67   C     C_2   0.711896 0.239134 0.575456 -0.193568
C68   C     C_2   0.714600 0.761786 0.081802 -0.185249
C69   C     C_R   0.255414 0.684272 0.359659 0.003105
C70   C     C_R   0.244800 0.312576 0.845256 -0.015863
C71   C     C_R   0.746952 0.186889 0.347773 -0.015917
C72   C     C_R   0.752172 0.814846 0.858399 0.003672
C73   C     C_R   0.215411 0.690550 0.497018 -0.030792
C74   C     C_R   0.203366 0.305405 0.980367 -0.003172
C75   C     C_R   0.705534 0.193916 0.482861 -0.003378
C76   C     C_R   0.708451 0.807074 0.989537 -0.010177
C77   C     C_R   0.239082 0.641395 0.256378 -0.303368
C78   C     C_R   0.233889 0.357129 0.750538 -0.288991
C79   C     C_R   0.735156 0.142595 0.251875 -0.293278
C80   C     C_R   0.738279 0.858493 0.758608 -0.290849
C81   C     C_R   0.184635 0.608826 0.278499 0.328142
C82   C     C_R   0.184045 0.391217 0.780063 0.313811
C83   C     C_R   0.684517 0.108668 0.280330 0.315129
C84   C     C_R   0.683469 0.890921 0.778972 0.324854
C85   C     C_R   0.156709 0.653651 0.518657 0.199863
C86   C     C_R   0.150233 0.344083 0.011397 0.184564
C87   C     C_R   0.651153 0.155569 0.512018 0.186348
C88   C     C_R   0.650712 0.844210 0.012477 0.180425
H65   H     H_    0.722071 0.360828 0.009529 0.149656
H66   H     H_    0.724290 0.639785 0.515323 0.153691
H67   H     H_    0.227305 0.860462 0.024234 0.169018
H68   H     H_    0.220642 0.138486 0.507339 0.149207
H69   H     H_    0.273104 0.636242 0.163574 0.159686
H70   H     H_    0.267253 0.361910 0.656256 0.153589
H71   H     H_    0.768592 0.137860 0.157727 0.154730
H72   H     H_    0.773864 0.864140 0.668733 0.153200
H73   H     H_    0.922185 0.403266 0.793001 0.187558
H74   H     H_    0.921230 0.596291 0.292718 0.163252
H75   H     H_    0.402614 0.911352 0.760633 0.161566
H76   H     H_    0.422648 0.097528 0.295297 0.165353
H77   H     H_    0.096483 0.588848 0.424418 0.179042
H78   H     H_    0.100758 0.412780 0.934152 0.171073
H79   H     H_    0.600255 0.087274 0.433079 0.171946
H80   H     H_    0.595160 0.910809 0.924441 0.179206
H81   H     H_    0.826829 0.258145 0.544427 0.172522
H82   H     H_    0.830952 0.743446 0.057182 0.173851
H83   H     H_    0.268025 0.779355 0.463278 0.176397
H84   H     H_    0.322899 0.240426 0.036127 0.175500
H85   H     H_    0.241166 0.720004 0.749931 0.180436
H86   H     H_    0.160380 0.250520 0.129528 0.185068
H87   H     H_    0.662689 0.248731 0.631423 0.185424
H88   H     H_    0.664561 0.751827 0.135211 0.184473
C89   C     C_R   0.624251 0.578140 0.039363 0.270808
C90   C     C_R   0.602196 0.607112 0.157215 -0.166678
C91   C     C_R   0.581150 0.653985 0.119391 -0.156220
C92   C     C_R   0.582181 0.672200 0.964453 -0.080788
C93   C     C_R   0.603276 0.643400 0.846110 -0.120127
C94   C     C_R   0.622720 0.596301 0.882004 -0.025004
H89   H     H_    0.602109 0.593661 0.278607 0.124413
H90   H     H_    0.565173 0.676282 0.211165 0.169938
H91   H     H_    0.565715 0.708491 0.935495 0.097270
H92   H     H_    0.603697 0.657272 0.725908 0.142052
H93   H     H_    0.638116 0.574155 0.788482 0.126873
C95   C     C_R   0.619915 0.421862 0.526529 0.216778
C96   C     C_R   0.611025 0.404759 0.365335 -0.069434
C97   C     C_R   0.591042 0.357755 0.329699 -0.112322
C98   C     C_R   0.576859 0.327956 0.452670 -0.069944
C99   C     C_R   0.582034 0.345302 0.611221 -0.157271
C100  C     C_R   0.603424 0.392137 0.648497 -0.156703
H94   H     H_    0.621492 0.427586 0.268483 0.128584
H95   H     H_    0.586147 0.344705 0.206508 0.145377
H96   H     H_    0.561068 0.291546 0.424818 0.099771
H97   H     H_    0.571142 0.322265 0.706273 0.165496
H98   H     H_    0.608431 0.404906 0.772697 0.123102
C101  C     C_R   0.118912 0.074004 0.035758 0.284367
C102  C     C_R   0.100231 0.105014 0.151586 -0.160442
C103  C     C_R   0.080922 0.151738 0.108322 -0.168566
C104  C     C_R   0.079375 0.167693 0.949330 -0.066513
C105  C     C_R   0.095951 0.136693 0.832198 -0.107026
C106  C     C_R   0.114892 0.089851 0.874478 -0.044778
H99   H     H_    0.102731 0.093436 0.276357 0.121597
H100  H     H_    0.069339 0.175766 0.199728 0.162987
H101  H     H_    0.064796 0.204004 0.916761 0.101245
H102  H     H_    0.094381 0.148847 0.708881 0.138156
H103  H     H_    0.128629 0.066253 0.783227 0.116355
C107  C     C_R   0.123175 0.919640 0.544227 0.255792
C108  C     C_R   0.124937 0.897391 0.394924 -0.005543
C109  C     C_R   0.106273 0.849748 0.372903 -0.173356
C110  C     C_R   0.080301 0.824569 0.494268 -0.073144
C111  C     C_R   0.071767 0.847414 0.637284 -0.115425
C112  C     C_R   0.094282 0.894624 0.663668 -0.197736
H104  H     H_    0.142895 0.916625 0.297228 0.133230
H105  H     H_    0.112281 0.832544 0.261800 0.107125
H106  H     H_    0.066794 0.787455 0.476919 0.125115
H107  H     H_    0.050626 0.828226 0.730699 0.169661
H108  H     H_    0.089877 0.911391 0.777559 0.120229
C113  C     C_R   0.361650 0.414213 0.157884 0.193171
C114  C     C_R   0.351638 0.398643 0.311370 -0.098239
C115  C     C_R   0.363627 0.351603 0.356505 -0.074874
C116  C     C_R   0.389189 0.320014 0.252046 -0.104797
C117  C     C_R   0.404093 0.335586 0.103440 -0.116920
C118  C     C_R   0.390157 0.382563 0.055802 -0.139169
H109  H     H_    0.333627 0.422582 0.395492 0.102035
H110  H     H_    0.352920 0.339811 0.472456 0.118498
H111  H     H_    0.397703 0.283540 0.286970 0.114040
H112  H     H_    0.423889 0.310995 0.022698 0.183158
H113  H     H_    0.400404 0.393944 0.938620 0.111775
C119  C     C_R   0.378870 0.569143 0.663878 0.239654
C120  C     C_R   0.406379 0.602666 0.565834 -0.166532
C121  C     C_R   0.415343 0.649588 0.615425 -0.108890
C122  C     C_R   0.397126 0.663295 0.762720 -0.099493
C123  C     C_R   0.371310 0.630114 0.862601 -0.111228
C124  C     C_R   0.362171 0.583077 0.813701 -0.101801
H114  H     H_    0.419529 0.592737 0.449801 0.120892
H115  H     H_    0.434957 0.675490 0.538191 0.181965
H116  H     H_    0.402654 0.699769 0.798804 0.116574
H117  H     H_    0.358113 0.640953 0.977330 0.121455
H118  H     H_    0.341411 0.557725 0.891512 0.147404
C125  C     C_R   0.875741 0.929110 0.162694 0.239883
C126  C     C_R   0.856505 0.914661 0.309838 -0.111849
C127  C     C_R   0.863675 0.867352 0.356460 -0.089286
C128  C     C_R   0.890164 0.834402 0.257228 -0.080345
C129  C     C_R   0.911531 0.848679 0.113432 -0.146042
C130  C     C_R   0.904416 0.895849 0.065907 -0.150123
H119  H     H_    0.835050 0.939800 0.387015 0.149327
H120  H     H_    0.848167 0.856082 0.468632 0.120366
H121  H     H_    0.893509 0.797708 0.290809 0.106970
H122  H     H_    0.931131 0.822956 0.036044 0.119528
H123  H     H_    0.919618 0.906148 0.952008 0.112311
C131  C     C_R   0.865736 0.083569 0.658641 0.195503
C132  C     C_R   0.891986 0.115989 0.555495 -0.142668
C133  C     C_R   0.905812 0.162815 0.604653 -0.109275
C134  C     C_R   0.892991 0.177493 0.755746 -0.107563
C135  C     C_R   0.870098 0.145077 0.861569 -0.076797
C136  C     C_R   0.858304 0.098152 0.814818 -0.105283
H124  H     H_    0.900130 0.105375 0.436023 0.112418
H125  H     H_    0.923322 0.188047 0.522771 0.185145
H126  H     H_    0.901393 0.213887 0.791547 0.113885
H127  H     H_    0.861397 0.156114 0.979825 0.116919
H128  H     H_    0.842396 0.073506 0.899662 0.101481
O49   O     O_3   0.079399 0.767445 0.979575 -0.688497
H129  H     H_    0.060010 0.796853 0.020604 0.293178
O50   O     O_3   0.059342 0.218393 0.492249 -0.729516
H130  H     H_    0.108420 0.201459 0.476333 0.314990
O51   O     O_3   0.561470 0.279181 0.990738 -0.729036
H131  H     H_    0.611522 0.295698 0.977380 0.313677
O52   O     O_3   0.563459 0.721956 0.496983 -0.726302
H132  H     H_    0.615735 0.709051 0.480489 0.318985
O53   O     O_3   0.777889 0.555126 0.026703 -0.760942
H133  H     H_    0.837872 0.549651 0.062816 0.325605
O54   O     O_3   0.767782 0.449042 0.470068 -0.731509
H134  H     H_    0.779406 0.420484 0.538976 0.286764
O55   O     O_3   0.275462 0.055158 0.042327 -0.763642
H135  H     H_    0.335285 0.048826 0.069950 0.326673
O56   O     O_3   0.272672 0.945698 0.496144 -0.773702
H136  H     H_    0.332855 0.950523 0.525716 0.333592

loop_
_geom_bond_atom_site_label_1
_geom_bond_atom_site_label_2
_geom_bond_distance
_ccdc_geom_bond_type
C89   C94   1.405339 A    
C11   H23   1.110221 S    
C66   C74   1.491723 S    
C37   C85   1.402602 A    
C115  C116  1.392291 A    
C42   H66   1.084957 S    
O51   H131  0.991533 S    
C127  H120  1.079825 S    
O49   H129  0.989178 S    
C66   H86   1.079949 S    
C28   C131  1.502101 S    
C111  C112  1.396749 A    
O5    Ba2   2.845037 S    
C15   H27   1.107955 S    
P3    C83   1.867994 S    
C124  H118  1.082370 S    
Ba1   O46   2.943315 S    
C29   H53   1.111090 S    
C109  H105  1.075941 S    
O17   C21   1.395873 S    
C32   H56   1.110832 S    
C133  C134  1.395507 A    
C2    H10   1.101554 S    
O42   C6    1.407511 S    
C135  C136  1.390628 A    
C31   H55   1.111364 S    
P4    O8    1.592605 S    
C11   H63   1.111118 S    
O8    Ba3   2.850459 S    
C17   C89   1.502804 S    
C68   C76   1.489791 S    
P9    O41   1.746372 S    
C89   C90   1.402152 A    
C33   H73   1.084655 S    
C116  H111  1.076721 S    
C26   H46   1.112687 S    
P1    Ba1   3.418287 S    
C5    H17   1.107165 S    
O25   Ba1   2.874557 S    
P6    O45   1.606862 S    
C40   H80   1.081408 S    
O20   C24   1.395672 S    
O40   C15   1.396982 S    
C132  C133  1.395820 A    
C10   H22   1.110698 S    
C13   C17   1.550451 S    
C128  C129  1.394328 A    
C91   H90   1.078805 S    
C27   C125  1.502671 S    
C77   C81   1.343852 D    
C26   C119  1.501479 S    
C54   C58   1.465886 A    
P12   O44   1.745336 S    
C36   H76   1.084757 S    
C101  C106  1.405247 A    
C122  C123  1.395101 A    
C72   C80   1.479907 S    
O28   Ba4   2.873103 S    
O6    Ba1   2.850459 S    
C25   H45   1.109532 S    
P2    C82   1.867334 S    
C23   H39   1.096538 S    
C16   C20   1.552481 S    
P5    O46   1.609335 S    
O11   Ba3   2.817201 S    
C4    H12   1.102559 S    
C13   O53   1.403971 S    
C26   H50   1.112273 S    
C119  C120  1.404582 A    
C110  H106  1.081239 S    
O18   C22   1.401706 S    
O24   P15   1.754979 S    
O1    Ba1   2.869332 S    
C112  H108  1.083171 S    
O10   Ba2   2.822538 S    
C37   C81   1.478369 S    
O15   P16   1.545586 D    
O13   P14   1.545756 D    
P10   O42   1.747401 S    
C100  H98   1.083017 S    
C1    C29   1.524623 S    
P2    Ba2   3.418203 S    
O26   Ba2   2.873103 S    
P16   C87   1.840068 S    
P3    O7    1.590236 S    
O4    Ba4   2.870748 S    
H1    C29   1.109129 S    
O50   H130  0.991401 S    
C25   H49   1.112794 S    
C14   C18   1.552135 S    
C5    H13   1.113810 S    
P3    Ba3   3.418287 S    
C40   C84   1.481930 S    
C7    H15   1.110771 S    
C105  C106  1.393983 A    
C119  C124  1.405201 A    
P4    C84   1.870029 S    
C33   C45   1.481836 S    
C34   C50   1.357360 D    
C14   O54   1.400350 S    
C39   H79   1.081496 S    
C73   C85   1.478847 S    
C129  H122  1.080286 S    
P7    C48   1.866304 S    
C37   H77   1.081595 S    
C103  H100  1.077885 S    
C63   H83   1.084560 S    
C114  C115  1.390095 A    
O19   C23   1.401138 S    
O11   P16   1.727293 S    
Ba3   Ba4   4.625059 S    
P9    O29   1.730330 S    
C126  C127  1.396468 A    
O21   C29   1.407485 S    
C96   C97   1.391886 A    
C22   H38   1.095729 S    
C117  H112  1.079693 S    
O2    Ba2   2.870748 S    
P12   O32   1.735540 S    
Ba4   O48   2.844468 S    
C62   C68   1.342660 D    
P13   C86   1.840294 S    
C23   C27   1.535079 S    
C21   C25   1.545161 S    
C68   H88   1.080189 S    
C40   C88   1.406664 A    
P8    Ba4   3.419825 S    
P5    O25   1.529449 D    
C111  H107  1.079590 S    
C78   H70   1.080470 S    
P6    C45   1.869312 S    
C71   C79   1.480107 S    
C69   C77   1.480268 S    
C15   C19   1.550693 S    
C90   H89   1.083121 S    
C105  H102  1.079802 S    
Ba2   O45   2.942767 S    
C72   C76   1.476166 S    
C109  C110  1.393751 A    
C20   H36   1.112789 S    
C92   H91   1.079915 S    
C4    C32   1.522338 S    
O29   Ba1   2.827767 S    
C133  H125  1.079126 S    
C12   H64   1.110677 S    
C10   O50   1.397899 S    
P2    O18   1.760109 S    
C117  C118  1.396252 A    
H3    C31   1.109375 S    
H4    C32   1.109839 S    
C28   H48   1.109375 S    
C113  C114  1.403660 A    
C62   H82   1.080187 S    
C11   O51   1.397640 S    
C5    C9    1.527494 S    
P5    C46   1.861345 S    
O38   C13   1.398188 S    
C7    C11   1.525288 S    
C15   O55   1.403903 S    
C19   C101  1.502211 S    
C107  C112  1.403305 A    
P5    O37   1.740383 S    
O32   Ba4   2.822433 S    
C13   H25   1.109654 S    
C128  H121  1.077595 S    
Ba3   O48   2.943315 S    
C123  C124  1.395885 A    
C43   H67   1.085036 S    
C44   H68   1.084823 S    
C104  H101  1.079961 S    
C54   C62   1.525266 S    
C8    H16   1.112582 S    
C99   C100  1.394046 A    
C19   H31   1.108769 S    
C101  C102  1.401150 A    
C53   C57   1.466325 A    
C122  H116  1.077671 S    
C56   C60   1.466954 A    
C97   C98   1.394581 A    
C9    O49   1.400157 S    
C118  H113  1.083056 S    
C16   H28   1.110218 S    
Ba1   O45   2.839074 S    
C18   C95   1.500243 S    
C27   H51   1.112214 S    
C44   C48   1.400241 A    
O30   Ba2   2.822433 S    
C69   C73   1.475416 S    
C107  C108  1.405735 A    
C95   C100  1.400875 A    
C21   H41   1.111242 S    
C39   C87   1.406120 A    
C63   C65   1.344570 D    
C23   H43   1.108686 S    
C35   C47   1.469371 S    
C16   O56   1.402295 S    
C9    H61   1.110958 S    
C65   C73   1.488250 S    
C125  C126  1.405368 A    
O14   P13   1.545537 D    
C41   H65   1.084884 S    
C8    H20   1.106262 S    
C2    C30   1.520007 S    
C67   H87   1.079439 S    
P7    Ba3   3.419735 S    
O10   P13   1.728111 S    
C65   H85   1.085126 S    
P11   O43   1.746112 S    
O12   P15   1.727071 S    
P1    O1    1.526737 D    
P6    O38   1.745238 S    
P3    O3    1.526737 D    
P4    O20   1.746490 S    
H2    C30   1.109797 S    
C14   H26   1.113442 S    
C17   H33   1.113325 S    
C19   H35   1.113247 S    
C61   C67   1.342847 D    
C50   C54   1.452048 A    
P15   C88   1.842151 S    
C90   C91   1.394637 A    
O23   P16   1.752986 S    
C108  C109  1.391876 A    
O41   C5    1.410072 S    
O21   P14   1.755797 S    
C34   C46   1.476904 S    
C42   C46   1.399973 A    
O44   C8    1.408070 S    
C39   C83   1.480847 S    
C131  C132  1.402622 A    
C93   H92   1.079429 S    
C34   H74   1.084680 S    
C2    H6    1.106777 S    
C103  C104  1.396467 A    
C3    C31   1.520018 S    
C6    H18   1.104890 S    
O12   Ba4   2.822538 S    
C1    H57   1.099722 S    
C123  H117  1.080314 S    
P9    O33   1.546702 D    
C96   H94   1.083284 S    
P10   O30   1.725131 S    
O22   C30   1.405600 S    
P1    O5    1.590236 S    
C64   C66   1.344003 D    
C98   H96   1.079499 S    
P12   O36   1.546192 D    
O56   H136  0.988663 S    
C9    H21   1.105895 S    
P7    O48   1.609335 S    
C1    H5    1.107720 S    
P8    O47   1.606862 S    
C12   O52   1.398499 S    
C3    H7    1.105509 S    
C22   C26   1.533632 S    
C51   C55   1.449076 A    
O52   H132  0.991803 S    
P6    O26   1.528029 D    
C93   C94   1.393094 A    
P11   O35   1.546563 D    
C134  H126  1.076782 S    
C108  H104  1.083440 S    
P8    O40   1.746697 S    
O7    Ba4   2.845037 S    
C42   C58   1.432306 A    
C130  H123  1.083162 S    
P11   C52   1.849964 S    
P1    C81   1.863865 S    
C18   H34   1.113449 S    
C20   H32   1.110448 S    
C92   C93   1.395436 A    
Ba1   Ba2   4.625059 S    
O23   C31   1.405836 S    
P4    Ba4   3.418203 S    
C120  C121  1.394214 A    
C24   H44   1.111362 S    
C38   C82   1.480419 S    
C28   H52   1.112848 S    
C113  C118  1.403132 A    
C1    H9    1.105856 S    
C115  H110  1.079896 S    
C77   H69   1.079640 S    
C36   C48   1.479562 S    
C7    H19   1.103533 S    
C127  C128  1.394996 A    
O27   Ba3   2.874557 S    
C120  H114  1.083134 S    
C121  H115  1.080809 S    
C134  C135  1.392908 A    
C80   H72   1.079225 S    
P5    Ba1   3.419735 S    
C102  C103  1.393463 A    
C6    H14   1.110655 S    
C104  C105  1.395594 A    
C99   H97   1.077603 S    
C76   C88   1.478079 S    
C79   C83   1.343360 D    
O54   H134  0.985880 S    
P1    O17   1.746137 S    
C106  H103  1.082627 S    
P3    O19   1.759992 S    
C97   H95   1.078139 S    
P12   C51   1.847317 S    
P4    O4    1.528163 D    
O53   H133  0.989997 S    
C74   C86   1.479294 S    
C38   H78   1.081464 S    
Ba2   O46   2.844468 S    
C116  C117  1.395849 A    
C27   H47   1.112662 S    
C43   C59   1.433513 A    
C136  H128  1.074489 S    
C44   C60   1.433540 A    
C132  H124  1.083065 S    
O3    Ba3   2.869332 S    
C21   H37   1.102768 S    
P14   C85   1.836322 S    
C35   C51   1.350465 D    
C12   H24   1.110543 S    
C36   C52   1.359333 D    
C102  H99   1.083081 S    
C10   H62   1.110901 S    
C8    C12   1.523414 S    
C55   C59   1.466287 A    
C25   C113  1.502438 S    
C79   H71   1.080744 S    
C125  C130  1.404777 A    
P2    O2    1.528163 D    
O9    P14   1.733851 S    
C70   C78   1.479585 S    
P7    O39   1.745439 S    
C17   H29   1.109611 S    
Ba3   O47   2.839074 S    
P6    Ba2   3.419825 S    
C114  H109  1.074356 S    
C80   C84   1.343314 D    
C4    H8    1.106972 S    
C20   C107  1.505668 S    
C49   C53   1.450810 A    
C43   C47   1.398580 A    
C110  C111  1.398295 A    
C78   C82   1.343052 D    
C71   C75   1.476904 S    
C52   C56   1.452473 A    
O22   P13   1.752272 S    
Ba4   O47   2.942767 S    
C131  C136  1.403558 A    
C41   C45   1.400582 A    
C95   C96   1.405017 A    
C67   C75   1.491269 S    
O16   P15   1.546478 D    
C6    C10   1.526626 S    
C61   H81   1.080654 S    
C2    H58   1.107293 S    
O37   C14   1.391103 S    
O24   C32   1.406753 S    
C30   H54   1.111471 S    
O39   C16   1.397817 S    
P10   O34   1.546995 D    
P10   C49   1.851818 S    
P11   O31   1.726812 S    
C98   C99   1.396178 A    
P2    O6    1.592605 S    
C3    H11   1.100876 S    
P7    O27   1.529449 D    
C64   H84   1.080659 S    
C94   H93   1.083530 S    
P8    O28   1.528029 D    
C121  C122  1.394465 A    
C55   C63   1.523710 S    
C24   C28   1.545051 S    
C53   C61   1.526450 S    
C91   C92   1.396774 A    
C35   H75   1.083943 S    
C75   C87   1.478377 S    
C33   C49   1.361427 D    
C129  C130  1.394604 A    
O43   C7    1.407860 S    
C41   C57   1.433942 A    
C18   H30   1.110485 S    
C3    H59   1.107165 S    
C4    H60   1.108969 S    
P9    C50   1.847504 S    
C56   C64   1.527049 S    
O31   Ba3   2.827767 S    
C70   C74   1.476990 S    
C135  H127  1.080192 S    
C126  H119  1.082475 S    
C22   H42   1.108306 S    
O55   H135  0.990232 S    
P8    C47   1.857829 S    
O9    Ba1   2.817201 S    
C24   H40   1.102097 S    
C38   C86   1.406024 A    
