data_mof_unit_32157.cif
_audit_creation_date              2012-12-10T18:23:52-0500
_audit_creation_method            fapswitch 2.2
_symmetry_space_group_name_H-M    P1
_symmetry_Int_Tables_number       1
_space_group_crystal_system       triclinic
_cell_length_a                    22.434496
_cell_length_b                    22.492183
_cell_length_c                    14.676627
_cell_angle_alpha                 90.393124
_cell_angle_beta                  90.108658
_cell_angle_gamma                 90.00322
_cell_volume                      7405.64991348

loop_
_atom_site_label
_atom_site_type_symbol
_atom_type_description
_atom_site_fract_x
_atom_site_fract_y
_atom_site_fract_z
_atom_type_partial_charge
C1    C     C_R   0.420022 0.919539 0.499679 0.820524
C2    C     C_R   0.580247 0.080104 0.500363 0.819156
C3    C     C_R   0.580171 0.919831 0.499981 0.821551
C4    C     C_R   0.419630 0.080106 0.500234 0.824411
C5    C     C_R   0.920023 0.419538 0.499679 0.820525
C6    C     C_R   0.080249 0.580103 0.500363 0.819129
C7    C     C_R   0.080172 0.419831 0.499980 0.821534
C8    C     C_R   0.919630 0.580106 0.500233 0.824425
C9    C     C_1   0.336772 0.162236 0.503300 0.032293
C10   C     C_1   0.661751 0.836872 0.501982 0.021778
C11   C     C_1   0.662740 0.162227 0.502655 0.026901
C12   C     C_1   0.339065 0.835635 0.498546 0.024354
C13   C     C_1   0.836776 0.662240 0.503292 0.032284
C14   C     C_1   0.161751 0.336872 0.501979 0.021798
C15   C     C_1   0.162751 0.662217 0.502659 0.026894
C16   C     C_1   0.839068 0.335631 0.498547 0.024364
C17   C     C_1   0.499789 0.999262 0.194641 0.232184
C18   C     C_1   0.502623 0.000157 0.805132 0.243428
C19   C     C_1   0.999788 0.499261 0.194641 0.232124
C20   C     C_1   0.002621 0.500148 0.805132 0.243397
C21   C     C_3   0.558190 0.016348 0.973761 0.260512
C22   C     C_3   0.448127 0.981525 0.024679 0.331521
C23   C     C_3   0.514350 0.053135 0.033150 0.300456
C24   C     C_3   0.492101 0.945474 0.965630 0.368416
C25   C     C_3   0.058197 0.516307 0.973754 0.260538
C26   C     C_3   0.948118 0.481544 0.024683 0.331549
C27   C     C_3   0.014377 0.553120 0.033139 0.300519
C28   C     C_3   0.992071 0.445466 0.965637 0.368435
C29   C     C_3   0.698248 0.726777 0.465401 -0.394493
C30   C     C_3   0.299663 0.272161 0.544257 -0.407851
C31   C     C_3   0.295722 0.733039 0.560514 -0.399892
C32   C     C_3   0.706513 0.264162 0.442121 -0.356111
C33   C     C_3   0.198240 0.226769 0.465425 -0.394466
C34   C     C_3   0.799662 0.772159 0.544272 -0.407917
C35   C     C_3   0.795711 0.233039 0.560520 -0.399963
C36   C     C_3   0.206515 0.764153 0.442130 -0.356000
C37   C     C_3   0.260250 0.232651 0.419658 0.515618
C38   C     C_3   0.737380 0.766430 0.589780 0.497188
C39   C     C_3   0.729359 0.244727 0.585298 0.475448
C40   C     C_3   0.272719 0.752302 0.417270 0.499603
C41   C     C_3   0.760262 0.732667 0.419649 0.515626
C42   C     C_3   0.237385 0.266440 0.589781 0.497176
C43   C     C_3   0.229371 0.744718 0.585302 0.475456
C44   C     C_3   0.772718 0.252301 0.417271 0.499627
C45   C     C_1   0.374601 0.124647 0.501347 -0.165910
C46   C     C_1   0.624507 0.874877 0.500430 -0.182884
C47   C     C_1   0.625017 0.124661 0.501520 -0.178985
C48   C     C_1   0.376077 0.874001 0.498858 -0.180918
C49   C     C_1   0.874604 0.624649 0.501344 -0.165918
C50   C     C_1   0.124507 0.374877 0.500428 -0.182870
C51   C     C_1   0.125025 0.624654 0.501522 -0.178928
C52   C     C_1   0.876079 0.373998 0.498859 -0.180943
C53   C     C_3   0.229880 0.203302 0.551577 0.085231
C54   C     C_3   0.768122 0.795639 0.458070 0.078850
C55   C     C_3   0.773889 0.196800 0.477087 0.084751
C56   C     C_3   0.228232 0.800373 0.525633 0.090912
C57   C     C_3   0.729881 0.703298 0.551552 0.085301
C58   C     C_3   0.268116 0.295627 0.458053 0.078839
C59   C     C_3   0.273902 0.696799 0.477083 0.084641
C60   C     C_3   0.728231 0.300381 0.525625 0.090954
C61   C     C_3   0.291155 0.208131 0.505305 0.033538
C62   C     C_3   0.706845 0.790726 0.503815 0.041584
C63   C     C_3   0.708467 0.207782 0.502597 0.029166
C64   C     C_3   0.293794 0.789473 0.499650 0.031240
C65   C     C_3   0.791160 0.708136 0.505294 0.033541
C66   C     C_3   0.206843 0.290724 0.503813 0.041600
C67   C     C_3   0.208479 0.707772 0.502602 0.029149
C68   C     C_3   0.793795 0.289471 0.499651 0.031214
C69   C     C_3   0.543188 0.961430 0.033173 0.272479
C70   C     C_3   0.462762 0.036879 0.967122 0.301189
C71   C     C_3   0.043169 0.461400 0.033176 0.272418
C72   C     C_3   0.962780 0.536886 0.967117 0.301177
C73   C     C_3   0.499292 0.998067 0.092689 -0.329172
C74   C     C_3   0.506183 0.000407 0.906623 -0.325614
C75   C     C_3   0.999292 0.498064 0.092689 -0.329207
C76   C     C_3   0.006181 0.500388 0.906621 -0.325607
Cu1   Cu    Cu3+1 0.500000 0.000000 0.590220 0.975047
Cu2   Cu    Cu3+1 0.500000 0.000000 0.409780 0.978383
Cu3   Cu    Cu3+1 0.000000 0.500000 0.590220 0.975019
Cu4   Cu    Cu3+1 1.000000 0.500000 0.409780 0.978385
H1    H     H_    0.656357 0.708820 0.435936 0.154563
H2    H     H_    0.341132 0.290456 0.574814 0.154965
H3    H     H_    0.332694 0.720420 0.606819 0.158618
H4    H     H_    0.669856 0.276975 0.395301 0.156399
H5    H     H_    0.156347 0.208810 0.435971 0.154564
H6    H     H_    0.841128 0.790450 0.574843 0.154955
H7    H     H_    0.832676 0.220414 0.606835 0.158624
H8    H     H_    0.169852 0.776963 0.395319 0.156409
N1    N     N_1   0.499980 1.000000 0.274190 -0.165361
N2    N     N_1   0.500020 0.000000 0.725810 -0.165842
N3    N     N_1   0.999980 0.500000 0.274190 -0.165345
N4    N     N_1   0.000020 0.500000 0.725810 -0.165872
O1    O     O_R   0.439540 0.939530 0.576170 -0.571452
O2    O     O_R   0.560460 0.060470 0.423830 -0.563509
O3    O     O_R   0.560460 0.939530 0.423830 -0.573254
O4    O     O_R   0.439540 0.060470 0.576170 -0.562107
O5    O     O_R   0.939540 0.439530 0.576170 -0.571458
O6    O     O_R   0.060460 0.560470 0.423830 -0.563512
O7    O     O_R   0.060460 0.439530 0.423830 -0.573240
O8    O     O_R   0.939540 0.560470 0.576170 -0.562094
O9    O     O_R   0.439530 0.939530 0.423800 -0.585811
O10   O     O_R   0.560470 0.060470 0.576200 -0.583596
O11   O     O_R   0.560470 0.939530 0.576200 -0.574142
O12   O     O_R   0.439530 0.060470 0.423800 -0.565708
O13   O     O_R   0.939530 0.439530 0.423800 -0.585808
O14   O     O_R   0.060470 0.560470 0.576200 -0.583612
O15   O     O_R   0.060470 0.439530 0.576200 -0.574135
O16   O     O_R   0.939530 0.560470 0.423800 -0.565716
O17   O     O_3   0.421496 0.077137 0.929180 -0.602384
C77   C     C_3   0.384640 0.102347 0.997267 0.122948
H9    H     H_    0.393198 0.150978 0.999785 0.135634
H10   H     H_    0.392622 0.085001 0.067348 0.151753
C78   C     C_3   0.319481 0.091986 0.971104 -0.309460
H11   H     H_    0.310014 0.113759 0.904884 0.215574
H12   H     H_    0.311178 0.043540 0.962940 0.257806
C79   C     C_3   0.277456 0.116714 0.043473 -0.950408
H13   H     H_    0.284249 0.092849 0.108684 0.261511
H14   H     H_    0.230543 0.110412 0.021185 0.265392
H15   H     H_    0.285600 0.164949 0.054415 0.263068
O18   O     O_3   0.581504 0.916391 0.065494 -0.622206
C80   C     C_3   0.632146 0.941643 0.107514 0.125600
H16   H     H_    0.620385 0.979815 0.152882 0.160507
H17   H     H_    0.663914 0.956564 0.054387 0.188324
C81   C     C_3   0.663136 0.894189 0.164458 -0.383425
H18   H     H_    0.632119 0.877827 0.217706 0.234891
H19   H     H_    0.675691 0.856129 0.119733 0.222555
C82   C     C_3   0.719181 0.918805 0.210029 -0.908245
H20   H     H_    0.750305 0.936608 0.158141 0.252872
H21   H     H_    0.742105 0.882694 0.247219 0.274319
H22   H     H_    0.707387 0.954685 0.259168 0.267902
O19   O     O_3   0.921534 0.577162 0.929170 -0.602385
C83   C     C_3   0.884691 0.602395 0.997253 0.122939
H23   H     H_    0.893275 0.651021 0.999769 0.135619
H24   H     H_    0.892662 0.585046 0.067336 0.151757
C84   C     C_3   0.819527 0.592068 0.971089 -0.309444
H25   H     H_    0.810072 0.613845 0.904868 0.215581
H26   H     H_    0.811198 0.543625 0.962925 0.257804
C85   C     C_3   0.777514 0.616819 0.043455 -0.950386
H27   H     H_    0.784293 0.592949 0.108666 0.261507
H28   H     H_    0.730598 0.610542 0.021165 0.265395
H29   H     H_    0.785684 0.665049 0.054399 0.263070
O20   O     O_3   0.081466 0.416345 0.065494 -0.622186
C86   C     C_3   0.132110 0.441576 0.107540 0.125566
H30   H     H_    0.120345 0.479719 0.152961 0.160510
H31   H     H_    0.163875 0.456532 0.054433 0.188336
C87   C     C_3   0.163111 0.394092 0.164410 -0.383432
H32   H     H_    0.132092 0.377671 0.217611 0.234886
H33   H     H_    0.175695 0.356074 0.119620 0.222521
C88   C     C_3   0.219133 0.418701 0.210058 -0.908205
H34   H     H_    0.250247 0.436591 0.158227 0.252868
H35   H     H_    0.242084 0.382567 0.247152 0.274290
H36   H     H_    0.207305 0.454514 0.259293 0.267921
O21   O     O_3   0.275875 0.214044 0.330816 -0.607998
C89   C     C_3   0.237523 0.239900 0.265418 0.067654
H37   H     H_    0.265656 0.255890 0.208374 0.165860
H38   H     H_    0.212059 0.279254 0.290854 0.151141
C90   C     C_3   0.194059 0.193091 0.228625 -0.354233
H39   H     H_    0.219316 0.153560 0.204924 0.239484
H40   H     H_    0.163626 0.178594 0.283643 0.210587
C91   C     C_3   0.156963 0.217317 0.149908 -0.928952
H41   H     H_    0.129625 0.255615 0.173389 0.260176
H42   H     H_    0.126652 0.182025 0.123938 0.261332
H43   H     H_    0.186338 0.231695 0.093341 0.254692
O22   O     O_3   0.719020 0.785189 0.677259 -0.614336
C92   C     C_3   0.762621 0.770017 0.742248 0.065100
H44   H     H_    0.803227 0.797626 0.732162 0.141439
H45   H     H_    0.774572 0.721981 0.737353 0.165572
C93   C     C_3   0.737835 0.782562 0.837418 -0.319427
H46   H     H_    0.722930 0.829642 0.841968 0.223483
H47   H     H_    0.698649 0.753448 0.849635 0.219024
C94   C     C_3   0.784570 0.771367 0.910996 -0.947239
H48   H     H_    0.800623 0.724757 0.907174 0.262744
H49   H     H_    0.764698 0.779272 0.979253 0.251631
H50   H     H_    0.822990 0.801956 0.902414 0.257774
O23   O     O_3   0.701775 0.239465 0.671297 -0.611889
C95   C     C_3   0.735920 0.268149 0.739747 0.055920
H51   H     H_    0.704870 0.294298 0.783196 0.165837
H52   H     H_    0.769413 0.300327 0.713126 0.129776
C96   C     C_3   0.766815 0.221667 0.799089 -0.351491
H53   H     H_    0.732727 0.192786 0.831319 0.223809
H54   H     H_    0.795927 0.193140 0.756073 0.213691
C97   C     C_3   0.804611 0.251041 0.873356 -0.909725
H55   H     H_    0.838444 0.280880 0.842686 0.265417
H56   H     H_    0.828252 0.216341 0.912826 0.252829
H57   H     H_    0.775910 0.277137 0.920513 0.259599
O24   O     O_3   0.299207 0.755268 0.330259 -0.615219
C98   C     C_3   0.261945 0.726715 0.265745 0.056941
H58   H     H_    0.224137 0.756555 0.248133 0.141293
H59   H     H_    0.243938 0.683860 0.291898 0.169422
C99   C     C_3   0.297540 0.713195 0.179407 -0.328114
H60   H     H_    0.314357 0.755282 0.149800 0.225962
H61   H     H_    0.336351 0.684706 0.196840 0.228566
C100  C     C_3   0.259166 0.681214 0.108438 -0.935073
H62   H     H_    0.240696 0.639401 0.136705 0.263841
H63   H     H_    0.286646 0.669855 0.048040 0.260091
H64   H     H_    0.221978 0.710408 0.086603 0.259019
O25   O     O_3   0.775895 0.714076 0.330803 -0.608002
C101  C     C_3   0.737551 0.739948 0.265408 0.067682
H65   H     H_    0.765690 0.755939 0.208371 0.165860
H66   H     H_    0.712094 0.779305 0.290850 0.151153
C102  C     C_3   0.694079 0.693152 0.228595 -0.354252
H67   H     H_    0.719331 0.653622 0.204877 0.239478
H68   H     H_    0.663645 0.678648 0.283605 0.210591
C103  C     C_3   0.656987 0.717397 0.149888 -0.928957
H69   H     H_    0.629651 0.755691 0.173388 0.260187
H70   H     H_    0.626674 0.682112 0.123899 0.261331
H71   H     H_    0.686364 0.731785 0.093330 0.254681
O26   O     O_3   0.219038 0.285225 0.677253 -0.614342
C104  C     C_3   0.262612 0.269998 0.742255 0.065085
H72   H     H_    0.303265 0.297535 0.732157 0.141422
H73   H     H_    0.274481 0.221942 0.737391 0.165644
C105  C     C_3   0.237842 0.282610 0.837415 -0.319412
H74   H     H_    0.223041 0.329724 0.841945 0.223457
H75   H     H_    0.198590 0.253585 0.849632 0.219057
C106  C     C_3   0.284544 0.271323 0.911007 -0.947275
H76   H     H_    0.300490 0.224676 0.907209 0.262751
H77   H     H_    0.264684 0.279286 0.979257 0.251636
H78   H     H_    0.323036 0.301822 0.902419 0.257783
O27   O     O_3   0.201799 0.739449 0.671310 -0.611881
C107  C     C_3   0.235939 0.768156 0.739744 0.055925
H79   H     H_    0.204883 0.794287 0.783204 0.165838
H80   H     H_    0.269409 0.800351 0.713106 0.129778
C108  C     C_3   0.266874 0.721694 0.799077 -0.351506
H81   H     H_    0.232810 0.692802 0.831341 0.223819
H82   H     H_    0.295985 0.693174 0.756049 0.213708
C109  C     C_3   0.304682 0.751095 0.873306 -0.909748
H83   H     H_    0.338486 0.780951 0.842601 0.265443
H84   H     H_    0.328358 0.716412 0.912760 0.252803
H85   H     H_    0.275983 0.777178 0.920483 0.259615
O28   O     O_3   0.799212 0.255245 0.330262 -0.615200
C110  C     C_3   0.761915 0.226749 0.265734 0.056923
H86   H     H_    0.724196 0.256679 0.248037 0.141334
H87   H     H_    0.743778 0.183954 0.291910 0.169298
C111  C     C_3   0.797526 0.213087 0.179462 -0.328048
H88   H     H_    0.814503 0.255108 0.149849 0.225978
H89   H     H_    0.836232 0.184478 0.196982 0.228548
C112  C     C_3   0.759099 0.181205 0.108455 -0.935066
H90   H     H_    0.740452 0.139474 0.136737 0.263837
H91   H     H_    0.786593 0.169712 0.048128 0.260072
H92   H     H_    0.722036 0.210521 0.086504 0.259013
N5    N     N_3   0.787909 0.846567 0.405533 -0.610660
H93   H     H_    0.831347 0.837666 0.383812 0.232241
H94   H     H_    0.790368 0.882882 0.450167 0.227057
N6    N     N_3   0.210445 0.152571 0.604917 -0.586964
H95   H     H_    0.167160 0.161610 0.627234 0.230948
H96   H     H_    0.207594 0.116145 0.560550 0.224242
N7    N     N_3   0.203820 0.857869 0.552466 -0.573844
H97   H     H_    0.160225 0.850651 0.574753 0.232028
H98   H     H_    0.228126 0.873209 0.608660 0.208711
N8    N     N_3   0.797777 0.139438 0.448635 -0.589792
H99   H     H_    0.843275 0.145285 0.436521 0.231989
H100  H     H_    0.794122 0.110781 0.504088 0.220258
N9    N     N_3   0.287901 0.346547 0.405493 -0.610645
H101  H     H_    0.331335 0.337640 0.383764 0.232240
H102  H     H_    0.290365 0.382868 0.450113 0.227065
N10   N     N_3   0.710443 0.652558 0.604871 -0.586888
H103  H     H_    0.667155 0.661592 0.627180 0.230953
H104  H     H_    0.707599 0.616138 0.560492 0.224219
N11   N     N_3   0.703827 0.357880 0.552456 -0.573843
H105  H     H_    0.660225 0.350670 0.574717 0.232033
H106  H     H_    0.728124 0.373208 0.608666 0.208721
N12   N     N_3   0.297797 0.639440 0.448631 -0.589882
H107  H     H_    0.343294 0.645294 0.436513 0.231992
H108  H     H_    0.294149 0.610783 0.504085 0.220282
O29   O     O_3   0.525302 0.109804 0.071804 -0.598095
C113  C     C_3   0.535419 0.152733 0.003481 0.132927
H109  H     H_    0.500491 0.187511 0.009708 0.139093
H110  H     H_    0.532811 0.135151 0.932389 0.140631
C114  C     C_3   0.596332 0.181694 0.018929 -0.345468
H111  H     H_    0.596356 0.205610 0.085460 0.219368
H112  H     H_    0.631351 0.146863 0.021379 0.252517
C115  C     C_3   0.611315 0.225406 0.943207 -0.954661
H113  H     H_    0.613465 0.201937 0.876435 0.264283
H114  H     H_    0.655343 0.246175 0.956953 0.257831
H115  H     H_    0.577099 0.261015 0.939866 0.262254
O30   O     O_3   0.478383 0.888174 0.931567 -0.586549
C116  C     C_3   0.528928 0.862007 0.889815 0.106469
H116  H     H_    0.545651 0.826006 0.934612 0.174135
H117  H     H_    0.566584 0.893415 0.878493 0.131349
C117  C     C_3   0.510846 0.835223 0.797799 -0.382532
H118  H     H_    0.477347 0.799548 0.808564 0.222345
H119  H     H_    0.490197 0.870205 0.754950 0.243524
C118  C     C_3   0.564584 0.809414 0.747472 -0.859230
H120  H     H_    0.597913 0.844800 0.733870 0.274305
H121  H     H_    0.549944 0.790131 0.681271 0.256041
H122  H     H_    0.585755 0.773831 0.788472 0.250917
O31   O     O_3   0.617966 0.034788 0.961800 -0.626389
C119  C     C_3   0.630352 0.052731 0.871969 0.064420
H123  H     H_    0.664266 0.088632 0.876578 0.167277
H124  H     H_    0.591584 0.072763 0.836382 0.131669
C120  C     C_3   0.657141 0.000936 0.817456 -0.351768
H125  H     H_    0.693237 0.979775 0.857856 0.222085
H126  H     H_    0.622435 0.966975 0.803619 0.206960
C121  C     C_3   0.682919 0.021924 0.727103 -0.875139
H127  H     H_    0.648248 0.044975 0.686716 0.278603
H128  H     H_    0.699341 0.983072 0.687370 0.254205
H129  H     H_    0.720709 0.052905 0.739349 0.245120
O32   O     O_3   0.388231 0.963023 0.035213 -0.588979
C122  C     C_3   0.377485 0.938677 0.121897 0.067168
H130  H     H_    0.328408 0.934136 0.128976 0.162650
H131  H     H_    0.391078 0.969398 0.177518 0.135596
C123  C     C_3   0.404999 0.876507 0.131781 -0.360426
H132  H     H_    0.386687 0.846662 0.077922 0.240469
H133  H     H_    0.454133 0.878510 0.123768 0.247290
C124  C     C_3   0.391265 0.850492 0.225052 -0.871709
H134  H     H_    0.412766 0.877646 0.279170 0.278757
H135  H     H_    0.408893 0.804450 0.228931 0.266167
H136  H     H_    0.342403 0.849550 0.236837 0.278085
O33   O     O_3   0.025361 0.609789 0.071769 -0.598086
C125  C     C_3   0.035496 0.652699 0.003424 0.132999
H137  H     H_    0.000581 0.687493 0.009632 0.139082
H138  H     H_    0.032885 0.635103 0.932340 0.140657
C126  C     C_3   0.096420 0.681639 0.018858 -0.345497
H139  H     H_    0.096457 0.705560 0.085386 0.219353
H140  H     H_    0.131426 0.646795 0.021308 0.252546
C127  C     C_3   0.111415 0.725339 0.943127 -0.954662
H141  H     H_    0.113555 0.701863 0.876359 0.264326
H142  H     H_    0.155451 0.746095 0.956865 0.257853
H143  H     H_    0.077211 0.760960 0.939780 0.262253
O34   O     O_3   0.978313 0.388170 0.931594 -0.586558
C128  C     C_3   0.028837 0.361957 0.889851 0.106432
H144  H     H_    0.045472 0.325888 0.934594 0.174075
H145  H     H_    0.066557 0.393307 0.878655 0.131424
C129  C     C_3   0.010764 0.335284 0.797755 -0.382501
H146  H     H_    0.977200 0.299654 0.808400 0.222338
H147  H     H_    0.990196 0.370335 0.754951 0.243542
C130  C     C_3   0.064487 0.309432 0.747444 -0.859330
H148  H     H_    0.097886 0.344775 0.733971 0.274297
H149  H     H_    0.049854 0.290240 0.681177 0.256057
H150  H     H_    0.085571 0.273772 0.788391 0.250883
O35   O     O_3   0.117979 0.534731 0.961793 -0.626393
C131  C     C_3   0.130393 0.552591 0.871933 0.064425
H151  H     H_    0.164355 0.588450 0.876484 0.167272
H152  H     H_    0.091653 0.572654 0.836318 0.131708
C132  C     C_3   0.157116 0.500723 0.817505 -0.351818
H153  H     H_    0.193198 0.479557 0.857928 0.222057
H154  H     H_    0.122372 0.466788 0.803750 0.206959
C133  C     C_3   0.182893 0.521604 0.727093 -0.875143
H155  H     H_    0.148229 0.544632 0.686661 0.278600
H156  H     H_    0.199285 0.482702 0.687445 0.254267
H157  H     H_    0.220703 0.552574 0.739251 0.245115
O36   O     O_3   0.888212 0.463076 0.035220 -0.588978
C134  C     C_3   0.877452 0.438737 0.121904 0.067169
H158  H     H_    0.828372 0.434217 0.128979 0.162674
H159  H     H_    0.891057 0.469454 0.177524 0.135575
C135  C     C_3   0.904940 0.376556 0.131796 -0.360431
H160  H     H_    0.886644 0.346725 0.077906 0.240535
H161  H     H_    0.954079 0.378546 0.123840 0.247244
C136  C     C_3   0.891150 0.350531 0.225041 -0.871661
H162  H     H_    0.912597 0.377693 0.279199 0.278761
H163  H     H_    0.908799 0.304498 0.228947 0.266198
H164  H     H_    0.842280 0.349564 0.236740 0.278024

loop_
_geom_bond_atom_site_label_1
_geom_bond_atom_site_label_2
_ccdc_geom_bond_type
C90   H39   S    
C59   N12   S    
C120  H125  S    
C53   N6    S    
C108  C109  S    
C5    O13   A    
C94   H49   S    
C7    O7    A    
C28   O34   S    
N8    H100  S    
C86   H30   S    
N6    H95   S    
C31   C59   S    
C97   H55   S    
C4    O4    A    
C95   C96   S    
C108  H81   S    
C115  H113  S    
C70   C74   S    
C131  C132  S    
C15   C51   T    
Cu2   O9    S    
C111  H89   S    
C27   C75   S    
Cu2   N1    S    
C125  H138  S    
C119  C120  S    
C17   N1    T    
C57   C65   S    
C132  H154  S    
O36   C134  S    
C127  H141  S    
C111  C112  S    
C30   H2    S    
C106  H76   S    
C38   C57   S    
C20   N4    T    
O23   C95   S    
C6    O14   A    
C129  C130  S    
C131  H151  S    
C94   H48   S    
C89   H37   S    
C85   H28   S    
C81   C82   S    
C41   O25   S    
C93   H46   S    
C34   C54   S    
C90   C91   S    
C114  H112  S    
Cu1   O11   S    
C28   C71   S    
O32   C122  S    
C1    O9    A    
C87   H32   S    
C3    O11   A    
C84   H26   S    
Cu3   O5    S    
N11   H106  S    
C85   H29   S    
C41   C65   S    
C1    C48   S    
C2    C47   S    
C3    C46   S    
C25   C76   S    
C57   N10   S    
C44   C55   S    
C14   C50   T    
Cu2   O2    S    
C115  H115  S    
C39   C60   S    
C21   C74   S    
C79   H14   S    
C110  C111  S    
C80   H17   S    
C132  H153  S    
C98   H58   S    
C105  H74   S    
C83   H24   S    
C128  H144  S    
C30   C61   S    
C3    O3    A    
O24   C98   S    
O17   C77   S    
C91   H42   S    
C38   C62   S    
C99   H60   S    
C26   O36   S    
C36   H8    S    
C31   C43   S    
C127  H143  S    
C9    C61   S    
C120  H126  S    
C11   C63   S    
C88   H35   S    
C42   C53   S    
N9    H101  S    
C12   C64   S    
C126  H140  S    
C40   O24   S    
C2    O10   A    
C4    O12   A    
N5    H93   S    
C33   H5    S    
C59   C67   S    
C77   H9    S    
C35   H7    S    
C93   C94   S    
C124  H135  S    
C55   C63   S    
C56   C64   S    
C25   C71   S    
C128  C129  S    
C95   H52   S    
C92   H45   S    
C116  H116  S    
C118  H122  S    
C17   C73   S    
C102  H68   S    
C23   C70   S    
C107  H79   S    
C33   C66   S    
C26   C75   S    
C4    C45   S    
C32   C44   S    
C123  H133  S    
Cu2   O12   S    
C2    O2    A    
C117  H118  S    
C39   O23   S    
C106  H78   S    
C130  H149  S    
C129  H146  S    
C23   O29   S    
Cu3   O14   S    
C21   C69   S    
C119  H124  S    
C82   H21   S    
C122  H131  S    
C135  H161  S    
C105  C106  S    
C100  H64   S    
C15   C67   S    
C104  H72   S    
C42   O26   S    
C113  H110  S    
C1    O1    A    
C5    O5    A    
C100  H62   S    
C136  H164  S    
C133  H156  S    
C134  H159  S    
Cu4   O7    S    
C7    O15   A    
O18   C80   S    
C135  C136  S    
C81   H19   S    
C24   O30   S    
C29   C41   S    
C7    C50   S    
C113  C114  S    
C101  H66   S    
C108  H82   S    
N12   H107  S    
C133  H157  S    
Cu4   O16   S    
Cu1   O4    S    
C112  H91   S    
C8    O8    A    
N6    H96   S    
O25   C101  S    
C122  C123  S    
C77   H10   S    
C44   C68   S    
C103  H69   S    
C115  H114  S    
C109  H83   S    
C116  C117  S    
C118  H120  S    
C78   H12   S    
C22   C70   S    
C107  C108  S    
C86   C87   S    
C9    C45   T    
C26   C72   S    
C11   C47   T    
C117  C118  S    
C12   C48   T    
C84   H25   S    
C22   O32   S    
Cu1   Cu2   S    
C136  H162  S    
C6    O6    A    
O22   C92   S    
C121  H127  S    
C104  C105  S    
C127  H142  S    
C98   C99   S    
C99   C100  S    
C29   C62   S    
O26   C104  S    
C27   O33   S    
C69   C73   S    
C89   H38   S    
C96   C97   S    
C93   H47   S    
C90   H40   S    
C114  H111  S    
Cu1   O10   S    
C10   C62   S    
C56   N7    S    
C87   H33   S    
N7    H98   S    
C32   H4    S    
C94   H50   S    
Cu1   N2    S    
C18   N2    T    
C54   N5    S    
C37   O21   S    
Cu3   O8    S    
C121  H129  S    
O27   C107  S    
C54   C62   S    
N8    H99   S    
C33   C37   S    
C35   C39   S    
C122  H130  S    
C91   H43   S    
C29   H1    S    
C36   C56   S    
C87   C88   S    
O31   C119  S    
C103  H71   S    
Cu2   O3    S    
C55   N8    S    
Cu3   O15   S    
C110  H87   S    
C80   H16   S    
C89   C90   S    
C29   C57   S    
C21   C23   S    
C22   C24   S    
C111  H88   S    
C32   C60   S    
C82   H20   S    
C28   C76   S    
C72   O19   S    
C78   H11   S    
C125  H137  S    
C99   H61   S    
Cu4   O6    S    
C43   O27   S    
C16   C52   T    
C131  H152  S    
C132  C133  S    
C129  H147  S    
C69   O18   S    
Cu4   N3    S    
C130  H148  S    
O35   C131  S    
C88   H34   S    
C119  H123  S    
C126  H139  S    
Cu1   O1    S    
O28   C110  S    
C19   N3    T    
C85   H27   S    
C96   H53   S    
C60   C68   S    
C124  H134  S    
C114  C115  S    
O20   C86   S    
C30   C42   S    
C8    C49   S    
C97   H57   S    
C27   C72   S    
C125  C126  S    
C84   C85   S    
C71   C75   S    
C134  H158  S    
C92   H44   S    
C118  H121  S    
C102  H67   S    
C72   C76   S    
C107  H80   S    
C36   C67   S    
C13   C65   S    
O33   C125  S    
C123  C124  S    
C60   N11   S    
C117  H119  S    
C106  H77   S    
C31   H3    S    
C79   H13   S    
C20   C76   S    
C58   N9    S    
C34   H6    S    
C44   O28   S    
C80   C81   S    
C58   C66   S    
C83   H23   S    
C128  H145  S    
C10   C46   T    
C5    C52   S    
C101  H65   S    
C16   C68   S    
C6    C51   S    
O29   C113  S    
C37   C58   S    
C78   C79   S    
C38   O22   S    
C18   C74   S    
C40   C59   S    
C53   C61   S    
C23   C73   S    
C8    O16   A    
C34   C65   S    
C24   C69   S    
C97   H56   S    
C33   C53   S    
C35   C55   S    
C36   C40   S    
C120  C121  S    
C88   H36   S    
N9    H102  S    
C126  C127  S    
N12   H108  S    
C100  H63   S    
Cu4   O13   S    
N10   H104  S    
N5    H94   S    
C70   O17   S    
C124  H136  S    
N10   H103  S    
C101  C102  S    
C14   C66   S    
O30   C116  S    
C21   O31   S    
C77   C78   S    
Cu3   N4    S    
C71   O20   S    
C13   C49   T    
C43   C67   S    
C95   H51   S    
C103  H70   S    
C92   C93   S    
C109  H84   S    
C116  H117  S    
C102  C103  S    
C112  H92   S    
N11   H105  S    
C86   H31   S    
C123  H132  S    
C34   C38   S    
C31   C64   S    
C32   C63   S    
C105  H75   S    
C130  H150  S    
C37   C61   S    
N7    H97   S    
C25   C27   S    
C109  H85   S    
C39   C63   S    
C26   C28   S    
C40   C64   S    
C79   H15   S    
O34   C128  S    
C19   C75   S    
C82   H22   S    
C121  H128  S    
C24   C74   S    
C135  H160  S    
C35   C68   S    
C83   C84   S    
C30   C58   S    
C104  H73   S    
C91   H41   S    
C41   C54   S    
C98   H59   S    
C113  H109  S    
Cu3   Cu4   S    
C43   C56   S    
C136  H163  S    
C133  H155  S    
C134  C135  S    
C110  H86   S    
C42   C66   S    
C22   C73   S    
C96   H54   S    
O21   C89   S    
C112  H90   S    
O19   C83   S    
C81   H18   S    
C25   O35   S    
