data_mof_unit_65729.cif
_audit_creation_date              2012-12-10T19:55:48-0500
_audit_creation_method            fapswitch 2.2
_symmetry_space_group_name_H-M    P1
_symmetry_Int_Tables_number       1
_space_group_crystal_system       triclinic
_cell_length_a                    15.011408
_cell_length_b                    14.145198
_cell_length_c                    19.196872
_cell_angle_alpha                 89.998386
_cell_angle_beta                  90.022053
_cell_angle_gamma                 90.000414
_cell_volume                      4076.25079653

loop_
_atom_site_label
_atom_site_type_symbol
_atom_type_description
_atom_site_fract_x
_atom_site_fract_y
_atom_site_fract_z
_atom_type_partial_charge
C1    C     C_R   0.327728 0.499991 0.499984 0.872468
C2    C     C_R   0.463977 0.894849 0.443939 -0.261392
C3    C     C_R   0.432902 0.204544 0.467797 0.030212
C4    C     C_R   0.535617 0.795508 0.554895 0.025086
C5    C     C_R   0.567098 0.204542 0.532203 0.030173
C6    C     C_R   0.464381 0.795511 0.445105 0.025185
C7    C     C_R   0.499999 0.053383 0.500000 0.136497
C8    C     C_R   0.499999 0.946671 0.500000 0.129573
C9    C     C_R   0.499891 0.500013 0.365358 0.902718
C10   C     C_R   0.500094 0.500010 0.634642 0.902709
C11   C     C_R   0.499374 0.585989 0.253265 -0.216049
C12   C     C_R   0.672272 0.499992 0.500016 0.872467
C13   C     C_R   0.500563 0.414285 0.746857 -0.213720
C14   C     C_R   0.500115 0.585971 0.746741 -0.216309
C15   C     C_R   0.499507 0.414307 0.253138 -0.213977
C16   C     C_R   0.499210 0.586577 0.181029 0.162607
C17   C     C_R   0.500541 0.413903 0.819099 0.161145
C18   C     C_R   0.500129 0.586546 0.818978 0.162586
C19   C     C_R   0.499319 0.413937 0.180895 0.161124
C20   C     C_R   0.499233 0.500314 0.144821 -0.034102
C21   C     C_R   0.500267 0.500272 0.855178 -0.034083
C22   C     C_R   0.499605 0.500092 0.289583 -0.115268
C23   C     C_R   0.231980 0.499948 0.499971 -0.029579
C24   C     C_R   0.500262 0.500078 0.710417 -0.115257
C25   C     C_R   0.499973 0.500362 0.930172 0.344035
C26   C     C_R   0.499430 0.500431 0.069824 0.344071
C27   C     C_R   0.094072 0.579272 0.524398 -0.166564
C28   C     C_R   0.905899 0.420449 0.524384 -0.164055
C29   C     C_R   0.905930 0.579277 0.475612 -0.166567
C30   C     C_R   0.094100 0.420452 0.475618 -0.164051
C31   C     C_R   0.186026 0.579559 0.523985 -0.181196
C32   C     C_R   0.813936 0.420270 0.524019 -0.182199
C33   C     C_R   0.813976 0.579564 0.476023 -0.181180
C34   C     C_R   0.768020 0.499949 0.500032 -0.029587
C35   C     C_R   0.186062 0.420273 0.475982 -0.182156
C36   C     C_R   0.048096 0.499843 0.500013 0.110856
C37   C     C_R   0.951904 0.499844 0.499994 0.110860
C38   C     C_R   0.431457 0.105207 0.467369 -0.261157
C39   C     C_R   0.536021 0.894845 0.556061 -0.261394
C40   C     C_R   0.568543 0.105205 0.532631 -0.261131
H1    H     H_    0.498981 0.652813 0.280803 0.176812
H2    H     H_    0.778864 0.358637 0.543285 0.149224
H3    H     H_    0.778939 0.641230 0.456764 0.161219
H4    H     H_    0.221133 0.358644 0.456712 0.149233
H5    H     H_    0.376203 0.069583 0.442444 0.140026
H6    H     H_    0.563304 0.930468 0.601149 0.147846
H7    H     H_    0.623796 0.069580 0.557556 0.140022
H8    H     H_    0.436693 0.930475 0.398852 0.147865
H9    H     H_    0.379968 0.243421 0.442466 0.123940
H10   H     H_    0.563681 0.756732 0.598215 0.132831
H11   H     H_    0.620031 0.243418 0.557534 0.123908
H12   H     H_    0.501155 0.347394 0.719408 0.184041
H13   H     H_    0.436316 0.756738 0.401786 0.132746
H14   H     H_    0.499558 0.652801 0.719206 0.176954
H15   H     H_    0.499999 0.347413 0.280584 0.184156
H16   H     H_    0.058878 0.640446 0.544285 0.139424
H17   H     H_    0.941074 0.359237 0.544250 0.138125
H18   H     H_    0.941125 0.640455 0.455729 0.139424
H19   H     H_    0.058923 0.359243 0.455750 0.138125
H20   H     H_    0.221065 0.641221 0.543247 0.161210
I1    I     I_    0.495263 0.719931 0.130108 -0.266035
I2    I     I_    0.504605 0.280709 0.870249 -0.261684
I3    I     I_    0.496114 0.719891 0.869906 -0.265612
I4    I     I_    0.503035 0.280730 0.129757 -0.261174
N1    N     N_R   0.427936 0.467471 0.034366 -0.121605
N2    N     N_R   0.571459 0.533338 0.965629 -0.121422
N3    N     N_R   0.428205 0.467441 0.965272 -0.120491
N4    N     N_R   0.571191 0.533366 0.034723 -0.120408
N5    N     N_R   0.500000 0.252470 0.500000 -0.095962
N6    N     N_R   0.500000 0.747530 0.500000 -0.098214
O1    O     O_R   0.369060 0.579480 0.500010 -0.620282
O2    O     O_R   0.630940 0.420520 0.499990 -0.628829
O3    O     O_R   0.630940 0.579480 0.499990 -0.620230
O4    O     O_R   0.369060 0.420520 0.500010 -0.628783
O5    O     O_R   0.499990 0.579500 0.398140 -0.630370
O6    O     O_R   0.500010 0.420500 0.601860 -0.619446
O7    O     O_R   0.500010 0.579500 0.601860 -0.630394
O8    O     O_R   0.499990 0.420500 0.398140 -0.619464
Zn1   Zn    Zn3+2 0.500000 0.606140 0.500000 0.953420
Zn2   Zn    Zn3+2 0.500000 0.393860 0.500000 0.956456

loop_
_geom_bond_atom_site_label_1
_geom_bond_atom_site_label_2
_ccdc_geom_bond_type
C40   H7    S    
N2    N4    A    
C18   C21   A    
C14   C18   A    
C19   C20   A    
C25   N3    A    
O1    Zn1   S    
C3    H9    S    
C7    C8    S    
C28   H17   S    
C15   C19   A    
C2    H8    S    
C1    O1    A    
C30   C35   A    
C1    O4    A    
C36   C37   S    
C3    N5    A    
O8    Zn2   S    
C18   I3    S    
C29   C33   A    
C14   C24   A    
C38   H5    S    
C5    N5    A    
C32   C34   A    
C10   O6    A    
C15   C22   A    
C3    C38   A    
N1    N3    A    
C7    C40   A    
C8    C39   A    
C12   O2    A    
O4    Zn2   S    
C12   O3    A    
C2    C6    A    
C4    N6    A    
C10   O7    A    
O7    Zn1   S    
C27   C31   A    
C33   H3    S    
C28   C32   A    
C27   H16   S    
C10   C24   S    
C17   C21   A    
C13   C24   A    
C4    H10   S    
C15   H15   S    
C31   H20   S    
C17   I2    S    
C13   H12   S    
C11   C16   A    
C4    C39   A    
C19   I4    S    
C16   C20   A    
C30   H19   S    
C33   C34   A    
O3    Zn1   S    
C35   H4    S    
C39   H6    S    
C14   H14   S    
C1    C23   S    
C23   C35   A    
C16   I1    S    
C6    H13   S    
C12   C34   S    
C6    N6    A    
C21   C25   S    
N6    Zn1   S    
C26   N1    A    
C2    C8    A    
C25   N2    A    
O6    Zn2   S    
C30   C36   A    
C27   C36   A    
C11   C22   A    
C13   C17   A    
C26   N4    A    
O2    Zn2   S    
C20   C26   S    
C28   C37   A    
C7    C38   A    
C11   H1    S    
C9    O8    A    
C9    C22   S    
C29   H18   S    
C5    C40   A    
C29   C37   A    
C32   H2    S    
C5    H11   S    
N5    Zn2   S    
C9    O5    A    
O5    Zn1   S    
C23   C31   A    
