data_mof_unit_46089.cif
_audit_creation_date              2013-03-05T15:56:47-0500
_audit_creation_method            fapswitch 2.2
_symmetry_space_group_name_H-M    P1
_symmetry_Int_Tables_number       1
_space_group_crystal_system       triclinic
_cell_length_a                    6.926034
_cell_length_b                    14.778593
_cell_length_c                    15.910926
_cell_angle_alpha                 89.969863
_cell_angle_beta                  88.966009
_cell_angle_gamma                 91.542251
_cell_volume                      1627.73936241

loop_
_atom_site_label
_atom_site_type_symbol
_atom_site_description
_atom_site_fract_x
_atom_site_fract_y
_atom_site_fract_z
_atom_type_partial_charge
O1    O     O_R   0.638180 0.333920 0.163320 -0.591286
O2    O     O_R   0.361820 0.666080 0.836680 -0.591286
O3    O     O_R   0.308470 0.344960 0.336080 -0.545868
O4    O     O_R   0.691530 0.655040 0.663920 -0.545868
O5    O     O_R   0.138140 0.166110 0.336680 -0.549016
O6    O     O_R   0.861860 0.833890 0.663320 -0.549015
C1    C     C_R   0.478684 0.369417 0.363003 1.076724
C2    C     C_R   0.521316 0.630582 0.636997 1.076726
O7    O     O_R   0.308460 0.344950 0.163930 -0.618530
O8    O     O_R   0.691540 0.655050 0.836070 -0.618530
O9    O     O_R   0.138140 0.166100 0.163310 -0.609239
O10   O     O_R   0.861860 0.833900 0.836690 -0.609240
C3    C     C_R   0.479575 0.366805 0.134822 1.014471
C4    C     C_R   0.520425 0.633195 0.865178 1.014470
O11   O     O_R   0.638180 0.333930 0.336700 -0.580036
O12   O     O_R   0.361820 0.666070 0.663300 -0.580035
O13   O     O_3   0.471670 0.191340 0.250000 -0.236396
O14   O     O_3   0.528330 0.808660 0.750000 -0.236397
V1    V     V_3+5 0.196830 0.260900 0.250000 1.275684
V2    V     V_3+5 0.803170 0.739100 0.750000 1.275684
O15   O     O_R   0.808420 0.155070 0.163920 -0.603356
O16   O     O_R   0.191580 0.844930 0.836080 -0.603357
C5    C     C_R   0.977338 0.132760 0.134905 0.905334
C6    C     C_R   0.022662 0.867240 0.865095 0.905336
O17   O     O_R   0.808420 0.155080 0.336070 -0.553432
O18   O     O_R   0.191580 0.844920 0.663930 -0.553434
C7    C     C_R   0.971544 0.131765 0.364948 0.984886
C8    C     C_R   0.028456 0.868235 0.635052 0.984888
V3    V     V_3+5 0.696830 0.239130 0.250000 1.284119
V4    V     V_3+5 0.303170 0.760870 0.750000 1.284118
O19   O     O_3   0.971850 0.308690 0.250010 -0.261588
O20   O     O_3   0.028150 0.691310 0.749990 -0.261588
H1    H     H_    0.510326 0.859445 0.333857 0.195976
H2    H     H_    0.489677 0.140554 0.666142 0.195976
C9    C     C_R   0.130426 0.178127 0.531239 0.334151
C10   C     C_R   0.869574 0.821872 0.468761 0.334151
C11   C     C_R   0.272554 0.195732 0.590388 -0.189669
C12   C     C_R   0.727447 0.804267 0.409611 -0.189668
C13   C     C_R   0.366484 0.124895 0.627288 -0.211561
C14   C     C_R   0.633517 0.875104 0.372711 -0.211560
C15   C     C_R   0.309649 0.034857 0.611114 0.320019
C16   C     C_R   0.690353 0.965142 0.388884 0.320018
C17   C     C_R   0.142910 0.016502 0.561543 -0.068651
C18   C     C_R   0.857090 0.983497 0.438456 -0.068650
C19   C     C_R   0.080162 0.087670 0.509470 0.009556
C20   C     C_R   0.919837 0.912329 0.490530 0.009556
C21   C     C_R   0.038021 0.931730 0.560342 -0.154705
C22   C     C_R   0.961978 0.068269 0.439658 -0.154707
H3    H     H_    0.312688 0.264688 0.607002 0.190569
H4    H     H_    0.687314 0.735310 0.392997 0.190569
C23   C     C_R   0.180024 0.974968 0.967736 -0.115601
C24   C     C_R   0.819976 0.025032 0.032263 -0.115601
H5    H     H_    0.321194 0.956747 0.943977 0.126562
H6    H     H_    0.678806 0.043253 0.056023 0.126562
C25   C     C_R   0.168648 0.038503 0.032882 -0.119891
C26   C     C_R   0.831352 0.961497 0.967118 -0.119892
H7    H     H_    0.301729 0.067390 0.057120 0.130129
H8    H     H_    0.698271 0.932610 0.942880 0.130129
C27   C     C_R   0.988457 0.064447 0.066118 -0.117705
C28   C     C_R   0.011543 0.935553 0.933882 -0.117704
C29   C     C_R   0.345915 0.503436 0.443384 0.442667
C30   C     C_R   0.654084 0.496564 0.556616 0.442667
C31   C     C_R   0.352795 0.560060 0.514248 -0.144188
C32   C     C_R   0.647205 0.439940 0.485752 -0.144188
H9    H     H_    0.237686 0.605889 0.524933 0.251993
H10   H     H_    0.762314 0.394110 0.475067 0.251992
C33   C     C_R   0.508383 0.560223 0.569738 -0.380966
C34   C     C_R   0.491616 0.439777 0.430262 -0.380965
C35   C     C_R   0.364056 0.507141 0.065273 -0.368511
C36   C     C_R   0.635944 0.492859 0.934726 -0.368511
H11   H     H_    0.261753 0.514629 0.116923 0.203676
H12   H     H_    0.738247 0.485371 0.883077 0.203677
C37   C     C_R   0.368637 0.571460 0.999709 0.633957
C38   C     C_R   0.631363 0.428540 0.000291 0.633956
C39   C     C_R   0.506991 0.564867 0.934035 -0.332808
C40   C     C_R   0.493009 0.435133 0.065964 -0.332808
O21   O     O_3   0.255257 0.647079 0.005023 -0.623757
C41   C     C_3   0.061266 0.621508 0.990330 -0.150684
H13   H     H_    0.046049 0.584039 0.930010 0.130133
H14   H     H_    0.976091 0.683720 0.985200 0.160052
H15   H     H_    0.998487 0.581200 0.043571 0.118180
O22   O     O_3   0.744742 0.352921 0.994976 -0.623757
C42   C     C_3   0.938733 0.378492 0.009669 -0.150683
H16   H     H_    0.023908 0.316280 0.014800 0.160052
H17   H     H_    0.953950 0.415961 0.069990 0.130133
H18   H     H_    0.001513 0.418800 0.956429 0.118180
N1    N     N_R   0.015657 0.251173 0.504297 0.214857
O23   O     O_R   0.095068 0.330491 0.490258 -0.400396
O24   O     O_R   0.828289 0.242012 0.507961 -0.425246
N2    N     N_R   0.984343 0.748826 0.495703 0.214856
O25   O     O_R   0.904933 0.669508 0.509742 -0.400396
O26   O     O_R   0.171711 0.757988 0.492039 -0.425245
N3    N     N_R   0.448917 0.967035 0.626860 0.252733
O27   O     O_R   0.573003 0.979082 0.686575 -0.421101
O28   O     O_R   0.482649 0.906003 0.569890 -0.372286
N4    N     N_R   0.551085 0.032964 0.373137 0.252733
O29   O     O_R   0.427003 0.020917 0.313421 -0.421101
O30   O     O_R   0.517348 0.093995 0.430108 -0.372287
N5    N     N_R   0.198114 0.515722 0.382572 0.253480
O31   O     O_R   0.021525 0.530297 0.406796 -0.333920
O32   O     O_R   0.244385 0.524083 0.303255 -0.429517
N6    N     N_R   0.801886 0.484278 0.617428 0.253480
O33   O     O_R   0.978475 0.469703 0.593203 -0.333920
O34   O     O_R   0.755615 0.475917 0.696745 -0.429517

loop_
_geom_bond_atom_site_label_1
_geom_bond_atom_site_label_2
_geom_bond_distance
_ccdc_geom_bond_type
C7    C22   1.513479 S    
V4    O20   2.140010 S    
N1    O23   1.298863 A    
C31   H9    1.071237 S    
C8    C21   1.513479 S    
N3    O27   1.301707 A    
C25   C27   1.409370 A    
O13   V3    1.694540 S    
C29   C34   1.410936 A    
O4    C2    1.303621 A    
V1    O19   1.728032 S    
C13   C15   1.402710 A    
O21   C41   1.409536 S    
C5    C27   1.491749 S    
O9    V1    2.005540 S    
C38   C40   1.410179 A    
C30   C33   1.410935 A    
C16   N4    1.434680 S    
C32   C34   1.405329 A    
C9    C11   1.393669 A    
O3    C1    1.303621 A    
C41   H14   1.109437 S    
O12   V4    2.010781 S    
C35   C40   1.407757 A    
C29   C31   1.405195 A    
O9    C5    1.294711 A    
C35   H11   1.083022 S    
O7    C3    1.297231 A    
C30   C32   1.405195 A    
C1    C34   1.494682 S    
O5    C7    1.319391 A    
C9    N1    1.427926 S    
O7    V1    1.981007 S    
C15   N3    1.434681 S    
C42   H16   1.109436 S    
O8    V2    1.981005 S    
N4    O30   1.301666 A    
C36   C38   1.410295 A    
C35   C37   1.410294 A    
O14   V4    1.694540 S    
C23   C25   1.401543 A    
C24   H6    1.082747 S    
C14   C16   1.402710 A    
N3    O28   1.301667 A    
C15   C17   1.430223 A    
C29   N5    1.436191 S    
C16   C18   1.430224 A    
C38   O22   1.384790 S    
C18   C20   1.420646 A    
O11   V3    2.010780 S    
O17   V3    2.025769 S    
C11   C13   1.383346 A    
C31   C33   1.405329 A    
H1    C14   1.082726 S    
H2    C13   1.082725 S    
O8    C4    1.297232 A    
C41   H13   1.113517 S    
O15   V3    2.007916 S    
C26   C28   1.409370 A    
C23   H5    1.082747 S    
C32   H10   1.071237 S    
N6    O34   1.301444 A    
C24   C27   1.406251 A    
C11   H3    1.083220 S    
N2    O26   1.301382 A    
N5    O31   1.299262 A    
C3    C40   1.489546 S    
C6    C28   1.491749 S    
N4    O29   1.301705 A    
O10   V2    2.005542 S    
O1    V3    2.019487 S    
O3    V1    2.001323 S    
C17   C19   1.420646 A    
O5    V1    1.994194 S    
N5    O32   1.301444 A    
O18   V4    2.025770 S    
C25   H7    1.082757 S    
O16   C6    1.300770 A    
O1    C3    1.301914 A    
C37   C39   1.410179 A    
C10   C12   1.393669 A    
C9    C19   1.417065 A    
V2    O20   1.728030 S    
C19   C22   1.416527 A    
C10   N2    1.427926 S    
C20   C21   1.416526 A    
O16   V4    2.007917 S    
C42   H17   1.113518 S    
C12   H4    1.083220 S    
O17   C7    1.282891 A    
O6    V2    1.994196 S    
O10   C6    1.294709 A    
O18   C8    1.282891 A    
O2    V4    2.019484 S    
C4    C39   1.489546 S    
O15   C5    1.300771 A    
V3    O19   2.140011 S    
C12   C14   1.383345 A    
C10   C20   1.417065 A    
C41   H15   1.110738 S    
N2    O25   1.298863 A    
C1    O11   1.298169 A    
O13   V1    2.187607 S    
C26   H8    1.082757 S    
O14   V2    2.187607 S    
N6    O33   1.299262 A    
O2    C4    1.301915 A    
O4    V2    2.001324 S    
C18   C22   1.431499 A    
O6    C8    1.319390 A    
C42   H18   1.110737 S    
C2    C33   1.494682 S    
C2    O12   1.298169 A    
O22   C42   1.409537 S    
C36   C39   1.407758 A    
N1    O24   1.301382 A    
C37   O21   1.384789 S    
C36   H12   1.083021 S    
C23   C28   1.406251 A    
C17   C21   1.431498 A    
C24   C26   1.401543 A    
C30   N6    1.436190 S    
