data_mof_unit_33348.cif
_audit_creation_date              2012-10-26T19:13:52-0400
_audit_creation_method            fapswitch 2.2
_symmetry_space_group_name_H-M    P1
_symmetry_Int_Tables_number       1
_space_group_crystal_system       triclinic
_cell_length_a                    15.0716
_cell_length_b                    13.814501
_cell_length_c                    10.613471
_cell_angle_alpha                 90.067849
_cell_angle_beta                  89.637041
_cell_angle_gamma                 89.829428
_cell_volume                      2209.73933332

loop_
_atom_site_label
_atom_site_type_symbol
_atom_type_description
_atom_site_fract_x
_atom_site_fract_y
_atom_site_fract_z
_atom_type_partial_charge
C1    C     C_R   0.329591 0.500087 0.499663 0.560450
C2    C     C_R   0.567330 0.790198 0.442143 0.021236
C3    C     C_R   0.499903 0.054502 0.498622 0.118789
C4    C     C_R   0.499763 0.945366 0.498240 0.123050
C5    C     C_R   0.501013 0.499834 0.259239 0.576960
C6    C     C_R   0.499810 0.500139 0.740833 0.577978
C7    C     C_3   0.425723 0.542770 0.043618 -0.157957
C8    C     C_3   0.576312 0.457104 0.956592 -0.160873
C9    C     C_3   0.496462 0.592980 0.959497 -0.148880
C10   C     C_3   0.505648 0.406935 0.040852 -0.151607
C11   C     C_3   0.431354 0.451560 0.960606 0.269018
C12   C     C_R   0.669980 0.499896 0.499121 0.557735
C13   C     C_3   0.570694 0.548250 0.039857 0.270202
C14   C     C_3   0.500650 0.500699 0.877331 0.020510
C15   C     C_3   0.501235 0.499169 0.122860 0.022705
C16   C     C_R   0.093865 0.581870 0.454359 0.252712
C17   C     C_R   0.904707 0.444296 0.404326 0.252504
C18   C     C_R   0.904722 0.554775 0.584904 0.256245
C19   C     C_R   0.093264 0.416673 0.535923 0.255091
C20   C     C_R   0.186286 0.582802 0.459715 -0.145821
C21   C     C_R   0.811737 0.441783 0.410207 -0.134515
C22   C     C_R   0.812127 0.557804 0.582155 -0.149519
C23   C     C_R   0.549516 0.106305 0.588195 0.223379
C24   C     C_R   0.186140 0.416745 0.534406 -0.138052
C25   C     C_R   0.232685 0.500043 0.498261 -0.079958
C26   C     C_R   0.766074 0.499788 0.497121 -0.067780
C27   C     C_R   0.047587 0.499088 0.493929 0.108433
C28   C     C_R   0.950614 0.499520 0.494114 0.107271
C29   C     C_3   0.311918 0.354457 0.007711 -0.000774
C30   C     C_3   0.226139 0.313056 0.956362 -0.382089
C31   C     C_3   0.691609 0.644268 0.995950 -0.007643
C32   C     C_3   0.777536 0.683758 0.049666 -0.386411
C33   C     C_3   0.046370 0.664851 0.282957 -0.016961
C34   C     C_R   0.431040 0.893978 0.558736 0.219930
C35   C     C_3   0.979745 0.740624 0.239986 -0.366393
C36   C     C_3   0.922558 0.404708 0.193941 -0.012675
C37   C     C_3   0.996260 0.378116 0.101434 -0.380626
C38   C     C_3   0.936693 0.569534 0.793902 -0.015097
C39   C     C_3   0.003654 0.612130 0.884923 -0.373702
C40   C     C_3   0.064586 0.311826 0.698480 -0.017755
C41   C     C_3   0.989659 0.250385 0.751502 -0.365721
C42   C     C_3   0.566958 0.069415 0.796095 -0.017344
C43   C     C_3   0.607100 0.993665 0.882818 -0.373109
C44   C     C_3   0.338415 0.914187 0.731722 -0.018110
C45   C     C_R   0.450293 0.107345 0.409896 0.223464
C46   C     C_3   0.283158 0.991915 0.797158 -0.366729
C47   C     C_3   0.437851 0.066547 0.203266 -0.018228
C48   C     C_3   0.387389 0.003087 0.111367 -0.372152
C49   C     C_3   0.671332 0.902653 0.273346 -0.021649
C50   C     C_3   0.722668 0.977904 0.198310 -0.370605
C51   C     C_R   0.568627 0.893261 0.438133 0.219064
C52   C     C_R   0.549847 0.208831 0.585138 0.033823
C53   C     C_R   0.432427 0.791145 0.556646 0.014072
C54   C     C_R   0.450006 0.209716 0.414419 0.027445
Cu1   Cu    Cu3+1 0.500000 0.596430 0.500000 0.941165
Cu2   Cu    Cu3+1 0.500000 0.403570 0.500000 0.946709
H1    H     H_    0.294565 0.404902 0.086167 0.122983
H2    H     H_    0.762916 0.733621 0.129134 0.145921
H3    H     H_    0.364153 0.576062 0.082223 0.102424
H4    H     H_    0.637859 0.423789 0.917946 0.096756
H5    H     H_    0.493396 0.668377 0.923639 0.106040
H6    H     H_    0.508974 0.331585 0.076847 0.100354
H7    H     H_    0.025638 0.593745 0.243155 0.122817
H8    H     H_    0.112954 0.684050 0.244693 0.127367
H9    H     H_    0.999037 0.813150 0.275576 0.175061
H10   H     H_    0.977779 0.742652 0.135465 0.084080
H11   H     H_    0.912580 0.722452 0.276450 0.158483
H12   H     H_    0.352420 0.293488 0.044844 0.122797
H13   H     H_    0.904088 0.481843 0.176978 0.108090
H14   H     H_    0.864504 0.357703 0.174427 0.138386
H15   H     H_    0.015415 0.301006 0.113480 0.168060
H16   H     H_    0.973086 0.389149 0.003381 0.080765
H17   H     H_    0.055201 0.424447 0.117813 0.143075
H18   H     H_    0.944697 0.489270 0.794784 0.115921
H19   H     H_    0.869020 0.588469 0.828137 0.119649
H20   H     H_    0.997431 0.692240 0.886915 0.165028
H21   H     H_    0.991289 0.583721 0.981249 0.076701
H22   H     H_    0.072030 0.591982 0.855076 0.157732
H23   H     H_    0.240864 0.261958 0.878063 0.150580
H24   H     H_    0.070377 0.377493 0.759148 0.110544
H25   H     H_    0.127065 0.269097 0.703201 0.136202
H26   H     H_    0.982567 0.183155 0.695025 0.180286
H27   H     H_    0.004302 0.230556 0.850613 0.087670
H28   H     H_    0.926348 0.291708 0.749027 0.150347
H29   H     H_    0.221498 0.647575 0.431413 0.147185
H30   H     H_    0.774870 0.396258 0.346136 0.129582
H31   H     H_    0.776128 0.603067 0.648583 0.121942
H32   H     H_    0.221756 0.352218 0.562666 0.149157
H33   H     H_    0.493409 0.060799 0.799213 0.129387
H34   H     H_    0.190135 0.273733 0.032107 0.102167
H35   H     H_    0.584741 0.142382 0.832303 0.121748
H36   H     H_    0.680513 0.000321 0.883141 0.165962
H37   H     H_    0.581753 0.004175 0.980267 0.078544
H38   H     H_    0.588802 0.919961 0.850245 0.150178
H39   H     H_    0.398727 0.900533 0.789570 0.109443
H40   H     H_    0.297594 0.847435 0.727000 0.134499
H41   H     H_    0.222767 0.007859 0.741346 0.176023
H42   H     H_    0.262563 0.966366 0.892011 0.089876
H43   H     H_    0.322491 0.059312 0.807293 0.143028
H44   H     H_    0.508221 0.041494 0.204451 0.140287
H45   H     H_    0.183354 0.372664 0.921457 0.140581
H46   H     H_    0.434985 0.142530 0.168630 0.105125
H47   H     H_    0.316761 0.026040 0.108102 0.163582
H48   H     H_    0.416745 0.009861 0.015655 0.079047
H49   H     H_    0.391131 0.926180 0.141346 0.159699
H50   H     H_    0.617054 0.874561 0.212490 0.121000
H51   H     H_    0.718181 0.843368 0.297536 0.135123
H52   H     H_    0.779158 0.005311 0.254650 0.176847
H53   H     H_    0.748872 0.944837 0.110145 0.089562
H54   H     H_    0.678559 0.039505 0.173824 0.143175
H55   H     H_    0.590243 0.248623 0.651126 0.134803
H56   H     H_    0.652323 0.706113 0.958619 0.129421
H57   H     H_    0.378891 0.750692 0.599108 0.132142
H58   H     H_    0.409730 0.250118 0.348719 0.132680
H59   H     H_    0.620272 0.748552 0.399551 0.142969
H60   H     H_    0.708916 0.593947 0.917364 0.113377
H61   H     H_    0.819665 0.623334 0.083938 0.141474
H62   H     H_    0.814418 0.724048 0.975672 0.102433
N1    N     N_R   0.500000 0.258690 0.500000 -0.281946
N2    N     N_R   0.500000 0.741310 0.500000 -0.281447
O1    O     O_R   0.371460 0.581430 0.500010 -0.511052
O2    O     O_3   0.643924 0.596816 0.092396 -0.551813
O3    O     O_3   0.048106 0.663406 0.415945 -0.525531
O4    O     O_3   0.952771 0.388941 0.318175 -0.531880
O5    O     O_3   0.951519 0.608375 0.672451 -0.526613
O6    O     O_3   0.045693 0.335396 0.571928 -0.526764
O7    O     O_3   0.601388 0.056048 0.673196 -0.546646
O8    O     O_3   0.360301 0.946242 0.609094 -0.545712
O9    O     O_3   0.398335 0.058730 0.323775 -0.543996
O10   O     O_3   0.637964 0.945941 0.384684 -0.551305
O11   O     O_R   0.628540 0.418570 0.499990 -0.500184
O12   O     O_R   0.628540 0.581430 0.499990 -0.501084
O13   O     O_R   0.371460 0.418570 0.500010 -0.494389
O14   O     O_R   0.499980 0.581420 0.316850 -0.477220
O15   O     O_R   0.500020 0.418580 0.683150 -0.483974
O16   O     O_R   0.500020 0.581420 0.683150 -0.516254
O17   O     O_R   0.499980 0.418580 0.316850 -0.525111
O18   O     O_3   0.357873 0.402353 0.909836 -0.544448

loop_
_geom_bond_atom_site_label_1
_geom_bond_atom_site_label_2
_ccdc_geom_bond_type
C50   H52   S    
C46   H43   S    
Cu1   O1    S    
C45   O9    S    
C8    C13   S    
Cu2   O17   S    
C12   O11   A    
C3    C23   A    
C32   H2    S    
C32   H61   S    
C21   C26   A    
C38   O5    S    
Cu2   O13   S    
C53   N2    A    
C49   H51   S    
C7    C11   S    
C29   O18   S    
C29   C30   S    
C47   O9    S    
C9    H5    S    
C39   H21   S    
C36   C37   S    
C36   O4    S    
C16   O3    S    
C10   C15   S    
C18   O5    S    
C38   C39   S    
C11   C14   S    
C20   C25   A    
C35   H9    S    
Cu1   O16   S    
C41   H27   S    
C50   H54   S    
C43   H38   S    
C42   H35   S    
C9    C13   S    
C6    O16   A    
C33   C35   S    
C48   H49   S    
C53   H57   S    
C31   H56   S    
C40   H24   S    
C19   C27   A    
C30   H34   S    
Cu1   N2    S    
C16   C27   A    
C7    C15   S    
C46   H42   S    
C47   H46   S    
C54   N1    A    
C1    C25   S    
C10   H6    S    
C1    O13   A    
C7    H3    S    
C51   O10   S    
C36   H14   S    
C38   H19   S    
C5    O14   A    
C4    C34   A    
C33   H7    S    
C4    C51   A    
C39   H22   S    
C18   C28   A    
C24   C25   A    
C2    C51   A    
C2    N2    A    
C44   C46   S    
C52   H55   S    
C22   H31   S    
C41   H28   S    
C3    C45   A    
C50   H53   S    
C17   C21   A    
C47   H44   S    
C12   C26   S    
C9    C14   S    
C6    O15   A    
C44   H40   S    
C6    C14   S    
C29   H12   S    
C2    H59   S    
C17   O4    S    
C47   C48   S    
C35   H11   S    
C16   C20   A    
C40   O6    S    
C20   H29   S    
Cu1   Cu2   S    
C39   H20   S    
C24   H32   S    
C42   O7    S    
C30   H23   S    
C8    C10   S    
C40   C41   S    
C46   H41   S    
C29   H1    S    
C45   C54   A    
C49   C50   S    
C13   C15   S    
Cu2   N1    S    
C42   C43   S    
C3    C4    S    
C31   H60   S    
Cu2   O15   S    
C36   H13   S    
C23   O7    S    
C38   H18   S    
C7    C9    S    
C37   H17   S    
C21   H30   S    
C44   O8    S    
C8    C14   S    
C12   O12   A    
C18   C22   A    
C17   C28   A    
C40   H25   S    
C11   O18   S    
C31   C32   S    
C31   O2    S    
C32   H62   S    
C5    O17   A    
C49   H50   S    
Cu1   O14   S    
C49   O10   S    
C19   O6    S    
C43   H36   S    
C35   H10   S    
C42   H33   S    
C37   H15   S    
C19   C24   A    
C44   H39   S    
C8    H4    S    
C13   O2    S    
C48   H47   S    
C23   C52   A    
C33   H8    S    
C41   H26   S    
C54   H58   S    
C30   H45   S    
C43   H37   S    
C1    O1    A    
C5    C15   S    
Cu2   O11   S    
C10   C11   S    
C52   N1    A    
C34   C53   A    
C34   O8    S    
Cu1   O12   S    
C22   C26   A    
C37   H16   S    
C27   C28   S    
C33   O3    S    
C48   H48   S    
