data_mof_unit_30132.cif
_audit_creation_date              2013-03-05T15:44:37-0500
_audit_creation_method            fapswitch 2.2
_symmetry_space_group_name_H-M    P1
_symmetry_Int_Tables_number       1
_space_group_crystal_system       triclinic
_cell_length_a                    19.287354
_cell_length_b                    11.058226
_cell_length_c                    18.783333
_cell_angle_alpha                 89.940997
_cell_angle_beta                  89.94963
_cell_angle_gamma                 91.136053
_cell_volume                      4005.39165997

loop_
_atom_site_label
_atom_site_type_symbol
_atom_site_description
_atom_site_fract_x
_atom_site_fract_y
_atom_site_fract_z
_atom_type_partial_charge
O1    O     O_R   0.787540 0.042690 0.170470 -0.414838
O2    O     O_R   0.212460 0.042690 0.829530 -0.421184
O3    O     O_R   0.287540 0.542690 0.170470 -0.414801
O4    O     O_R   0.712460 0.542690 0.829530 -0.421037
O5    O     O_R   0.765660 0.292160 0.175050 -0.464977
O6    O     O_R   0.234340 0.292160 0.824950 -0.413943
O7    O     O_R   0.265660 0.792160 0.175050 -0.465024
O8    O     O_R   0.734340 0.792160 0.824950 -0.413840
C1    C     C_R   0.727921 0.373470 0.145885 0.646727
C2    C     C_R   0.268237 0.384893 0.849944 0.630504
C3    C     C_R   0.227896 0.873403 0.145860 0.646668
C4    C     C_R   0.768243 0.884871 0.849950 0.630607
O9    O     O_R   0.670190 0.408980 0.168550 -0.456704
O10   O     O_R   0.329810 0.408980 0.831450 -0.461341
O11   O     O_R   0.170190 0.908980 0.168550 -0.456695
O12   O     O_R   0.829810 0.908980 0.831450 -0.461269
O13   O     O_R   0.556580 0.251450 0.175160 -0.480799
O14   O     O_R   0.443420 0.251450 0.824840 -0.451941
O15   O     O_R   0.056580 0.751450 0.175160 -0.480830
O16   O     O_R   0.943420 0.751450 0.824840 -0.451927
C5    C     C_R   0.530668 0.155719 0.147623 0.620431
C6    C     C_R   0.467912 0.154410 0.854087 0.645852
C7    C     C_R   0.030658 0.655715 0.147632 0.620435
C8    C     C_R   0.967875 0.654407 0.854108 0.645756
O17   O     O_R   0.545920 0.049510 0.170320 -0.460251
O18   O     O_R   0.454080 0.049510 0.829680 -0.446594
O19   O     O_R   0.045920 0.549510 0.170320 -0.460280
O20   O     O_R   0.954080 0.549510 0.829680 -0.446634
O21   O     O_R   0.681390 0.957840 0.176710 -0.451071
O22   O     O_R   0.318610 0.957840 0.823290 -0.433198
O23   O     O_R   0.181390 0.457840 0.176710 -0.451057
O24   O     O_R   0.818610 0.457840 0.823290 -0.433179
C9    C     C_R   0.729634 0.014219 0.139358 0.597648
C10   C     C_R   0.259837 0.975739 0.854072 0.657403
C11   C     C_R   0.229623 0.514262 0.139354 0.597627
C12   C     C_R   0.759860 0.475818 0.854097 0.657629
O25   O     O_R   0.787500 0.044280 0.330990 -0.451945
O26   O     O_R   0.212500 0.044280 0.669010 -0.433012
O27   O     O_R   0.287500 0.544280 0.330990 -0.451945
O28   O     O_R   0.712500 0.544280 0.669010 -0.433004
O29   O     O_R   0.765610 0.293630 0.323860 -0.448950
O30   O     O_R   0.234390 0.293630 0.676140 -0.444825
O31   O     O_R   0.265610 0.793630 0.323860 -0.448927
O32   O     O_R   0.734390 0.793630 0.676140 -0.444837
C13   C     C_R   0.727208 0.376057 0.353646 0.618337
C14   C     C_R   0.267606 0.384982 0.650883 0.626915
C15   C     C_R   0.227208 0.876057 0.353646 0.618374
C16   C     C_R   0.767606 0.884982 0.650883 0.626907
O33   O     O_R   0.670140 0.410570 0.329080 -0.455006
O34   O     O_R   0.329860 0.410570 0.670920 -0.427914
O35   O     O_R   0.170140 0.910570 0.329080 -0.454995
O36   O     O_R   0.829860 0.910570 0.670920 -0.427916
O37   O     O_R   0.556540 0.252920 0.323970 -0.445379
O38   O     O_R   0.443460 0.252920 0.676030 -0.447595
O39   O     O_R   0.056540 0.752920 0.323970 -0.445373
O40   O     O_R   0.943460 0.752920 0.676030 -0.447584
C17   C     C_R   0.535863 0.155532 0.354436 0.648538
C18   C     C_R   0.467872 0.157348 0.646768 0.647644
C19   C     C_R   0.035864 0.655532 0.354436 0.648543
C20   C     C_R   0.967871 0.657348 0.646768 0.647671
O41   O     O_R   0.545870 0.051100 0.330840 -0.441011
O42   O     O_R   0.454130 0.051100 0.669160 -0.434077
O43   O     O_R   0.045870 0.551100 0.330840 -0.441007
O44   O     O_R   0.954130 0.551100 0.669160 -0.434063
O45   O     O_R   0.681340 0.959300 0.325510 -0.421039
O46   O     O_R   0.318660 0.959300 0.674490 -0.429093
O47   O     O_R   0.181340 0.459300 0.325510 -0.421045
O48   O     O_R   0.818660 0.459300 0.674490 -0.429091
C21   C     C_R   0.739897 0.977714 0.357466 0.642003
C22   C     C_R   0.258542 0.970397 0.646443 0.640247
C23   C     C_R   0.239897 0.477715 0.357466 0.642006
C24   C     C_R   0.758542 0.470396 0.646443 0.640265
Cr1   Cr    Cr6+3 0.772000 0.169640 0.250110 1.253055
Cr2   Cr    Cr6+3 0.228000 0.169640 0.749890 1.294913
Cr3   Cr    Cr6+3 0.272000 0.669640 0.250110 1.253035
Cr4   Cr    Cr6+3 0.728000 0.669640 0.749890 1.294965
Cr5   Cr    Cr6+3 0.614960 0.323350 0.249260 1.236932
Cr6   Cr    Cr6+3 0.385040 0.323350 0.750740 1.268132
Cr7   Cr    Cr6+3 0.114960 0.823350 0.249260 1.236916
Cr8   Cr    Cr6+3 0.885040 0.823350 0.750740 1.268183
Cr9   Cr    Cr6+3 0.616670 0.010620 0.250840 1.256905
Cr10  Cr    Cr6+3 0.383330 0.010620 0.749160 1.281676
Cr11  Cr    Cr6+3 0.116670 0.510620 0.250840 1.256857
Cr12  Cr    Cr6+3 0.883330 0.510620 0.749160 1.281709
O49   O     O_3   0.667880 0.167870 0.250070 -0.387860
O50   O     O_3   0.332120 0.167870 0.749930 -0.348050
O51   O     O_3   0.167880 0.667870 0.250070 -0.387900
O52   O     O_3   0.832120 0.667870 0.749930 -0.347943
C25   C     C_R   0.492847 0.157878 0.928982 0.050233
C26   C     C_R   0.494666 0.168003 0.078591 0.066041
C27   C     C_R   0.992790 0.657877 0.929006 0.050166
C28   C     C_R   0.994634 0.667983 0.078613 0.066110
C29   C     C_R   0.510908 0.269779 0.962674 -0.086693
C30   C     C_R   0.502418 0.276697 0.038104 -0.097598
C31   C     C_R   0.010861 0.769775 0.962700 -0.086599
C32   C     C_R   0.002373 0.776683 0.038129 -0.097503
C33   C     C_R   0.473285 0.060309 0.045835 0.185438
C34   C     C_R   0.478471 0.052083 0.971728 0.168287
C35   C     C_R   0.973254 0.560279 0.045858 0.185385
C36   C     C_R   0.978410 0.552078 0.971748 0.168102
C37   C     C_R   0.537194 0.375644 0.925531 0.167488
C38   C     C_R   0.503940 0.392416 0.071450 0.178481
C39   C     C_R   0.037163 0.875643 0.925566 0.167537
C40   C     C_R   0.003912 0.892396 0.071484 0.178522
C41   C     C_R   0.050822 0.981990 0.964149 0.416306
C42   C     C_R   0.032322 0.991279 0.035037 0.449593
C43   C     C_R   0.550826 0.482012 0.964102 0.416319
C44   C     C_R   0.532323 0.491311 0.034990 0.449589
C45   C     C_R   0.686613 0.911309 0.027164 0.192405
C46   C     C_R   0.219287 0.840311 0.950919 0.183480
C47   C     C_R   0.186511 0.411591 0.027099 0.192640
C48   C     C_R   0.719328 0.340472 0.950952 0.183447
C49   C     C_R   0.690691 0.895280 0.953641 0.423521
C50   C     C_R   0.208467 0.823326 0.023529 0.290606
C51   C     C_R   0.190554 0.395657 0.953552 0.423949
C52   C     C_R   0.708517 0.323463 0.023554 0.290839
C53   C     C_R   0.746107 0.945563 0.915222 0.017946
C54   C     C_R   0.238649 0.902637 0.073049 0.013040
C55   C     C_R   0.246050 0.445757 0.915163 0.018113
C56   C     C_R   0.738686 0.402764 0.073080 0.013124
C57   C     C_R   0.791669 0.030553 0.948309 0.162181
C58   C     C_R   0.268703 0.012962 0.053485 0.164995
C59   C     C_R   0.291640 0.530681 0.948269 0.162051
C60   C     C_R   0.768739 0.513110 0.053534 0.164806
C61   C     C_R   0.787314 0.048557 0.021642 0.170403
C62   C     C_R   0.276465 0.036853 0.980177 0.179325
C63   C     C_R   0.287278 0.548683 0.021607 0.170248
C64   C     C_R   0.776591 0.537002 0.980226 0.179256
C65   C     C_R   0.735612 0.987021 0.062511 -0.029752
C66   C     C_R   0.254275 0.947182 0.929251 -0.019655
C67   C     C_R   0.235560 0.487179 0.062472 -0.029616
C68   C     C_R   0.754327 0.447344 0.929290 -0.019607
C69   C     C_R   0.570088 0.140282 0.478135 0.354692
C70   C     C_R   0.554717 0.136911 0.550273 0.418114
C71   C     C_R   0.070088 0.640283 0.478135 0.354690
C72   C     C_R   0.054716 0.636912 0.550273 0.418114
C73   C     C_R   0.487972 0.164050 0.572224 0.001795
C74   C     C_R   0.517454 0.160808 0.427932 -0.004675
C75   C     C_R   0.987972 0.664050 0.572224 0.001791
C76   C     C_R   0.017454 0.660808 0.427931 -0.004673
C77   C     C_R   0.435797 0.185128 0.521581 0.184901
C78   C     C_R   0.449476 0.181142 0.448806 0.186276
C79   C     C_R   0.935798 0.685128 0.521581 0.184899
C80   C     C_R   0.949476 0.681141 0.448805 0.186272
C81   C     C_R   0.793227 0.021521 0.476520 0.126340
C82   C     C_R   0.182698 0.924970 0.545114 0.145519
C83   C     C_R   0.293226 0.521525 0.476521 0.126342
C84   C     C_R   0.682698 0.424970 0.545114 0.145512
C85   C     C_R   0.783001 0.029054 0.550638 0.170868
C86   C     C_R   0.177037 0.932130 0.471463 0.127065
C87   C     C_R   0.283000 0.529057 0.550639 0.170868
C88   C     C_R   0.677037 0.432130 0.471463 0.127067
C89   C     C_R   0.742332 0.937940 0.583552 0.017473
C90   C     C_R   0.236518 0.910130 0.428028 -0.045332
C91   C     C_R   0.242332 0.437941 0.583553 0.017476
C92   C     C_R   0.736518 0.410130 0.428028 -0.045323
C93   C     C_R   0.693716 0.871722 0.542505 0.447725
C94   C     C_R   0.301546 0.901281 0.458757 0.417712
C95   C     C_R   0.193715 0.371724 0.542506 0.447731
C96   C     C_R   0.801546 0.401280 0.458757 0.417710
C97   C     C_R   0.694122 0.881688 0.468719 0.445883
C98   C     C_R   0.308186 0.905809 0.531951 0.411106
C99   C     C_R   0.194122 0.381690 0.468720 0.445884
C100  C     C_R   0.808186 0.405808 0.531951 0.411104
C101  C     C_R   0.745686 0.951823 0.434471 -0.015264
C102  C     C_R   0.249055 0.920732 0.575448 -0.024859
C103  C     C_R   0.245685 0.451826 0.434472 -0.015261
C104  C     C_R   0.749055 0.420732 0.575448 -0.024864
N1    N     N_R   0.446225 0.960382 0.089002 0.107382
O53   O     O_R   0.452340 0.848698 0.069656 -0.111734
O54   O     O_R   0.417491 0.980102 0.150555 -0.247662
N2    N     N_R   0.469151 0.934789 0.940063 0.145882
O55   O     O_R   0.407425 0.886546 0.935049 -0.231117
O56   O     O_R   0.519896 0.886296 0.905410 -0.140823
N3    N     N_R   0.946248 0.460296 0.089022 0.107405
O57   O     O_R   0.952342 0.348635 0.069621 -0.111767
O58   O     O_R   0.917564 0.479928 0.150609 -0.247585
N4    N     N_R   0.969051 0.434797 0.940074 0.145798
O59   O     O_R   0.907313 0.386596 0.935077 -0.231443
O60   O     O_R   0.019779 0.386241 0.905429 -0.140559
N5    N     N_R   0.856983 0.067691 0.446161 0.143522
O61   O     O_R   0.878454 0.177582 0.458289 -0.157587
O62   O     O_R   0.897744 0.994838 0.412470 -0.172005
N6    N     N_R   0.121782 0.932554 0.589299 0.121444
O63   O     O_R   0.081219 0.024795 0.583894 -0.132706
O64   O     O_R   0.113517 0.858763 0.642779 -0.233881
N7    N     N_R   0.356982 0.567696 0.446162 0.143520
O65   O     O_R   0.378454 0.677586 0.458292 -0.157590
O66   O     O_R   0.397743 0.494843 0.412471 -0.172003
N8    N     N_R   0.621782 0.432555 0.589299 0.121445
O67   O     O_R   0.581219 0.524795 0.583894 -0.132705
O68   O     O_R   0.613516 0.358763 0.642779 -0.233869
N9    N     N_R   0.822784 0.112545 0.593808 0.118240
O69   O     O_R   0.890250 0.112833 0.592191 -0.129539
O70   O     O_R   0.792122 0.168265 0.645666 -0.270694
N10   N     N_R   0.112354 0.970961 0.441832 0.149522
O71   O     O_R   0.054664 0.913414 0.456375 -0.269635
O72   O     O_R   0.109795 0.075150 0.409825 -0.132562
N11   N     N_R   0.322783 0.612547 0.593810 0.118240
O73   O     O_R   0.390249 0.612832 0.592194 -0.129538
O74   O     O_R   0.292121 0.668266 0.645667 -0.270689
N12   N     N_R   0.612354 0.470961 0.441832 0.149522
O75   O     O_R   0.554664 0.413414 0.456375 -0.269637
O76   O     O_R   0.609795 0.575150 0.409825 -0.132558
F1    F     F_    0.648366 0.791875 0.573192 -0.494340
F2    F     F_    0.359186 0.897231 0.417251 -0.506495
F3    F     F_    0.148366 0.291876 0.573192 -0.494335
F4    F     F_    0.859186 0.397229 0.417251 -0.506496
F5    F     F_    0.645683 0.818818 0.430784 -0.492115
F6    F     F_    0.373280 0.903812 0.559409 -0.513751
F7    F     F_    0.145683 0.318819 0.430784 -0.492118
F8    F     F_    0.873280 0.403811 0.559410 -0.513752
N13   N     N_R   0.552886 0.379524 0.850292 0.110395
O77   O     O_R   0.581782 0.289833 0.817908 -0.243835
O78   O     O_R   0.538647 0.475516 0.813314 -0.187678
N14   N     N_R   0.472639 0.412352 0.140240 0.135997
O79   O     O_R   0.417117 0.351981 0.159248 -0.216135
O80   O     O_R   0.498497 0.492984 0.183724 -0.183223
N15   N     N_R   0.052845 0.879555 0.850325 0.110417
O81   O     O_R   0.081741 0.789882 0.817923 -0.243757
O82   O     O_R   0.038600 0.975564 0.813364 -0.187677
N16   N     N_R   0.972619 0.912335 0.140278 0.135993
O83   O     O_R   0.917082 0.852007 0.159280 -0.216086
O84   O     O_R   0.998497 0.992938 0.183769 -0.183248
F9    F     F_    0.079843 0.080371 0.931678 -0.463211
F10   F     F_    0.039574 0.099588 0.067856 -0.447035
F11   F     F_    0.579817 0.580405 0.931619 -0.463116
F12   F     F_    0.539536 0.599645 0.067791 -0.446955
N17   N     N_R   0.637370 0.837716 0.065078 0.133139
O85   O     O_R   0.658863 0.757556 0.110094 -0.185908
O86   O     O_R   0.575979 0.823395 0.038499 -0.119154
N18   N     N_R   0.195199 0.749165 0.900881 0.105394
O87   O     O_R   0.153189 0.662400 0.921276 -0.311689
O88   O     O_R   0.215619 0.749483 0.834852 -0.236633
N19   N     N_R   0.137395 0.337755 0.065027 0.133182
O89   O     O_R   0.159053 0.257563 0.109942 -0.185936
O90   O     O_R   0.075989 0.323248 0.038513 -0.118948
N20   N     N_R   0.695253 0.249301 0.900915 0.105507
O91   O     O_R   0.653299 0.162464 0.921323 -0.311524
O92   O     O_R   0.715659 0.249629 0.834881 -0.236570
F13   F     F_    0.647931 0.812028 0.922452 -0.477791
F14   F     F_    0.170737 0.726457 0.047493 -0.677121
F15   F     F_    0.147787 0.312437 0.922345 -0.477801
F16   F     F_    0.670816 0.226551 0.047511 -0.676930
N21   N     N_R   0.846891 0.091430 0.909441 0.139285
O93   O     O_R   0.910721 0.083425 0.930854 -0.211412
O94   O     O_R   0.834826 0.145240 0.849280 -0.215348
N22   N     N_R   0.289242 0.099551 0.107980 0.143332
O95   O     O_R   0.252941 0.112146 0.165805 -0.223519
O96   O     O_R   0.347310 0.160012 0.103349 -0.230027
N23   N     N_R   0.346892 0.591491 0.909411 0.139255
O97   O     O_R   0.410713 0.583435 0.930845 -0.211402
O98   O     O_R   0.334861 0.645283 0.849236 -0.215402
N24   N     N_R   0.789158 0.599718 0.108061 0.143114
O99   O     O_R   0.752702 0.612335 0.165783 -0.223614
O100  O     O_R   0.847363 0.659793 0.103711 -0.229869
N25   N     N_R   0.836422 0.130878 0.053522 0.126259
O101  O     O_R   0.889262 0.088280 0.087262 -0.179620
O102  O     O_R   0.841656 0.239852 0.028714 -0.262492
N26   N     N_R   0.303875 0.152736 0.957480 0.070900
O103  O     O_R   0.297351 0.248576 0.996271 -0.329297
O104  O     O_R   0.335254 0.164853 0.897146 -0.380421
N27   N     N_R   0.336411 0.630941 0.053500 0.126178
O105  O     O_R   0.389238 0.588271 0.087230 -0.179584
O106  O     O_R   0.341685 0.739916 0.028700 -0.262575
N28   N     N_R   0.804269 0.652755 0.957551 0.070254
O107  O     O_R   0.798048 0.748601 0.996388 -0.329449
O108  O     O_R   0.835008 0.665018 0.896919 -0.380233
F17   F     F_    0.636620 0.127121 0.456778 -0.673692
F18   F     F_    0.604943 0.111930 0.598373 -0.555746
F19   F     F_    0.136620 0.627124 0.456779 -0.673695
F20   F     F_    0.104943 0.611931 0.598373 -0.555738
N29   N     N_R   0.376272 0.245681 0.543531 0.070855
O109  O     O_R   0.381947 0.361872 0.548513 -0.298010
O110  O     O_R   0.318578 0.188251 0.558119 -0.371967
N30   N     N_R   0.395378 0.204255 0.397513 0.129021
O111  O     O_R   0.408703 0.262580 0.338717 -0.228385
O112  O     O_R   0.331716 0.169501 0.410116 -0.257987
N31   N     N_R   0.876272 0.745683 0.543528 0.070855
O113  O     O_R   0.881950 0.861873 0.548518 -0.298007
O114  O     O_R   0.818584 0.688250 0.558135 -0.371982
N32   N     N_R   0.895377 0.704250 0.397513 0.129017
O115  O     O_R   0.908702 0.762568 0.338714 -0.228380
O116  O     O_R   0.831715 0.669504 0.410119 -0.258008

loop_
_geom_bond_atom_site_label_1
_geom_bond_atom_site_label_2
_geom_bond_distance
_ccdc_geom_bond_type
C18   O42   1.270437 A    
Cr11  O51   1.982773 S    
C16   C89   1.480164 S    
O4    C12   1.273754 A    
C37   C43   1.402636 A    
C29   C30   1.428410 A    
C26   C30   1.426957 A    
O39   C19   1.275779 A    
O20   Cr12  2.077542 S    
N19   O90   1.292354 A    
N1    O53   1.295331 A    
C49   C53   1.395200 A    
C99   C103  1.404158 A    
C31   C32   1.428394 A    
C77   N29   1.402391 S    
C36   N4    1.435628 S    
C70   C73   1.389931 A    
C40   C42   1.392359 A    
N4    O59   1.298444 A    
C10   C66   1.450103 S    
N19   O89   1.298612 A    
C33   N1    1.457892 S    
C71   C72   1.387102 A    
N3    O58   1.302127 A    
C81   C101  1.425885 A    
N13   O77   1.298812 A    
N22   O95   1.300830 A    
O15   Cr7   1.951100 S    
C57   C61   1.394645 A    
C14   C91   1.480165 S    
N32   O115  1.301222 A    
N8    O67   1.301687 A    
N12   O76   1.300839 A    
O36   Cr8   2.085984 S    
C96   C100  1.381759 A    
C58   N22   1.452324 S    
N14   O80   1.302104 A    
C90   C94   1.386293 A    
O25   C21   1.266406 A    
C22   C102  1.453042 S    
O30   C14   1.276243 A    
Cr3   O51   2.007907 S    
N23   O98   1.299907 A    
O46   Cr10  1.954904 S    
C62   C66   1.437801 A    
C79   C80   1.392872 A    
C63   C67   1.420366 A    
O21   C9    1.312144 A    
C28   C32   1.426959 A    
O10   Cr6   2.090397 S    
O23   Cr11  1.966001 S    
N6    O63   1.301686 A    
N25   O101  1.296830 A    
C54   C58   1.389283 A    
O32   Cr4   1.950179 S    
C1    O9    1.261792 A    
O44   Cr12  2.072163 S    
O7    C3    1.289918 A    
N24   O100  1.295556 A    
C2    C55   1.465954 S    
C85   N9    1.439875 S    
C98   C102  1.414773 A    
C45   N17   1.427748 S    
C39   C41   1.402646 A    
O11   Cr7   2.069750 S    
C7    O19   1.288587 A    
C88   C92   1.432052 A    
N2    O56   1.299827 A    
N9    O70   1.301089 A    
C43   F11   1.357455 S    
C47   N19   1.427777 S    
N31   O113  1.290857 A    
C42   F10   1.352448 S    
C38   C44   1.392386 A    
C81   N5    1.439190 S    
C41   F9    1.357473 S    
C27   C36   1.440513 A    
C15   O35   1.259877 A    
O3    Cr3   2.078114 S    
C46   C50   1.391527 A    
C26   C33   1.396187 A    
O47   C23   1.292144 A    
O2    Cr2   2.067978 S    
C45   C49   1.394869 A    
C60   C64   1.409294 A    
C34   N2    1.435618 S    
O2    C10   1.273770 A    
C57   N21   1.445616 S    
O42   Cr10  2.072163 S    
C78   N30   1.447087 S    
Cr5   O49   2.016856 S    
N11   O73   1.301515 A    
O18   Cr10  2.077542 S    
C86   C90   1.432053 A    
C23   C103  1.478936 S    
Cr7   O51   2.016856 S    
C25   C29   1.427581 A    
C52   F16   1.359139 S    
C24   C104  1.453042 S    
C88   N12   1.439635 S    
O29   Cr1   1.955614 S    
C3    O11   1.261777 A    
C72   C75   1.389929 A    
O34   Cr6   2.085984 S    
C82   C86   1.390120 A    
C40   N16   1.444684 S    
N22   O96   1.295743 A    
C33   C34   1.398653 A    
C21   C101  1.478936 S    
C5    C26   1.478813 S    
N13   O78   1.301925 A    
O31   Cr3   1.955614 S    
C71   C76   1.407726 A    
O24   Cr12  1.950393 S    
N20   O92   1.300932 A    
O30   Cr2   1.950179 S    
C60   N24   1.452272 S    
N7    O66   1.301099 A    
N12   O75   1.299485 A    
O22   C10   1.290904 A    
C31   C39   1.445190 A    
C91   C95   1.408926 A    
O48   Cr12  1.954904 S    
C4    O12   1.260330 A    
C100  C104  1.414772 A    
C93   F1    1.358072 S    
N14   O79   1.300153 A    
N23   O97   1.300137 A    
C2    O10   1.260354 A    
N5    O62   1.301099 A    
C29   C37   1.445139 A    
N15   O81   1.298814 A    
O38   C18   1.288873 A    
O16   Cr8   1.968052 S    
N10   O71   1.299485 A    
C61   N25   1.432591 S    
O7    Cr3   1.959916 S    
C98   F6    1.358303 S    
C84   N8    1.441718 S    
C83   N7    1.439192 S    
O27   C23   1.266406 A    
N5    O61   1.296488 A    
O6    Cr2   1.958572 S    
C97   F5    1.356603 S    
O13   C5    1.272234 A    
Cr4   O52   2.008683 S    
C52   C56   1.398340 A    
C51   C55   1.395309 A    
O43   Cr11  2.084494 S    
O48   C24   1.282054 A    
N25   O102  1.293608 A    
C94   F2    1.358786 S    
O41   Cr9   2.084494 S    
C58   C62   1.409105 A    
O15   C7    1.272279 A    
C69   C74   1.407725 A    
O5    C1    1.289972 A    
N17   O85   1.298531 A    
C83   C103  1.425886 A    
C87   N11   1.439874 S    
C96   F4    1.358787 S    
O39   Cr7   1.950798 S    
O3    C11   1.294549 A    
C69   F17   1.354762 S    
C35   C36   1.398653 A    
C13   O33   1.259878 A    
O40   Cr8   1.969700 S    
O8    C4    1.293882 A    
C61   C65   1.420359 A    
C86   N10   1.439635 S    
O37   Cr5   1.950798 S    
N26   O104  1.289873 A    
C79   N31   1.402388 S    
N29   O109  1.290856 A    
C73   C77   1.407965 A    
C75   C79   1.407967 A    
C72   F20   1.357456 S    
C13   C92   1.457751 S    
O47   Cr11  1.968379 S    
Cr2   O50   2.008683 S    
N16   O84   1.302104 A    
O32   C16   1.276243 A    
O35   Cr7   2.067818 S    
Cr1   O49   2.007907 S    
C71   F19   1.354762 S    
C50   C54   1.398445 A    
N28   O108  1.289276 A    
C51   F15   1.357463 S    
C46   N18   1.448876 S    
C18   C73   1.453968 S    
C47   C67   1.416338 A    
O26   C22   1.290193 A    
C50   F14   1.359112 S    
C95   F3    1.358073 S    
O21   Cr9   1.966001 S    
N9    O69   1.301515 A    
C48   N20   1.448976 S    
N21   O94   1.299900 A    
O8    Cr4   1.958572 S    
C80   N32   1.447090 S    
C69   C70   1.387100 A    
C84   C104  1.403017 A    
C95   C99   1.390214 A    
C38   N14   1.444683 S    
C99   F7    1.356604 S    
C43   C44   1.382657 A    
C53   C57   1.418158 A    
C8    C27   1.487338 S    
C93   C97   1.390214 A    
C59   C63   1.394765 A    
C48   C52   1.391397 A    
C49   F13   1.357492 S    
N2    O55   1.298455 A    
C8    O20   1.271195 A    
O14   Cr6   1.968052 S    
O26   Cr2   2.075510 S    
O25   Cr1   2.081330 S    
C9    C65   1.479609 S    
C7    C28   1.478774 S    
N27   O106  1.293618 A    
C32   C40   1.425095 A    
C5    O17   1.288637 A    
N20   O91   1.300659 A    
C64   C68   1.438240 A    
O37   C17   1.275780 A    
O22   Cr10  1.950393 S    
O28   C24   1.290193 A    
C12   C68   1.450103 S    
O1    C9    1.294438 A    
C48   C68   1.408833 A    
O14   C6    1.302224 A    
C19   O43   1.255814 A    
N8    O68   1.301246 A    
O5    Cr1   1.959916 S    
C84   C88   1.390122 A    
N30   O112  1.300756 A    
N26   O103  1.294866 A    
O17   Cr9   2.088070 S    
N18   O88   1.300934 A    
O6    C2    1.293965 A    
C15   C90   1.457750 S    
N4    O60   1.299809 A    
O24   C12   1.290874 A    
C17   O41   1.255816 A    
C92   C96   1.386293 A    
C55   C59   1.418176 A    
C70   F18   1.357457 S    
C44   F12   1.352459 S    
C41   C42   1.382641 A    
C14   O34   1.284904 A    
N32   O116  1.300757 A    
C87   C91   1.406843 A    
N6    O64   1.301247 A    
O29   C13   1.311308 A    
C62   N26   1.440487 S    
C25   C34   1.440504 A    
C20   O44   1.270438 A    
O1    Cr1   2.078114 S    
C81   C85   1.408691 A    
N24   O99   1.300853 A    
N27   O105  1.296834 A    
C11   C67   1.479934 S    
N7    O65   1.296488 A    
Cr8   O52   1.982080 S    
N3    O57   1.295327 A    
Cr10  O50   2.016854 S    
C77   C78   1.392877 A    
O9    Cr5   2.069750 S    
C45   C65   1.416258 A    
O13   Cr5   1.951100 S    
Cr6   O50   1.982080 S    
O46   C22   1.282053 A    
Cr12  O52   2.016854 S    
C37   N13   1.445442 S    
C19   C76   1.426651 S    
C100  F8    1.358302 S    
O45   C21   1.292144 A    
C85   C89   1.406844 A    
C74   C78   1.390792 A    
N18   O87   1.300660 A    
N29   O110  1.299125 A    
C6    C25   1.487405 S    
O33   Cr5   2.067818 S    
C17   C74   1.426654 S    
C46   C66   1.408750 A    
O23   C11   1.312239 A    
N15   O82   1.301930 A    
N31   O114  1.299123 A    
C82   N6    1.441717 S    
C89   C93   1.408927 A    
N16   O83   1.300137 A    
Cr9   O49   1.982773 S    
O4    Cr4   2.067978 S    
N10   O72   1.300840 A    
N28   O107  1.294761 A    
C94   C98   1.381758 A    
C20   C75   1.453969 S    
C27   C31   1.427604 A    
O19   Cr11  2.088070 S    
O40   C20   1.288873 A    
C16   O36   1.284905 A    
C35   N3    1.457967 S    
N30   O111  1.301222 A    
C30   C38   1.425088 A    
N17   O86   1.292327 A    
O27   Cr3   2.081330 S    
C6    O18   1.271221 A    
O28   Cr4   2.075510 S    
C83   C87   1.408691 A    
N11   O74   1.301089 A    
C1    C56   1.419180 S    
C64   N28   1.440908 S    
O45   Cr9   1.968379 S    
C59   N23   1.445609 S    
C47   C51   1.395139 A    
C4    C53   1.465594 S    
C82   C102  1.403019 A    
O12   Cr8   2.090397 S    
C76   C80   1.390790 A    
N21   O93   1.300135 A    
C3    C54   1.419106 S    
O31   C15   1.311308 A    
O16   C8    1.302155 A    
C97   C101  1.404158 A    
C56   C60   1.389391 A    
C28   C35   1.396271 A    
C39   N15   1.445442 S    
O38   Cr6   1.969700 S    
N1    O54   1.302139 A    
C63   N27   1.432566 S    
