data_mof_unit_28534.cif
_audit_creation_date              2012-12-11T15:28:42-0500
_audit_creation_method            fapswitch 2.2
_symmetry_space_group_name_H-M    P1
_symmetry_Int_Tables_number       1
_space_group_crystal_system       triclinic
_cell_length_a                    6.948629
_cell_length_b                    19.58706
_cell_length_c                    23.329141
_cell_angle_alpha                 95.912809
_cell_angle_beta                  91.218562
_cell_angle_gamma                 88.616145
_cell_volume                      3156.79434308

loop_
_atom_site_label
_atom_site_type_symbol
_atom_type_description
_atom_site_fract_x
_atom_site_fract_y
_atom_site_fract_z
_atom_type_partial_charge
O1    O     O_R   0.617180 0.809390 0.808140 -0.512327
O2    O     O_R   0.382820 0.190610 0.191860 -0.511120
O3    O     O_R   0.293300 0.672410 0.795490 -0.534415
O4    O     O_R   0.706700 0.327590 0.204510 -0.540105
O5    O     O_R   0.117220 0.690610 0.691850 -0.522808
O6    O     O_R   0.882780 0.309390 0.308150 -0.524227
C1    C     C_R   0.465227 0.647596 0.805133 0.713473
C2    C     C_R   0.535380 0.352392 0.195203 0.724274
O7    O     O_R   0.287840 0.807750 0.814460 -0.529832
O8    O     O_R   0.712160 0.192250 0.185540 -0.529438
O9    O     O_R   0.111720 0.826910 0.710960 -0.542242
O10   O     O_R   0.888280 0.173090 0.289040 -0.540655
C3    C     C_R   0.456475 0.830844 0.833142 0.717338
C4    C     C_R   0.543476 0.169212 0.166824 0.725349
O11   O     O_R   0.622680 0.673080 0.789040 -0.537464
O12   O     O_R   0.377320 0.326920 0.210960 -0.532409
O13   O     O_3   0.448820 0.756130 0.716020 -0.358990
O14   O     O_3   0.551180 0.243870 0.283980 -0.360437
V1    V     V_3+5 0.176220 0.748860 0.756300 1.404312
V2    V     V_3+5 0.823780 0.251140 0.243700 1.399766
O15   O     O_R   0.781670 0.827580 0.704500 -0.523186
O16   O     O_R   0.218330 0.172420 0.295500 -0.520114
C5    C     C_R   0.948011 0.851593 0.693406 0.783392
C6    C     C_R   0.052631 0.148190 0.306563 0.765883
O17   O     O_R   0.787130 0.692240 0.685530 -0.527244
O18   O     O_R   0.212870 0.307760 0.314470 -0.526944
C7    C     C_R   0.956098 0.669253 0.666753 0.703909
C8    C     C_R   0.043891 0.330763 0.333239 0.709365
V3    V     V_3+5 0.675510 0.751130 0.743690 1.428373
V4    V     V_3+5 0.324490 0.248870 0.256310 1.429772
O19   O     O_3   0.952780 0.743870 0.783980 -0.358395
O20   O     O_3   0.047220 0.256130 0.216020 -0.359826
C9    C     C_1   0.966594 0.617230 0.614690 -0.212106
C10   C     C_1   0.033352 0.382821 0.385286 -0.206517
C11   C     C_1   0.978135 0.573722 0.571875 0.002561
C12   C     C_1   0.021768 0.426348 0.428089 0.007530
C13   C     C_1   0.993356 0.521909 0.521287 0.003597
C14   C     C_1   0.006521 0.478171 0.478672 0.005064
C15   C     C_R   0.949477 0.915547 0.663787 -0.198261
C16   C     C_R   0.061563 0.084413 0.336830 -0.205710
C17   C     C_R   0.886669 0.039451 0.667918 0.375937
C18   C     C_R   0.217544 0.971985 0.343058 0.365448
C19   C     C_R   0.895543 0.977850 0.695137 0.128572
C20   C     C_R   0.170462 0.028185 0.311462 0.135493
C21   C     C_R   0.992661 0.914181 0.604577 0.207256
C22   C     C_R   0.992417 0.082580 0.393445 0.200096
C23   C     C_R   0.008189 0.977009 0.578393 -0.073992
C24   C     C_R   0.071119 0.032957 0.429492 -0.073192
C25   C     C_R   0.941820 0.039193 0.609356 -0.103473
C26   C     C_R   0.179707 0.976116 0.402990 -0.098832
C27   C     C_R   0.082263 0.979288 0.521384 -0.086502
C28   C     C_R   0.043263 0.037542 0.490955 -0.100397
C29   C     C_R   0.000384 0.100413 0.524628 0.299133
C30   C     C_R   0.214278 0.929022 0.496306 0.299217
C31   C     C_R   0.939701 0.100855 0.582037 0.399238
C32   C     C_R   0.254424 0.925229 0.437084 0.384726
C33   C     C_R   0.490874 0.585173 0.835239 -0.158184
C34   C     C_R   0.518659 0.413717 0.163950 -0.152034
C35   C     C_R   0.659626 0.474666 0.836295 0.296289
C36   C     C_R   0.465905 0.537493 0.169141 0.308934
C37   C     C_R   0.605721 0.532264 0.808423 -0.253909
C38   C     C_R   0.496796 0.477278 0.196109 -0.253466
C39   C     C_R   0.427384 0.581144 0.891903 0.206184
C40   C     C_R   0.512373 0.408798 0.103215 0.216130
C41   C     C_R   0.505696 0.528557 0.924471 0.000889
C42   C     C_R   0.506591 0.469987 0.074628 0.005554
C43   C     C_R   0.611378 0.473116 0.894705 0.025840
C44   C     C_R   0.470101 0.533751 0.108168 0.022898
C45   C     C_R   0.488561 0.529948 0.985851 0.073742
C46   C     C_R   0.536712 0.470249 0.013952 0.076661
C47   C     C_R   0.634240 0.415664 0.982007 -0.157752
C48   C     C_R   0.449353 0.591454 0.020777 -0.156123
C49   C     C_R   0.671964 0.417356 0.924149 -0.198330
C50   C     C_R   0.444156 0.593499 0.080313 -0.192240
H1    H     H_    0.752212 0.374314 0.902824 0.155743
H2    H     H_    0.421909 0.643206 0.104398 0.150171
H3    H     H_    0.495523 0.478714 0.242598 0.127902
H4    H     H_    0.654805 0.536800 0.765272 0.137318
H5    H     H_    0.699248 0.373314 0.001985 0.166194
H6    H     H_    0.440009 0.640444 0.003554 0.161800
C51   C     C_1   0.467125 0.882991 0.885133 -0.215736
C52   C     C_1   0.532663 0.117177 0.114769 -0.216251
C53   C     C_1   0.478493 0.926534 0.927936 -0.002806
C54   C     C_1   0.521132 0.073701 0.071927 -0.005230
C55   C     C_1   0.493343 0.978304 0.978578 -0.003080
C56   C     C_1   0.506177 0.021968 0.021263 -0.002964
O21   O     O_3   0.886124 0.162243 0.613018 -0.590399
H7    H     H_    0.861497 0.198194 0.586704 0.333945
O22   O     O_3   0.377757 0.874312 0.412546 -0.598427
H8    H     H_    0.396426 0.837451 0.438294 0.328385
N1    N     N_2   0.837822 0.127704 0.412995 -0.474017
H9    H     H_    0.833814 0.174903 0.397133 0.257157
C57   C     C_3   0.651647 0.095860 0.410623 -0.461450
H10   H     H_    0.541750 0.133250 0.429436 0.177385
H11   H     H_    0.609291 0.079392 0.365166 0.187158
H12   H     H_    0.654891 0.050701 0.435849 0.203216
N2    N     N_2   0.000263 0.849737 0.569960 -0.484483
H13   H     H_    0.056121 0.809116 0.590258 0.245717
C58   C     C_3   0.824573 0.833014 0.537744 -0.475288
H14   H     H_    0.705671 0.826535 0.567717 0.192789
H15   H     H_    0.846453 0.784267 0.509649 0.193460
H16   H     H_    0.784067 0.874029 0.509912 0.222262
N3    N     N_2   0.241486 0.030234 0.254656 -0.516905
H17   H     H_    0.374821 0.007189 0.247094 0.258789
C59   C     C_3   0.102163 0.014350 0.208499 -0.534826
H18   H     H_    0.056831 0.960251 0.207568 0.185600
H19   H     H_    0.167722 0.021602 0.166614 0.198283
H20   H     H_    0.973508 0.048972 0.213965 0.200278
N4    N     N_2   0.835591 0.976740 0.753175 -0.524072
H21   H     H_    0.713673 0.005747 0.764258 0.260584
C60   C     C_3   0.988970 0.983567 0.796192 -0.539573
H22   H     H_    0.053775 0.035014 0.797721 0.187647
H23   H     H_    0.102766 0.943515 0.786547 0.206411
H24   H     H_    0.930273 0.977181 0.839170 0.200014
O23   O     O_3   0.825657 0.100618 0.697745 -0.597789
H25   H     H_    0.844011 0.098856 0.739667 0.300598
O24   O     O_3   0.305908 0.913391 0.316494 -0.601573
H26   H     H_    0.274209 0.908902 0.274759 0.296373
O25   O     O_3   0.044903 0.162944 0.506284 -0.637649
H27   H     H_    0.155160 0.155930 0.479875 0.293781
O26   O     O_3   0.327963 0.889134 0.529745 -0.649943
H28   H     H_    0.346089 0.914406 0.568460 0.296619
N5    N     N_2   0.489139 0.343054 0.071626 -0.540385
H29   H     H_    0.558808 0.302630 0.088917 0.239738
C61   C     C_3   0.292868 0.328023 0.053656 -0.526795
H30   H     H_    0.289561 0.277816 0.026838 0.194969
H31   H     H_    0.232970 0.368064 0.027435 0.207578
H32   H     H_    0.201890 0.325287 0.091937 0.196419
N6    N     N_2   0.276884 0.626258 0.914361 -0.540095
H33   H     H_    0.279523 0.675649 0.902945 0.250609
C62   C     C_3   0.087374 0.596937 0.909245 -0.489164
H34   H     H_    0.980822 0.633778 0.930600 0.186828
H35   H     H_    0.085314 0.548775 0.930571 0.201577
H36   H     H_    0.044682 0.585918 0.863085 0.196501
N7    N     N_2   0.776114 0.420674 0.807930 -0.525784
H37   H     H_    0.913028 0.416251 0.825314 0.252424
C63   C     C_3   0.764195 0.407192 0.745777 -0.500421
H38   H     H_    0.829175 0.355800 0.732553 0.219496
H39   H     H_    0.845437 0.446037 0.725272 0.178064
H40   H     H_    0.611462 0.407244 0.730649 0.208429
N8    N     N_2   0.427861 0.601975 0.202232 -0.523929
H41   H     H_    0.296762 0.624625 0.193103 0.255275
C64   C     C_3   0.486768 0.611844 0.262359 -0.518616
H42   H     H_    0.476771 0.667343 0.277761 0.214921
H43   H     H_    0.638611 0.594212 0.267863 0.204228
H44   H     H_    0.390311 0.583886 0.288778 0.186015

loop_
_geom_bond_atom_site_label_1
_geom_bond_atom_site_label_2
_ccdc_geom_bond_type
C34   C38   A    
C64   H44   S    
C42   C44   A    
O21   H7    S    
C39   C41   A    
C57   H10   S    
C64   H43   S    
C49   H1    S    
C38   H3    S    
C60   H22   S    
O4    C2    A    
C62   H36   S    
V1    O19   S    
C47   H5    S    
N2    H13   S    
N5    H29   S    
C23   C25   A    
C55   C56   T    
C7    C9    S    
C16   C22   A    
C59   H19   S    
O9    V1    S    
C50   H2    S    
C59   H18   S    
C11   C13   S    
C54   C56   S    
O3    C1    A    
N4    C60   S    
C9    C11   T    
C5    C15   S    
N5    C61   S    
O12   V4    S    
C64   H42   S    
C3    C51   S    
O13   V3    S    
C36   C38   A    
C35   N7    S    
O7    C3    A    
N2    C58   S    
O5    C7    A    
O7    V1    S    
O6    C8    A    
O8    V2    S    
C41   C43   A    
C61   H32   S    
O3    V1    S    
C46   C47   A    
C43   C49   A    
C10   C12   T    
C15   C21   A    
C2    C34   S    
C21   C23   A    
C8    C10   S    
C2    O12   A    
O17   V3    S    
C17   C19   A    
C18   C20   A    
C17   O23   S    
C17   C25   A    
C59   H20   S    
C20   N3    S    
O11   V3    S    
C22   C24   A    
C29   C31   A    
C34   C40   A    
C63   H40   S    
C30   C32   A    
C35   C37   A    
C27   C28   A    
N7    H37   S    
C48   C50   A    
O8    C4    A    
N1    H9    S    
C47   C49   A    
C15   C19   A    
C1    O11   A    
C25   C31   A    
O15   V3    S    
C26   C32   A    
C48   H6    S    
N8    C64   S    
C40   C42   A    
C45   C48   A    
C13   C14   T    
C36   N8    S    
N1    C57   S    
C63   H39   S    
C35   C43   A    
C58   H14   S    
C24   C28   A    
C37   H4    S    
O10   V2    S    
O1    V3    S    
C60   H23   S    
C24   C26   A    
O26   H28   S    
C18   C26   A    
O14   V4    S    
C32   O22   S    
C53   C55   S    
C30   O26   S    
O18   V4    S    
C57   H12   S    
C52   C54   T    
O15   C5    A    
C61   H30   S    
N3    C59   S    
O16   C6    A    
O1    C3    A    
C4    C52   S    
C62   H34   S    
C28   C29   A    
N6    H33   S    
V2    O20   S    
N7    C63   S    
C6    C16   S    
O16   V4    S    
C58   H15   S    
C33   C39   A    
C62   H35   S    
C51   C53   T    
C23   C27   A    
O25   H27   S    
C29   O25   S    
C18   O24   S    
C33   C37   A    
O5    V1    S    
O17   C7    A    
C40   N5    S    
O6    V2    S    
C63   H38   S    
O10   C6    A    
O18   C8    A    
O2    V4    S    
C27   C30   A    
C12   C14   S    
V3    O19   S    
C21   N2    S    
O24   H26   S    
V4    O20   S    
C42   C46   A    
C41   C45   A    
O9    C5    A    
O13   V1    S    
C1    C33   S    
C60   H24   S    
O14   V2    S    
C39   N6    S    
C31   O21   S    
C45   C46   A    
O2    C4    A    
O4    V2    S    
C16   C20   A    
C58   H16   S    
C36   C44   A    
C57   H11   S    
N4    H21   S    
N3    H17   S    
C61   H31   S    
C19   N4    S    
O22   H8    S    
N8    H41   S    
C44   C50   A    
C22   N1    S    
O23   H25   S    
N6    C62   S    
