data_mof_unit_45673.cif
_audit_creation_date              2013-03-05T16:15:40-0500
_audit_creation_method            fapswitch 2.2
_symmetry_space_group_name_H-M    P1
_symmetry_Int_Tables_number       1
_space_group_crystal_system       triclinic
_cell_length_a                    24.575248
_cell_length_b                    29.090357
_cell_length_c                    8.624096
_cell_angle_alpha                 89.968339
_cell_angle_beta                  95.967004
_cell_angle_gamma                 90.022634
_cell_volume                      6131.98402014

loop_
_atom_site_label
_atom_site_type_symbol
_atom_site_description
_atom_site_fract_x
_atom_site_fract_y
_atom_site_fract_z
_atom_type_partial_charge
P1    P     P_3+3 0.888690 0.449140 0.046940 0.645814
P2    P     P_3+3 0.888690 0.550860 0.546940 0.631178
P3    P     P_3+3 0.388690 0.949140 0.046940 0.666195
P4    P     P_3+3 0.388690 0.050860 0.546940 0.660309
O1    O     O_2   0.893910 0.433590 0.874460 -0.278170
O2    O     O_2   0.893910 0.566410 0.374460 -0.301275
O3    O     O_2   0.393910 0.933590 0.874460 -0.283333
O4    O     O_2   0.393910 0.066410 0.374460 -0.281802
O5    O     O_3   0.938210 0.476710 0.126870 -0.277874
O6    O     O_3   0.938210 0.523290 0.626870 -0.256254
O7    O     O_3   0.438210 0.976710 0.126870 -0.261143
O8    O     O_3   0.438210 0.023290 0.626870 -0.257068
O9    O     O_3   0.981570 0.392580 0.636990 -0.280035
O10   O     O_3   0.981570 0.607420 0.136990 -0.283624
O11   O     O_3   0.481570 0.892580 0.636990 -0.281916
O12   O     O_3   0.481570 0.107420 0.136990 -0.285478
O13   O     O_2   0.880773 0.369766 0.670106 -0.236961
O14   O     O_2   0.880288 0.629038 0.165434 -0.236471
O15   O     O_2   0.380224 0.870740 0.668890 -0.236710
O16   O     O_2   0.380974 0.130576 0.170780 -0.238314
O17   O     O_3   0.832005 0.485749 0.008926 -0.503536
O18   O     O_3   0.833835 0.512458 0.507496 -0.549497
O19   O     O_3   0.332919 0.986823 0.008384 -0.492132
O20   O     O_3   0.334849 0.011917 0.505229 -0.518452
O21   O     O_3   0.945969 0.300416 0.684236 -0.596458
O22   O     O_3   0.944520 0.699161 0.184919 -0.588582
O23   O     O_3   0.444800 0.800908 0.685188 -0.596454
O24   O     O_3   0.447287 0.199513 0.180178 -0.583491
C1    C     C_3   0.956133 0.223440 0.595899 0.099992
C2    C     C_3   0.951301 0.776743 0.098015 0.109700
C3    C     C_3   0.454252 0.723569 0.599429 0.101980
C4    C     C_3   0.455553 0.278639 0.114125 0.133331
H1    H     H_    0.956480 0.211320 0.718332 0.074464
H2    H     H_    0.951419 0.788552 0.220618 0.072435
H3    H     H_    0.454650 0.711847 0.722275 0.074113
H4    H     H_    0.470677 0.287508 0.235892 0.060615
H5    H     H_    0.912954 0.224162 0.542085 0.109372
H6    H     H_    0.908086 0.774837 0.044929 0.102837
H7    H     H_    0.411029 0.724390 0.545963 0.107759
H8    H     H_    0.409963 0.279760 0.100364 0.086860
P5    P     P_3+3 0.111080 0.448680 0.642780 0.570196
P6    P     P_3+3 0.111080 0.551320 0.142780 0.601722
P7    P     P_3+3 0.611080 0.948680 0.642780 0.570103
P8    P     P_3+3 0.611080 0.051320 0.142780 0.601427
P9    P     P_3+3 0.068691 0.349758 0.087369 0.602019
P10   P     P_3+3 0.068489 0.650290 0.586377 0.567942
P11   P     P_3+3 0.568825 0.849828 0.087036 0.601087
P12   P     P_3+3 0.568518 0.150286 0.586859 0.566494
O25   O     O_2   0.105800 0.433150 0.815270 -0.340500
O26   O     O_2   0.105800 0.566850 0.315270 -0.388816
O27   O     O_2   0.605800 0.933150 0.815270 -0.341798
O28   O     O_2   0.605800 0.066850 0.315270 -0.390186
O29   O     O_3   0.018000 0.392500 0.052760 -0.317929
O30   O     O_3   0.018000 0.607500 0.552760 -0.311114
O31   O     O_3   0.518000 0.892500 0.052760 -0.319668
O32   O     O_3   0.518000 0.107500 0.552760 -0.309653
O33   O     O_2   0.112873 0.360624 0.977796 -0.263341
O34   O     O_2   0.113247 0.639234 0.478623 -0.342305
O35   O     O_2   0.612701 0.860517 0.976326 -0.264733
O36   O     O_2   0.612963 0.139688 0.477594 -0.346668
O37   O     O_3   0.167262 0.487596 0.652264 -0.675643
O38   O     O_3   0.171424 0.518247 0.138505 -0.604564
O39   O     O_3   0.667204 0.987682 0.652480 -0.675013
O40   O     O_3   0.671471 0.018340 0.138387 -0.603379
O41   O     O_3   0.040748 0.298065 0.013894 -0.474207
O42   O     O_3   0.040250 0.701742 0.511631 -0.462816
O43   O     O_3   0.540749 0.798059 0.014728 -0.474774
O44   O     O_3   0.540077 0.201991 0.515034 -0.468959
C5    C     C_3   0.007449 0.279289 0.120708 0.174784
C6    C     C_3   0.007594 0.720872 0.619411 0.191406
C7    C     C_3   0.507746 0.779403 0.122525 0.173868
C8    C     C_3   0.506888 0.220217 0.623091 0.174458
H9    H     H_    0.977784 0.305058 0.157213 0.055900
H10   H     H_    0.978138 0.695248 0.658172 0.054153
H11   H     H_    0.478226 0.805224 0.159491 0.055204
H12   H     H_    0.476260 0.194575 0.654905 0.058450
H13   H     H_    0.033393 0.266162 0.224706 0.091288
H14   H     H_    0.034055 0.734249 0.721999 0.089887
H15   H     H_    0.533938 0.766339 0.226157 0.091041
H16   H     H_    0.532722 0.231781 0.729338 0.114845
C9    C     C_3   0.975465 0.239399 0.040321 -0.053215
C10   C     C_3   0.975276 0.760596 0.539228 -0.066032
C11   C     C_3   0.475538 0.739488 0.043094 -0.054504
C12   C     C_3   0.476672 0.261582 0.547127 -0.070642
H17   H     H_    0.943333 0.253185 0.952542 0.136769
H18   H     H_    0.942510 0.746624 0.453809 0.138819
H19   H     H_    0.443144 0.753261 0.956066 0.134323
H20   H     H_    0.444891 0.249413 0.455323 0.134356
H21   H     H_    0.003870 0.217802 0.979204 0.169815
H22   H     H_    0.003259 0.781914 0.475601 0.172511
H23   H     H_    0.503713 0.717871 0.981243 0.171378
H24   H     H_    0.506570 0.283396 0.492369 0.151182
C13   C     C_3   0.196135 0.499622 0.279173 0.712795
C14   C     C_3   0.186198 0.502078 0.805397 0.673126
C15   C     C_3   0.696351 0.999895 0.279109 0.711399
C16   C     C_3   0.686230 0.002001 0.805767 0.674235
H25   H     H_    0.166182 0.499313 0.366995 0.026524
H26   H     H_    0.158001 0.491464 0.888146 0.139804
H27   H     H_    0.666392 0.999407 0.366928 0.026405
H28   H     H_    0.657973 0.991411 0.888380 0.138952
C17   C     C_3   0.248258 0.528618 0.341204 0.274046
C18   C     C_3   0.241909 0.480527 0.866789 0.238874
C19   C     C_3   0.748204 0.029224 0.340996 0.276999
C20   C     C_3   0.741838 0.980253 0.867008 0.239516
H29   H     H_    0.245730 0.531003 0.467212 -0.011336
H30   H     H_    0.249461 0.492979 0.987188 0.153008
H31   H     H_    0.745581 0.031682 0.466904 -0.013068
H32   H     H_    0.749261 0.992337 0.987839 0.153014
Ba1   Ba    Ba6+2 0.999910 0.466800 0.844920 1.884228
Ba2   Ba    Ba6+2 0.999910 0.533200 0.344920 1.856492
Ba3   Ba    Ba6+2 0.499910 0.966800 0.844920 1.892742
Ba4   Ba    Ba6+2 0.499910 0.033200 0.344920 1.871995
C21   C     C_3   0.809864 0.496785 0.148144 0.242969
C22   C     C_3   0.798017 0.511965 0.624238 0.189239
C23   C     C_3   0.295085 0.981706 0.119608 0.210631
C24   C     C_3   0.292646 0.017346 0.602270 0.237394
H33   H     H_    0.796438 0.533122 0.143648 0.186050
H34   H     H_    0.779866 0.477055 0.625002 0.201565
H35   H     H_    0.305271 0.006422 0.215914 0.162080
H36   H     H_    0.299954 0.992884 0.701091 0.167579
H37   H     H_    0.840828 0.494957 0.249012 0.121787
H38   H     H_    0.819449 0.516330 0.741123 0.147152
H39   H     H_    0.294285 0.946636 0.168222 0.037562
H40   H     H_    0.289399 0.052542 0.649317 0.075838
C25   C     C_3   0.759887 0.467164 0.171728 -0.134070
C26   C     C_3   0.751306 0.546465 0.587828 -0.143221
C27   C     C_3   0.236656 0.989929 0.044205 -0.089947
C28   C     C_3   0.238136 0.006351 0.505691 -0.075667
H41   H     H_    0.769729 0.430079 0.165844 0.141192
H42   H     H_    0.738121 0.546625 0.460627 0.175711
H43   H     H_    0.230850 0.971640 0.931081 0.200250
H44   H     H_    0.244039 0.980096 0.415658 0.144814
H45   H     H_    0.747515 0.474211 0.289753 0.141070
H46   H     H_    0.765540 0.581403 0.622569 0.142109
H47   H     H_    0.207021 0.975146 0.119637 0.097454
H48   H     H_    0.222553 0.037928 0.443626 0.175578
O45   O     O_3   0.061740 0.523180 0.062830 -0.268251
O46   O     O_3   0.061740 0.476820 0.562830 -0.259972
O47   O     O_3   0.561740 0.023180 0.062830 -0.268676
O48   O     O_3   0.561740 0.976820 0.562830 -0.260195
P13   P     P_3+3 0.929069 0.647495 0.085338 0.606283
P14   P     P_3+3 0.929194 0.352161 0.586579 0.604074
P15   P     P_3+3 0.429225 0.147582 0.085136 0.603289
P16   P     P_3+3 0.428672 0.852622 0.586523 0.603404
C29   C     C_3   0.978849 0.272649 0.597038 0.656835
C30   C     C_3   0.976024 0.728238 0.097744 0.652711
C31   C     C_3   0.477317 0.772646 0.598481 0.653455
C32   C     C_3   0.473305 0.229386 0.081071 0.620653
H49   H     H_    0.978366 0.283405 0.472958 -0.075138
H50   H     H_    0.975777 0.717899 0.973389 -0.068985
H51   H     H_    0.476640 0.782959 0.473942 -0.069397
H52   H     H_    0.461364 0.222988 0.955372 -0.029305
N1    N     N_R   0.246913 0.709442 0.164198 -0.013656
N2    N     N_R   0.248230 0.290694 0.664117 -0.031000
N3    N     N_R   0.746564 0.209618 0.166081 -0.016667
N4    N     N_R   0.748636 0.791057 0.665526 -0.030873
N5    N     N_R   0.784998 0.241055 0.209797 -0.024081
N6    N     N_R   0.787050 0.759641 0.709158 -0.027704
N7    N     N_R   0.285374 0.740866 0.207820 -0.022962
N8    N     N_R   0.286241 0.258977 0.707977 -0.024887
C33   C     C_2   0.891112 0.391557 0.300514 0.181572
C34   C     C_2   0.890524 0.608380 0.799376 0.204730
C35   C     C_2   0.391502 0.891606 0.298882 0.182780
C36   C     C_2   0.390562 0.107694 0.799211 0.197311
C37   C     C_3   0.905364 0.347675 0.368907 -0.031947
C38   C     C_3   0.905994 0.652049 0.867774 -0.040095
C39   C     C_3   0.405210 0.847829 0.368825 -0.039038
C40   C     C_3   0.404732 0.151463 0.868218 -0.056312
C41   C     C_2   0.860806 0.315981 0.332170 -0.165831
C42   C     C_2   0.862118 0.684292 0.831017 -0.164934
C43   C     C_2   0.360693 0.816093 0.331499 -0.164601
C44   C     C_2   0.360342 0.183295 0.831933 -0.161539
C45   C     C_2   0.829264 0.318361 0.184284 -0.070516
C46   C     C_2   0.831520 0.682682 0.681986 -0.063876
C47   C     C_2   0.329422 0.818291 0.183066 -0.071191
C48   C     C_2   0.329028 0.181251 0.683940 -0.064102
C49   C     C_2   0.839822 0.356481 0.084395 0.182543
C50   C     C_2   0.842435 0.645029 0.581144 0.169447
C51   C     C_2   0.340083 0.856350 0.083071 0.184581
C52   C     C_2   0.339372 0.143271 0.583808 0.186713
C53   C     C_1   0.872176 0.393910 0.144385 -0.126803
C54   C     C_1   0.872772 0.606550 0.642294 -0.119671
C55   C     C_1   0.372634 0.893580 0.143033 -0.128569
C56   C     C_1   0.371663 0.105883 0.643459 -0.135834
N9    N     N_R   0.742938 0.292526 0.028163 -0.012142
N10   N     N_R   0.746121 0.708814 0.523450 -0.015548
N11   N     N_R   0.242787 0.792597 0.028034 -0.014415
N12   N     N_R   0.242499 0.207223 0.530318 -0.008157
N13   N     N_R   0.204684 0.761188 0.983539 -0.040516
N14   N     N_R   0.204821 0.238917 0.485640 -0.033575
N15   N     N_R   0.704879 0.261094 0.983551 -0.029631
N16   N     N_R   0.708033 0.740204 0.479157 -0.038692
C57   C     C_R   0.205993 0.718641 0.049293 0.193588
C58   C     C_R   0.207007 0.281612 0.550119 0.189827
C59   C     C_R   0.705940 0.218674 0.050201 0.195825
C60   C     C_R   0.708549 0.782280 0.547937 0.190381
C61   C     C_R   0.784721 0.283136 0.139946 0.242286
C62   C     C_R   0.787291 0.717930 0.637272 0.255999
C63   C     C_R   0.284847 0.783077 0.138816 0.243937
C64   C     C_R   0.284896 0.216640 0.640028 0.254443
C65   C     C_R   0.153972 0.641595 0.090087 -0.094879
C66   C     C_R   0.157113 0.359612 0.589029 -0.200959
C67   C     C_R   0.653114 0.142076 0.092018 -0.117833
C68   C     C_R   0.657467 0.859676 0.588686 -0.199573
C69   C     C_R   0.116778 0.606913 0.033923 0.181126
C70   C     C_R   0.119390 0.393897 0.532727 0.099290
C71   C     C_R   0.616564 0.107076 0.034748 0.175325
C72   C     C_R   0.619657 0.893927 0.532543 0.098316
C73   C     C_R   0.099388 0.651823 0.792342 0.022643
C74   C     C_R   0.101055 0.348610 0.292388 0.050353
C75   C     C_R   0.599973 0.151569 0.792212 0.016125
C76   C     C_R   0.601656 0.848826 0.291640 0.052935
C77   C     C_R   0.137055 0.685823 0.848064 -0.304205
C78   C     C_R   0.138222 0.314382 0.348985 -0.278257
C79   C     C_R   0.637730 0.185493 0.847862 -0.255137
C80   C     C_R   0.639177 0.814792 0.347657 -0.277179
C81   C     C_R   0.164452 0.682729 0.992439 0.076798
C82   C     C_R   0.166096 0.317772 0.492899 0.067971
C83   C     C_R   0.664467 0.182738 0.993197 0.093741
C84   C     C_R   0.667047 0.818138 0.491633 0.065790
C85   C     C_R   0.088629 0.612502 0.893287 0.071658
C86   C     C_R   0.091032 0.388091 0.392589 0.066903
C87   C     C_R   0.589079 0.112370 0.893210 0.067450
C88   C     C_R   0.591491 0.888193 0.392142 0.066849
H53   H     H_    0.852560 0.289527 0.415452 0.171713
H54   H     H_    0.853201 0.710105 0.915629 0.170636
H55   H     H_    0.352246 0.789738 0.414908 0.171982
H56   H     H_    0.352182 0.209688 0.915479 0.174084
H57   H     H_    0.173928 0.639228 0.206798 0.196193
H58   H     H_    0.179787 0.363523 0.702228 0.213956
H59   H     H_    0.672577 0.139941 0.209370 0.198620
H60   H     H_    0.679875 0.863447 0.702272 0.214764
H61   H     H_    0.144974 0.714016 0.771479 0.183274
H62   H     H_    0.145326 0.285725 0.273576 0.179934
H63   H     H_    0.645988 0.213501 0.770910 0.177550
H64   H     H_    0.646517 0.786322 0.271722 0.179114
N17   N     N_R   0.035500 0.274811 0.668801 0.240514
O49   O     O_R   0.061883 0.238306 0.721869 -0.353801
O50   O     O_R   0.059630 0.314491 0.684070 -0.373612
N18   N     N_R   0.032851 0.727541 0.168446 0.240051
O51   O     O_R   0.058190 0.764752 0.219387 -0.360668
O52   O     O_R   0.058400 0.688496 0.183703 -0.387500
N19   N     N_R   0.534118 0.774710 0.669165 0.241291
O53   O     O_R   0.560234 0.738262 0.723880 -0.353105
O54   O     O_R   0.558825 0.814200 0.680630 -0.375910
N20   N     N_R   0.532833 0.224988 0.110830 0.212179
O55   O     O_R   0.554547 0.193024 0.202731 -0.346517
O56   O     O_R   0.564568 0.250609 0.035333 -0.397782
N21   N     N_R   0.247525 0.575280 0.278793 0.217877
O57   O     O_R   0.256165 0.581894 0.134082 -0.340242
O58   O     O_R   0.252404 0.609834 0.375040 -0.427012
N22   N     N_R   0.239554 0.430096 0.872477 0.213793
O59   O     O_R   0.208375 0.410302 0.965286 -0.347812
O60   O     O_R   0.274497 0.404842 0.807248 -0.344121
N23   N     N_R   0.747140 0.075841 0.278111 0.218507
O61   O     O_R   0.755587 0.082401 0.133228 -0.339060
O62   O     O_R   0.751904 0.110474 0.374037 -0.427141
N24   N     N_R   0.739383 0.929820 0.871087 0.213050
O63   O     O_R   0.708821 0.909807 0.965153 -0.349056
O64   O     O_R   0.773736 0.904735 0.802937 -0.350179
N25   N     N_R   0.302006 0.508090 0.323596 0.270192
O65   O     O_R   0.344383 0.523273 0.411778 -0.267727
O66   O     O_R   0.310609 0.483059 0.203927 -0.335519
N26   N     N_R   0.287421 0.496268 0.783556 0.242391
O67   O     O_R   0.295883 0.478410 0.650267 -0.371779
O68   O     O_R   0.324403 0.523318 0.853338 -0.285788
N27   N     N_R   0.802124 0.008957 0.323948 0.269919
O69   O     O_R   0.844273 0.024212 0.412918 -0.269454
O70   O     O_R   0.811103 0.984243 0.203886 -0.334319
N28   N     N_R   0.787510 0.996218 0.784882 0.242698
O71   O     O_R   0.795826 0.979083 0.650456 -0.373313
O72   O     O_R   0.824548 0.022948 0.856056 -0.285674
N29   N     N_R   0.714451 0.477882 0.055109 0.295407
O73   O     O_R   0.671895 0.499751 0.094970 -0.282570
O74   O     O_R   0.713548 0.461158 0.915199 -0.253294
N30   N     N_R   0.704439 0.534628 0.670474 0.284399
O75   O     O_R   0.690131 0.561375 0.780068 -0.262409
O76   O     O_R   0.672790 0.500612 0.621703 -0.281367
N31   N     N_R   0.224747 0.038717 0.021815 0.302781
O77   O     O_R   0.218595 0.064619 0.141447 -0.301876
O78   O     O_R   0.211997 0.054973 0.882316 -0.298448
N32   N     N_R   0.197583 0.989088 0.603027 0.256526
O79   O     O_R   0.152824 0.012180 0.613927 -0.291553
O80   O     O_R   0.200996 0.946922 0.653361 -0.319912
O81   O     O_3   0.987630 0.194367 0.509171 -0.581571
C89   C     C_3   0.970546 0.148473 0.525172 0.203248
H65   H     H_    0.926577 0.144115 0.481877 0.136655
H66   H     H_    0.978355 0.136678 0.648228 0.100493
H67   H     H_    0.994700 0.126120 0.453842 0.174982
O82   O     O_3   0.981377 0.807076 0.011487 -0.574577
C90   C     C_3   0.961306 0.852155 0.025025 0.187186
H68   H     H_    0.967161 0.864274 0.147993 0.095083
H69   H     H_    0.917454 0.854564 0.978187 0.137423
H70   H     H_    0.984814 0.875561 0.955318 0.174246
O83   O     O_3   0.485439 0.693981 0.513603 -0.580298
C91   C     C_3   0.467532 0.648328 0.529860 0.207203
H71   H     H_    0.423618 0.644420 0.485275 0.135736
H72   H     H_    0.474674 0.636675 0.653210 0.100592
H73   H     H_    0.491615 0.625544 0.459758 0.175869
O84   O     O_3   0.476785 0.309759 0.010146 -0.556579
C92   C     C_3   0.460105 0.354750 0.043646 0.187272
H74   H     H_    0.475262 0.364996 0.164806 0.088995
H75   H     H_    0.414814 0.358193 0.024051 0.124701
H76   H     H_    0.477989 0.378996 0.963551 0.184001
N33   N     N_R   0.949829 0.211129 0.151630 0.259132
O85   O     O_R   0.910491 0.227808 0.224142 -0.423066
O86   O     O_R   0.960964 0.167472 0.162656 -0.332588
N34   N     N_R   0.950669 0.789291 0.651258 0.258037
O87   O     O_R   0.962764 0.832783 0.661887 -0.336516
O88   O     O_R   0.911388 0.773176 0.725342 -0.425264
N35   N     N_R   0.450321 0.711247 0.155308 0.259049
O89   O     O_R   0.410908 0.727798 0.227794 -0.424007
O90   O     O_R   0.461869 0.667676 0.167138 -0.329754
N36   N     N_R   0.450742 0.288939 0.660093 0.265059
O91   O     O_R   0.463174 0.332211 0.677910 -0.319404
O92   O     O_R   0.409347 0.272482 0.724352 -0.415857
N37   N     N_R   0.816696 0.356509 0.924449 0.266434
O93   O     O_R   0.818832 0.319509 0.840438 -0.360702
O94   O     O_R   0.790705 0.392319 0.864754 -0.305074
N38   N     N_R   0.822108 0.646972 0.419034 0.268928
O95   O     O_R   0.826526 0.684915 0.341138 -0.358942
O96   O     O_R   0.794634 0.612825 0.352652 -0.377371
N39   N     N_R   0.315495 0.857316 0.924586 0.267004
O97   O     O_R   0.316996 0.820922 0.837365 -0.353383
O98   O     O_R   0.288369 0.893233 0.870219 -0.343243
N40   N     N_R   0.315625 0.142993 0.424644 0.267807
O99   O     O_R   0.317202 0.179827 0.339419 -0.354122
O100  O     O_R   0.289684 0.106951 0.366990 -0.332842
N41   N     N_R   0.872652 0.425838 0.398752 0.204677
O101  O     O_R   0.909344 0.450895 0.476891 -0.297400
O102  O     O_R   0.824470 0.421492 0.446802 -0.428481
N42   N     N_R   0.868114 0.575587 0.895850 0.202725
O103  O     O_R   0.817816 0.580772 0.927156 -0.413102
O104  O     O_R   0.901717 0.550785 0.986131 -0.318918
N43   N     N_R   0.373895 0.926838 0.395085 0.215513
O105  O     O_R   0.411282 0.951934 0.470023 -0.290410
O106  O     O_R   0.325985 0.923284 0.445568 -0.406036
N44   N     N_R   0.372771 0.072624 0.895753 0.215557
O107  O     O_R   0.324522 0.076086 0.943401 -0.354525
O108  O     O_R   0.409931 0.048228 0.974508 -0.295927
N45   N     N_R   0.053029 0.577426 0.830328 0.236004
O109  O     O_R   0.071567 0.546196 0.742936 -0.334293
O110  O     O_R   0.001377 0.578689 0.848763 -0.410871
N46   N     N_R   0.056041 0.423310 0.328653 0.234581
O111  O     O_R   0.075537 0.454237 0.241842 -0.348060
O112  O     O_R   0.004079 0.421967 0.343377 -0.400085
N47   N     N_R   0.553713 0.077234 0.830002 0.237234
O113  O     O_R   0.572310 0.046299 0.741643 -0.335043
O114  O     O_R   0.501906 0.078977 0.845688 -0.409864
N48   N     N_R   0.556498 0.923399 0.328323 0.234050
O115  O     O_R   0.575924 0.954222 0.241008 -0.349388
O116  O     O_R   0.504522 0.921900 0.342599 -0.400596
O117  O     O_3   0.209958 0.453732 0.243741 -0.593815
C93   C     C_3   0.228886 0.427293 0.375522 -0.084525
H77   H     H_    0.213659 0.438901 0.484572 0.110605
H78   H     H_    0.274145 0.426433 0.391248 0.219717
H79   H     H_    0.215676 0.391385 0.352941 0.154083
O118  O     O_3   0.187013 0.550697 0.824049 -0.673826
C94   C     C_3   0.202877 0.575137 0.695342 0.028580
H80   H     H_    0.176514 0.567093 0.586429 0.154372
H81   H     H_    0.246898 0.570575 0.684136 0.167497
H82   H     H_    0.197736 0.612274 0.717415 0.144670
O119  O     O_3   0.710605 0.954094 0.243808 -0.595864
C95   C     C_3   0.729519 0.927737 0.375785 -0.083613
H83   H     H_    0.713892 0.939171 0.484498 0.111207
H84   H     H_    0.774783 0.927220 0.392252 0.220139
H85   H     H_    0.716699 0.891743 0.352963 0.154610
O120  O     O_3   0.687264 0.050606 0.824943 -0.672136
C96   C     C_3   0.703138 0.075118 0.696406 0.029064
H86   H     H_    0.676628 0.067286 0.587560 0.153999
H87   H     H_    0.747124 0.070446 0.684927 0.167790
H88   H     H_    0.698225 0.112251 0.718969 0.140858

loop_
_geom_bond_atom_site_label_1
_geom_bond_atom_site_label_2
_geom_bond_distance
_ccdc_geom_bond_type
N23   O62   1.301463 A    
C90   H68   1.112777 S    
P5    O37   1.780449 S    
P7    O39   1.780882 S    
C25   N29   1.456696 S    
C92   H74   1.112983 S    
P8    O40   1.771268 S    
P9    O33   1.544194 D    
N32   O79   1.300843 A    
C15   O119  1.418998 S    
C15   H27   1.109859 S    
C1    H1    1.112186 S    
O26   Ba2   2.816291 S    
C73   C85   1.477401 S    
C2    H6    1.113299 S    
C30   H50   1.113391 S    
C68   C72   1.413230 A    
C15   C19   1.579516 S    
C6    H10   1.114005 S    
C2    C30   1.536591 S    
N40   O99   1.301876 A    
C19   N27   1.471853 S    
P4    O8    1.557292 S    
C12   N36   1.455644 S    
C96   H88   1.106554 S    
C3    C31   1.536192 S    
O7    Ba4   2.818591 S    
P6    O45   1.562623 S    
C77   H61   1.082937 S    
P5    O25   1.572623 D    
O120  C96   1.406515 S    
N14   C58   1.359848 A    
C37   C41   1.441151 A    
C23   H39   1.103707 S    
Ba3   O47   2.817489 S    
N39   O97   1.301820 A    
C36   C40   1.433178 A    
C13   C17   1.579755 S    
N43   O106  1.301130 A    
P1    C53   1.876481 S    
O37   C14   1.418027 S    
C39   C43   1.441913 A    
N36   O91   1.300650 A    
O39   C16   1.418330 S    
C73   C77   1.404782 A    
O13   P14   1.541518 D    
C68   H60   1.078307 S    
C31   N19   1.465195 S    
O44   C8    1.404892 S    
C75   C87   1.475735 S    
P13   C38   1.907397 S    
O9    P14   1.763897 S    
P5    O46   1.562726 S    
C50   C54   1.416051 A    
P8    Ba4   3.430587 S    
C91   H71   1.113146 S    
C30   N18   1.464747 S    
P8    O47   1.562623 S    
C16   C20   1.548221 S    
N28   O72   1.301428 A    
O84   C92   1.410658 S    
C42   C46   1.420784 A    
C92   H76   1.109100 S    
O29   Ba1   2.812996 S    
O5    Ba2   2.818591 S    
C26   N30   1.457140 S    
C89   H67   1.109175 S    
O31   Ba3   2.812999 S    
P7    C72   1.878521 S    
C12   H20   1.110713 S    
C11   H23   1.112175 S    
O18   C22   1.404585 S    
C28   H48   1.110893 S    
C89   H66   1.112712 S    
O42   C6    1.404892 S    
C43   C47   1.424338 A    
N4    N6    1.339569 A    
N6    C62   1.363191 A    
N31   O78   1.300097 A    
N48   O115  1.293293 A    
C6    C10   1.526431 S    
C27   H43   1.107603 S    
P3    O7    1.557191 S    
P11   O35   1.544153 D    
N43   O105  1.292804 A    
C25   H41   1.108013 S    
C26   H46   1.106037 S    
O38   C13   1.407268 S    
C94   H80   1.109206 S    
C26   H42   1.111079 S    
C19   H31   1.096797 S    
N9    C61   1.361048 A    
C33   C37   1.434123 A    
C52   C56   1.411576 A    
N22   O59   1.298433 A    
C71   C87   1.341028 D    
C74   C86   1.473796 S    
C44   H56   1.086110 S    
Ba4   O48   2.816979 S    
C5    H13   1.112498 S    
O21   P14   1.752713 S    
C28   N32   1.457084 S    
C7    H15   1.112522 S    
C9    N33   1.455731 S    
C57   C81   1.506541 S    
N21   O57   1.301696 A    
C4    H4    1.107501 S    
C35   N43   1.414898 S    
C90   H69   1.113088 S    
N25   O65   1.301287 A    
C22   C26   1.532730 S    
N12   C64   1.360496 A    
C95   H83   1.101100 S    
O30   Ba2   2.814251 S    
O6    Ba1   2.818081 S    
N12   N14   1.334921 A    
C33   N41   1.413948 S    
O22   C30   1.414197 S    
O9    Ba1   2.813514 S    
C91   H73   1.109171 S    
O3    Ba3   2.814222 S    
N26   O67   1.298048 A    
N33   O86   1.300590 A    
P6    O38   1.771651 S    
N5    C61   1.363758 A    
P8    O28   1.573126 D    
C65   H57   1.075026 S    
P9    O29   1.763656 S    
P5    Ba1   3.431211 S    
N17   O49   1.302239 A    
P10   O34   1.545979 D    
N41   O102  1.300607 A    
P7    Ba3   3.431211 S    
N34   O88   1.298991 A    
C7    C11   1.526899 S    
N45   O110  1.296120 A    
C2    H2    1.111647 S    
P16   C39   1.910986 S    
C45   C61   1.518890 S    
C5    C9    1.527046 S    
N42   O103  1.301200 A    
O17   C21   1.406067 S    
C78   C82   1.357453 D    
P3    Ba3   3.428996 S    
P8    C71   1.881817 S    
P4    C56   1.872006 S    
C24   H36   1.110208 S    
Ba1   O46   3.013237 S    
N39   O98   1.300360 A    
N38   O96   1.300018 A    
C31   H51   1.113439 S    
P2    O18   1.756372 S    
N31   O77   1.299398 A    
P7    O48   1.562726 S    
C20   N24   1.468874 S    
C16   O120  1.423573 S    
C47   C63   1.519084 S    
N21   O58   1.301494 A    
P6    O26   1.573126 D    
C21   H33   1.106947 S    
N26   O68   1.301383 A    
O20   C24   1.407735 S    
N44   O108  1.292255 A    
N35   O90   1.300604 A    
P9    O41   1.744749 S    
C1    H5    1.113292 S    
C13   H25   1.109709 S    
C76   C88   1.473589 S    
C10   N34   1.455570 S    
O10   Ba2   2.812267 S    
N20   O55   1.299673 A    
C1    O81   1.412599 S    
O14   P13   1.540716 D    
C17   N21   1.459391 S    
C32   H52   1.109022 S    
N46   O112  1.296914 A    
N27   O69   1.301305 A    
C38   C42   1.439559 A    
C72   C88   1.341246 D    
C23   H35   1.107582 S    
C95   H85   1.105184 S    
C66   C82   1.502275 S    
N24   O63   1.298819 A    
P6    Ba2   3.430587 S    
O83   C91   1.410382 S    
C51   N39   1.436073 S    
C70   C86   1.341583 D    
C49   C53   1.414139 A    
C16   H28   1.089582 S    
C91   H72   1.112738 S    
N18   O51   1.302172 A    
N29   O74   1.299286 A    
C94   H82   1.106632 S    
C33   C53   1.379811 A    
C20   N28   1.463428 S    
N13   C57   1.360134 A    
C48   C52   1.441502 A    
C21   H37   1.095876 S    
N46   O111  1.293438 A    
C93   H77   1.100966 S    
C41   C45   1.423614 A    
N40   O100  1.298871 A    
C12   H24   1.112192 S    
C27   N31   1.457920 S    
P3    C55   1.876372 S    
C9    H17   1.110448 S    
C44   C48   1.421456 A    
C96   H87   1.104139 S    
C11   H19   1.110527 S    
O15   P16   1.541661 D    
N3    N5    1.340253 A    
C19   N23   1.459490 S    
O117  C93   1.410286 S    
C4    O84   1.411344 S    
C68   C84   1.502808 S    
P1    O1    1.572945 D    
N16   C60   1.359925 A    
O25   Ba1   2.817104 S    
N4    C60   1.362524 A    
C27   H47   1.111964 S    
P10   O42   1.744740 S    
P3    O3    1.572945 D    
O4    Ba4   2.815022 S    
C1    C29   1.535997 S    
P4    O20   1.750369 S    
C14   H26   1.089585 S    
N36   O92   1.299097 A    
N19   O53   1.302223 A    
O82   C90   1.410399 S    
P5    C70   1.877359 S    
N37   O94   1.299915 A    
P1    Ba1   3.428996 S    
C34   C38   1.435296 A    
Ba3   Ba4   4.725892 S    
C34   N42   1.414051 S    
O27   Ba3   2.817104 S    
O119  C95   1.410217 S    
C5    H9    1.113986 S    
O22   P13   1.753243 S    
C46   C50   1.441461 A    
C86   N46   1.412325 S    
C8    H12   1.113761 S    
C9    H21   1.112212 S    
N7    C63   1.363720 A    
C11   N35   1.455650 S    
O16   P15   1.541960 D    
C78   H62   1.082911 S    
C48   C64   1.514774 S    
C59   C83   1.506278 S    
C3    O83   1.412553 S    
Ba3   O48   3.013237 S    
N9    N15   1.335577 A    
C92   H75   1.112822 S    
O24   C32   1.416664 S    
C51   C55   1.412150 A    
C80   C84   1.357782 D    
O12   P15   1.760893 S    
P1    O5    1.557191 S    
C14   O118  1.423456 S    
C58   C82   1.502666 S    
N47   O113  1.293394 A    
C10   H18   1.110410 S    
C35   C55   1.376649 A    
N11   C63   1.361067 A    
O81   C89   1.410350 S    
C79   C83   1.355668 D    
P12   C75   1.857623 S    
Ba2   O46   2.816979 S    
P10   O30   1.759958 S    
C32   N20   1.464387 S    
O23   P16   1.753064 S    
O24   P15   1.753921 S    
P12   O44   1.744809 S    
N48   O116  1.296632 A    
C43   H55   1.085641 S    
C88   N48   1.411726 S    
C80   H64   1.082857 S    
C3    H3    1.111859 S    
C49   N37   1.436214 S    
C20   H32   1.097070 S    
O12   Ba4   2.812267 S    
N22   O60   1.301908 A    
P2    Ba2   3.429606 S    
C24   H40   1.107500 S    
N32   O80   1.300767 A    
Ba2   O45   3.013617 S    
C87   N47   1.413745 S    
C4    C32   1.533389 S    
P10   C73   1.858309 S    
C10   H22   1.111918 S    
Ba1   Ba2   4.725892 S    
C67   H59   1.075272 S    
N27   O70   1.298509 A    
P7    O27   1.572623 D    
O1    Ba1   2.814222 S    
O41   C5    1.404415 S    
C95   H84   1.106761 S    
O43   C7    1.404434 S    
N3    C59   1.362831 A    
C40   C44   1.440472 A    
C21   C25   1.530765 S    
C8    H16   1.111328 S    
N33   O85   1.299019 A    
C36   N44   1.414060 S    
O28   Ba4   2.816291 S    
N28   O71   1.297768 A    
N10   C62   1.360555 A    
C29   H49   1.113593 S    
C75   C79   1.404427 A    
N35   O89   1.298984 A    
P1    O17   1.757297 S    
C17   N25   1.472016 S    
C6    H14   1.112476 S    
N41   O101  1.293143 A    
P3    O19   1.759761 S    
P4    O4    1.572443 D    
N8    C64   1.363110 A    
N45   O109  1.293613 A    
N37   O93   1.301935 A    
P6    C69   1.881971 S    
C18   N22   1.469168 S    
N42   O104  1.294181 A    
C34   C54   1.380416 A    
C89   H65   1.113172 S    
C52   N40   1.434669 S    
C13   O117  1.418917 S    
C23   C27   1.532284 S    
Ba1   O45   2.817489 S    
P2    C54   1.876875 S    
C76   C80   1.404087 A    
N19   O54   1.298168 A    
C29   N17   1.464931 S    
C50   N38   1.435971 S    
C66   H58   1.078636 S    
P4    Ba4   3.429606 S    
O10   P13   1.761611 S    
P11   C76   1.862613 S    
O2    Ba2   2.815022 S    
Ba4   O47   3.013617 S    
P2    O2    1.572443 D    
C28   H44   1.109693 S    
P11   O43   1.744608 S    
C60   C84   1.503801 S    
P12   O36   1.546171 D    
N15   C59   1.360158 A    
C17   H29   1.097145 S    
N20   O56   1.300852 A    
C46   C62   1.514882 S    
C85   N45   1.415091 S    
O11   Ba3   2.813514 S    
C90   H70   1.109141 S    
C79   H63   1.082929 S    
N25   O66   1.298591 A    
C77   C81   1.355480 D    
C47   C51   1.443546 A    
C74   C78   1.404081 A    
C67   C71   1.412444 A    
C22   H38   1.095144 S    
N1    N7    1.340277 A    
C35   C39   1.434006 A    
N2    N8    1.339319 A    
C36   C56   1.375896 A    
N47   O114  1.295271 A    
C45   C49   1.443722 A    
N18   O52   1.298011 A    
N29   O73   1.300835 A    
N1    C57   1.362926 A    
C94   H81   1.104170 S    
C8    C12   1.525521 S    
N30   O75   1.300952 A    
C22   H34   1.109314 S    
N30   O76   1.301109 A    
C93   H78   1.106690 S    
N17   O50   1.298020 A    
C66   C70   1.412981 A    
C18   N26   1.463568 S    
N23   O61   1.301666 A    
P2    O6    1.557292 S    
N24   O64   1.301847 A    
N34   O87   1.300623 A    
P11   O31   1.764221 S    
C96   H86   1.109275 S    
C25   H45   1.111366 S    
P12   O32   1.760741 S    
C65   C69   1.412710 A    
O40   C15   1.407079 S    
C93   H79   1.105115 S    
P9    C74   1.862116 S    
C67   C83   1.500451 S    
N38   O95   1.302181 A    
C42   H54   1.085493 S    
C65   C81   1.500370 S    
P14   C37   1.911960 S    
C7    H11   1.113971 S    
C69   C85   1.342179 D    
C3    H7    1.113393 S    
C18   H30   1.097309 S    
C41   H53   1.085670 S    
C4    H8    1.114815 S    
N10   N16   1.334869 A    
O118  C94   1.406551 S    
P15   C40   1.907971 S    
N11   N13   1.335646 A    
C2    O82   1.412517 S    
O19   C23   1.411351 S    
O11   P16   1.764155 S    
N2    C58   1.362224 A    
O23   C31   1.413900 S    
N44   O107  1.298607 A    
C24   C28   1.535767 S    
O21   C29   1.413643 S    
O32   Ba4   2.814251 S    
O8    Ba3   2.818081 S    
C14   C18   1.548372 S    
