data_mof_unit_30636.cif
_audit_creation_date              2013-03-05T16:48:47-0500
_audit_creation_method            fapswitch 2.2
_symmetry_space_group_name_H-M    P1
_symmetry_Int_Tables_number       1
_space_group_crystal_system       triclinic
_cell_length_a                    10.941705
_cell_length_b                    10.917811
_cell_length_c                    13.11768
_cell_angle_alpha                 90.523905
_cell_angle_beta                  90.925294
_cell_angle_gamma                 89.259662
_cell_volume                      1566.63335953

loop_
_atom_site_label
_atom_site_type_symbol
_atom_site_description
_atom_site_fract_x
_atom_site_fract_y
_atom_site_fract_z
_atom_type_partial_charge
O1    O     O_R   0.499980 0.319630 0.578260 -0.584864
O2    O     O_R   0.500020 0.680370 0.421740 -0.584879
O3    O     O_R   0.500000 0.319650 0.421740 -0.573810
O4    O     O_R   0.500000 0.680350 0.578260 -0.573867
C1    C     C_R   0.505396 0.259475 0.499425 0.830386
C2    C     C_R   0.494566 0.740523 0.500574 0.830255
O5    O     O_R   0.319630 0.500000 0.578260 -0.579205
O6    O     O_R   0.680370 0.500000 0.421740 -0.579182
O7    O     O_R   0.319650 0.500020 0.421740 -0.584460
O8    O     O_R   0.680350 0.499980 0.578260 -0.584485
C3    C     C_R   0.259515 0.495728 0.498855 0.822731
C4    C     C_R   0.740482 0.504314 0.501145 0.822787
Cu1   Cu    Cu3+1 0.499990 0.499990 0.592680 0.979453
Cu2   Cu    Cu3+1 0.500010 0.500010 0.407320 0.979457
H1    H     H_    0.231689 0.416973 0.028089 0.142261
H2    H     H_    0.768334 0.583494 0.971887 0.142070
C5    C     C_R   0.137601 0.541240 0.129173 -0.099623
C6    C     C_R   0.862619 0.459232 0.870927 -0.099279
H3    H     H_    0.122804 0.610458 0.071639 0.176354
H4    H     H_    0.877587 0.390149 0.928546 0.176425
C7    C     C_R   0.094036 0.560492 0.227701 -0.152076
C8    C     C_R   0.906168 0.439888 0.772406 -0.151397
H5    H     H_    0.044911 0.644613 0.245320 0.130842
H6    H     H_    0.955449 0.355828 0.754879 0.130757
C9    C     C_R   0.112849 0.471048 0.302876 0.143836
C10   C     C_R   0.887154 0.529166 0.697122 0.143944
C11   C     C_R   0.175452 0.361901 0.277812 0.016610
C12   C     C_R   0.824377 0.638250 0.722079 0.016505
H7    H     H_    0.189286 0.291114 0.334324 0.116524
H8    H     H_    0.810396 0.708924 0.665490 0.116331
C13   C     C_R   0.218151 0.342754 0.178968 -0.103401
C14   C     C_R   0.781679 0.657483 0.820914 -0.103512
H9    H     H_    0.265070 0.258148 0.159664 0.119259
H10   H     H_    0.734615 0.742036 0.840130 0.119305
C15   C     C_R   0.199008 0.432192 0.104663 -0.089668
C16   C     C_R   0.801013 0.568205 0.895321 -0.089898
C17   C     C_R   0.931912 0.494675 0.409479 -0.160738
C18   C     C_R   0.068086 0.505453 0.590518 -0.160925
H11   H     H_    0.879056 0.488651 0.338958 0.190194
H12   H     H_    0.120948 0.511487 0.661035 0.190386
C19   C     C_R   0.872969 0.505452 0.503043 -0.133664
C20   C     C_R   0.127028 0.494652 0.496956 -0.133681
C21   C     C_R   0.941679 0.512241 0.595065 0.003766
C22   C     C_R   0.058318 0.487901 0.404934 0.003870
H13   H     H_    0.677415 0.259638 0.060692 0.165682
H14   H     H_    0.322710 0.740246 0.939338 0.165590
C23   C     C_R   0.531104 0.172466 0.137502 -0.216032
C24   C     C_R   0.468885 0.827663 0.862535 -0.216067
C25   C     C_R   0.492197 0.119604 0.227774 -0.146473
C26   C     C_R   0.507716 0.880568 0.772257 -0.146681
C27   C     C_R   0.570584 0.115365 0.313244 0.071741
C28   C     C_R   0.429350 0.884626 0.686766 0.071789
C29   C     C_R   0.688804 0.162419 0.307168 -0.202475
C30   C     C_R   0.311204 0.837378 0.692841 -0.202320
H15   H     H_    0.749113 0.158040 0.373391 0.157751
H16   H     H_    0.250897 0.841614 0.626611 0.157591
C31   C     C_R   0.729142 0.214475 0.216263 0.395345
C32   C     C_R   0.270945 0.785283 0.783755 0.395435
C33   C     C_R   0.648818 0.219888 0.131615 -0.187458
C34   C     C_R   0.351261 0.780018 0.868410 -0.187414
C35   C     C_R   0.523400 0.932413 0.411447 -0.230118
C36   C     C_R   0.476487 0.067588 0.588546 -0.230111
H17   H     H_    0.544177 0.880008 0.343073 0.163178
H18   H     H_    0.455717 0.119996 0.656919 0.163177
C37   C     C_R   0.494213 0.873067 0.501709 -0.102049
C38   C     C_R   0.505693 0.126931 0.498287 -0.102055
C39   C     C_R   0.469438 0.941140 0.591185 0.021229
C40   C     C_R   0.530447 0.058858 0.408809 0.021188
N1    N     N_1   0.500030 0.500030 0.268070 -0.138241
N2    N     N_1   0.499970 0.499970 0.731930 -0.138262
C41   C     C_1   0.500140 0.500172 0.173570 0.158903
C42   C     C_1   0.499865 0.499827 0.826430 0.159007
C43   C     C_1   0.500109 0.500117 0.050683 -0.099122
C44   C     C_1   0.499902 0.499882 0.949317 -0.098989
N3    N     N_R   0.851543 0.259582 0.209826 0.104145
O9    O     O_R   0.884305 0.324238 0.132267 -0.407662
O10   O     O_R   0.932370 0.233123 0.280310 -0.407100
N4    N     N_R   0.148622 0.740003 0.790203 0.104000
O11   O     O_R   0.116157 0.674726 0.867486 -0.407833
O12   O     O_R   0.067551 0.766961 0.720026 -0.406903
H19   H     H_    0.470075 0.176418 0.071809 0.152817
H20   H     H_    0.529897 0.823853 0.928244 0.152829
H21   H     H_    0.400995 0.082669 0.231406 0.135113
H22   H     H_    0.598848 0.917672 0.768636 0.135163

loop_
_geom_bond_atom_site_label_1
_geom_bond_atom_site_label_2
_geom_bond_distance
_ccdc_geom_bond_type
C38   C40   1.411567 A    
C11   H7    1.083304 S    
C43   C44   1.329627 T    
O7    Cu2   1.985527 S    
C26   H22   1.083027 S    
C23   C25   1.397022 A    
O5    C3    1.223743 A    
C36   C39   1.384454 A    
O1    C1    1.221813 A    
C14   C16   1.397465 A    
C18   C20   1.398962 A    
N4    O12   1.301056 A    
C31   C33   1.406134 A    
Cu1   N2    1.826643 S    
C32   C34   1.406098 A    
C3    C20   1.449644 S    
N1    C41   1.239657 T    
O4    Cu1   1.979923 S    
C35   H17   1.085039 S    
C36   H18   1.085039 S    
C2    C37   1.446991 S    
C37   C39   1.411591 A    
C26   C28   1.401320 A    
C13   H9    1.081018 S    
C24   C26   1.397030 A    
Cu1   Cu2   2.431499 S    
C19   C21   1.413623 A    
O2    C2    1.221820 A    
C20   C22   1.413596 A    
C9    C22   1.483443 S    
H1    C15   1.082334 S    
C28   C30   1.401747 A    
C10   C21   1.483493 S    
C24   C34   1.397899 A    
C29   H15   1.083416 S    
C30   H16   1.083406 S    
C36   C38   1.398323 A    
C11   C13   1.398306 A    
C12   C14   1.398302 A    
C42   C44   1.611979 S    
C41   C43   1.611981 S    
C29   C31   1.405576 A    
N4    O11   1.301240 A    
C25   C27   1.401305 A    
C5    C7    1.397914 A    
C27   C29   1.401700 A    
C14   H10   1.081001 S    
N3    O9    1.301291 A    
C4    C19   1.449653 S    
O7    C3    1.217194 A    
O6    C4    1.223748 A    
N3    O10   1.300889 A    
O3    Cu2   1.979923 S    
O8    C4    1.217202 A    
O4    C2    1.217736 A    
C7    H5    1.083151 S    
Cu2   N1    1.826644 S    
C8    H6    1.083153 S    
O1    Cu1   1.976481 S    
C30   C32   1.405567 A    
C7    C9    1.405094 A    
H13   C33   1.082620 S    
O6    Cu2   1.979445 S    
H14   C34   1.082630 S    
C6    C8    1.397915 A    
C28   C39   1.477837 S    
C1    C38   1.446988 S    
O3    C1    1.217733 A    
O8    Cu1   1.985528 S    
C9    C11   1.405822 A    
C10   C12   1.405838 A    
C31   N3    1.436930 S    
C17   C22   1.386334 A    
C12   H8    1.083308 S    
C18   C21   1.386351 A    
C17   H11   1.084968 S    
H2    C16   1.082334 S    
C18   H12   1.084959 S    
C35   C40   1.384431 A    
C25   H21   1.083044 S    
C13   C15   1.397476 A    
C5    H3    1.081771 S    
C24   H20   1.082451 S    
C6    H4    1.081765 S    
C27   C40   1.477791 S    
C23   H19   1.082465 S    
C17   C19   1.398976 A    
O2    Cu2   1.976478 S    
C32   N4    1.436813 S    
C23   C33   1.397904 A    
C35   C37   1.398319 A    
O5    Cu1   1.979447 S    
C8    C10   1.405115 A    
N2    C42   1.239658 T    
C5    C15   1.396990 A    
C6    C16   1.396979 A    
