data_mof_unit_11154.cif
_audit_creation_date              2012-12-10T17:10:23-0500
_audit_creation_method            fapswitch 2.2
_symmetry_space_group_name_H-M    P1
_symmetry_Int_Tables_number       1
_space_group_crystal_system       triclinic
_cell_length_a                    10.815017
_cell_length_b                    12.960898
_cell_length_c                    11.632035
_cell_angle_alpha                 100.124718
_cell_angle_beta                  94.215268
_cell_angle_gamma                 90.483292
_cell_volume                      1600.3778795

loop_
_atom_site_label
_atom_site_type_symbol
_atom_type_description
_atom_site_fract_x
_atom_site_fract_y
_atom_site_fract_z
_atom_type_partial_charge
C1    C     C_R   0.501023 0.298996 0.478255 0.846705
C2    C     C_R   0.498276 0.700976 0.521740 0.842979
C3    C     C_R   0.490459 0.814320 0.534588 -0.136448
C4    C     C_R   0.507494 0.185621 0.465447 -0.141269
C5    C     C_R   0.577957 0.018128 0.368307 -0.288212
C6    C     C_R   0.419069 0.981677 0.631283 -0.299642
C7    C     C_R   0.565385 0.125960 0.371761 0.422154
C8    C     C_R   0.430628 0.873193 0.627687 0.427070
C9    C     C_R   0.458575 0.137282 0.550959 -0.315163
C10   C     C_R   0.539963 0.862829 0.449493 -0.314938
C11   C     C_R   0.468820 0.029862 0.545943 0.122594
C12   C     C_R   0.529327 0.970044 0.454273 0.114038
C13   C     C_R   0.374408 0.409451 0.020587 -0.444396
C14   C     C_R   0.627117 0.588805 0.979191 -0.424332
C15   C     C_R   0.387187 0.415317 0.144655 0.662134
C16   C     C_R   0.612578 0.584156 0.856161 0.660695
C17   C     C_R   0.555782 0.537542 0.157291 -0.065300
C18   C     C_R   0.444219 0.462475 0.842746 -0.062483
C19   C     C_R   0.546280 0.531969 0.034522 0.009164
C20   C     C_R   0.453939 0.467849 0.965700 0.029947
C21   C     C_R   0.262714 0.513734 0.501651 0.814906
C22   C     C_R   0.737548 0.486932 0.498473 0.814688
C23   C     C_R   0.130935 0.566817 0.720897 -0.131386
C24   C     C_R   0.869961 0.436991 0.279349 -0.128693
C25   C     C_R   0.081508 0.549328 0.823220 -0.191819
C26   C     C_R   0.918693 0.456822 0.177613 -0.182028
C27   C     C_R   0.970564 0.493152 0.816507 -0.130405
C28   C     C_R   0.029161 0.513850 0.185198 -0.162904
C29   C     C_R   0.904165 0.462275 0.708417 -0.067782
C30   C     C_R   0.096283 0.542552 0.293237 -0.079251
C31   C     C_R   0.947733 0.487950 0.604665 0.070896
C32   C     C_R   0.052787 0.515326 0.396226 0.068877
C33   C     C_R   0.069932 0.527659 0.609465 0.074177
C34   C     C_R   0.930713 0.475329 0.391112 0.068092
C35   C     C_R   0.873588 0.474430 0.496982 -0.227258
C36   C     C_R   0.127013 0.527744 0.503550 -0.228649
Cu1   Cu    Cu3+1 0.509250 0.507730 0.615930 0.977948
Cu2   Cu    Cu3+1 0.490750 0.492270 0.384070 0.981359
H1    H     H_    0.064793 0.533323 0.106952 0.122268
H2    H     H_    0.934460 0.475334 0.895295 0.123374
H3    H     H_    0.374030 0.412242 0.788775 0.150411
H4    H     H_    0.626118 0.587666 0.211190 0.151831
N1    N     N_R   0.523180 0.519350 0.790130 -0.223345
N2    N     N_R   0.476820 0.480650 0.209870 -0.217335
O1    O     O_R   0.506570 0.354460 0.582000 -0.609243
O2    O     O_R   0.493430 0.645540 0.418000 -0.608321
O3    O     O_R   0.490940 0.341410 0.386200 -0.514826
O4    O     O_R   0.509060 0.658590 0.613800 -0.529071
O5    O     O_R   0.327470 0.506520 0.597900 -0.597032
O6    O     O_R   0.672530 0.493480 0.402100 -0.598633
O7    O     O_R   0.311840 0.493460 0.402100 -0.541892
O8    O     O_R   0.688160 0.506540 0.597900 -0.542338
H5    H     H_    0.304326 0.360145 0.965612 0.127058
H6    H     H_    0.701323 0.635857 0.031123 0.155414
H7    H     H_    0.215580 0.613423 0.730338 0.184348
H8    H     H_    0.786063 0.389369 0.269111 0.178373
H9    H     H_    0.130629 0.577719 0.907498 0.135495
H10   H     H_    0.869459 0.429467 0.093152 0.135067
H11   H     H_    0.820243 0.416039 0.706993 0.143221
H12   H     H_    0.180679 0.588400 0.295456 0.144659
H13   H     H_    0.586303 0.816623 0.378823 0.162822
H14   H     H_    0.412843 0.183677 0.621915 0.161626
O9    O     O_3   0.370865 0.820813 0.703315 -0.579235
C37   C     C_3   0.393956 0.870659 0.821342 0.071031
H15   H     H_    0.334746 0.940261 0.840773 0.139863
H16   H     H_    0.493433 0.894615 0.842344 0.115624
C38   C     C_3   0.360411 0.795001 0.901015 -0.810944
H17   H     H_    0.411879 0.721292 0.880190 0.248786
H18   H     H_    0.384612 0.831001 0.993925 0.193767
H19   H     H_    0.259354 0.776404 0.888890 0.241619
O10   O     O_3   0.622965 0.175102 0.292873 -0.579786
C39   C     C_3   0.559029 0.147976 0.181118 0.084465
H20   H     H_    0.459228 0.167721 0.184793 0.161272
H21   H     H_    0.567036 0.062996 0.145545 0.120701
C40   C     C_3   0.615489 0.209462 0.097163 -0.793371
H22   H     H_    0.713874 0.187942 0.087706 0.238874
H23   H     H_    0.563300 0.191509 0.009904 0.190771
H24   H     H_    0.611431 0.294814 0.130859 0.251708
H25   H     H_    0.627332 0.972421 0.299694 0.140807
H26   H     H_    0.368576 0.028387 0.698064 0.125876
O11   O     O_3   0.694772 0.636127 0.798808 -0.549982
C41   C     C_3   0.712000 0.743379 0.849386 0.062758
H27   H     H_    0.651761 0.772030 0.921614 0.110356
H28   H     H_    0.688824 0.790418 0.779912 0.171186
C42   C     C_3   0.847720 0.765167 0.892306 -0.825916
H29   H     H_    0.907315 0.744076 0.818237 0.268423
H30   H     H_    0.862262 0.849715 0.929440 0.203010
H31   H     H_    0.875260 0.718449 0.960998 0.238979
O12   O     O_3   0.313588 0.358091 0.205854 -0.545328
C43   C     C_3   0.227440 0.287189 0.135627 0.009404
H32   H     H_    0.275591 0.228407 0.073721 0.124279
H33   H     H_    0.158103 0.329778 0.087314 0.154227
C44   C     C_3   0.158177 0.228833 0.214594 -0.754539
H34   H     H_    0.108700 0.285241 0.277606 0.261771
H35   H     H_    0.089417 0.172859 0.160878 0.195895
H36   H     H_    0.224465 0.184720 0.264100 0.233657

loop_
_geom_bond_atom_site_label_1
_geom_bond_atom_site_label_2
_ccdc_geom_bond_type
C44   H34   S    
C27   C29   A    
C19   C20   A    
C21   O5    A    
O11   C41   S    
C21   C36   S    
C42   H29   S    
C2    O2    A    
C22   C35   S    
C32   C36   A    
C24   C26   A    
C15   N2    A    
C4    C7    A    
C7    O10   S    
C33   C36   A    
C34   C35   A    
C17   H4    S    
C6    H26   S    
C26   H10   S    
C29   H11   S    
C23   C33   A    
C30   H12   S    
C31   C33   A    
C5    H25   S    
C18   C20   A    
C22   O6    A    
C44   H35   S    
C9    C11   A    
C25   H9    S    
C39   C40   S    
C13   H5    S    
C42   H30   S    
C9    H14   S    
C37   C38   S    
C5    C12   A    
C39   H21   S    
C3    C8    A    
C18   H3    S    
C6    C11   A    
C5    C7    A    
Cu1   O8    S    
C1    O3    A    
C6    C8    A    
Cu2   O7    S    
C28   H1    S    
C2    O4    A    
C24   C34   A    
C38   H17   S    
C38   H18   S    
C32   C34   A    
Cu1   N1    S    
C40   H22   S    
Cu2   N2    S    
Cu1   Cu2   S    
C15   O12   S    
Cu1   O5    S    
C43   H33   S    
C27   H2    S    
Cu1   O4    S    
C40   H23   S    
C16   N1    A    
Cu2   O3    S    
C10   C12   A    
C14   H6    S    
C44   H36   S    
C41   H28   S    
C13   C15   A    
C14   C16   A    
C10   H13   S    
C25   C27   A    
Cu1   O1    S    
C21   O7    A    
C43   C44   S    
C22   O8    A    
C42   H31   S    
C13   C20   A    
C14   C19   A    
C39   H20   S    
C11   C12   A    
C23   H7    S    
Cu2   O6    S    
C24   H8    S    
C41   C42   S    
C26   C28   A    
C38   H19   S    
C37   H15   S    
C1    C4    S    
C28   C30   A    
C2    C3    S    
C4    C9    A    
C17   N2    A    
O10   C39   S    
C29   C31   A    
C3    C10   A    
C18   N1    A    
C30   C32   A    
C1    O1    A    
C43   H32   S    
C16   O11   S    
C17   C19   A    
C31   C35   A    
C23   C25   A    
C40   H24   S    
Cu2   O2    S    
C8    O9    S    
O9    C37   S    
C41   H27   S    
O12   C43   S    
C37   H16   S    
