data_mof_unit_12643.cif
_audit_creation_date              2012-12-10T20:37:32-0500
_audit_creation_method            fapswitch 2.2
_symmetry_space_group_name_H-M    P1
_symmetry_Int_Tables_number       1
_space_group_crystal_system       triclinic
_cell_length_a                    15.709219
_cell_length_b                    10.665627
_cell_length_c                    9.938002
_cell_angle_alpha                 90.186654
_cell_angle_beta                  90.345687
_cell_angle_gamma                 91.546674
_cell_volume                      1664.45233391

loop_
_atom_site_label
_atom_site_type_symbol
_atom_type_description
_atom_site_fract_x
_atom_site_fract_y
_atom_site_fract_z
_atom_type_partial_charge
C1    C     C_R   0.496927 0.260248 0.499902 0.896216
C2    C     C_R   0.483646 0.128369 0.501143 -0.107248
C3    C     C_R   0.460774 0.063133 0.383107 -0.234101
C4    C     C_R   0.338026 0.499792 0.499650 0.900560
C5    C     C_R   0.460726 0.933295 0.383508 -0.235034
C6    C     C_R   0.483779 0.870820 0.501803 -0.083493
C7    C     C_R   0.490202 0.936522 0.622833 0.113815
C8    C     C_3   0.555494 0.931587 0.732841 -0.567649
C9    C     C_3   0.556074 0.074219 0.732610 -0.074271
C10   C     C_R   0.457389 0.407783 0.070247 0.145469
C11   C     C_R   0.549387 0.583579 0.072578 0.115283
C12   C     C_3   0.082769 0.508538 0.500430 0.145862
C13   C     C_R   0.555273 0.576279 0.929842 0.165426
C14   C     C_R   0.456637 0.408695 0.928703 0.117444
C15   C     C_3   0.364214 0.373805 0.921312 -0.133566
C16   C     C_R   0.497370 0.739761 0.500228 0.866477
C17   C     C_3   0.364520 0.374610 0.075331 -0.513148
C18   C     C_R   0.661912 0.501138 0.500330 0.910778
C19   C     C_3   0.968702 0.399357 0.544064 -0.210681
C20   C     C_3   0.025051 0.418589 0.418164 -0.176802
C21   C     C_1   0.249037 0.502349 0.499054 -0.197528
C22   C     C_1   0.750876 0.506040 0.500793 -0.211587
C23   C     C_3   0.975175 0.602750 0.582327 0.128259
C24   C     C_3   0.027575 0.489783 0.625831 0.128527
C25   C     C_3   0.627793 0.648997 0.863566 -0.362318
C26   C     C_3   0.711145 0.575926 0.864923 -0.321345
C27   C     C_3   0.758328 0.582340 0.999686 -0.881826
C28   C     C_3   0.349497 0.243271 0.857836 -0.347811
C29   C     C_3   0.255532 0.202285 0.861750 -0.361752
C30   C     C_3   0.241280 0.074111 0.795409 -0.898487
C31   C     C_3   0.941070 0.709649 0.667795 -0.443746
C32   C     C_3   0.013019 0.789568 0.731959 -0.337215
C33   C     C_3   0.977309 0.895234 0.816757 -0.892588
C34   C     C_3   0.917178 0.512864 0.500615 0.147032
C35   C     C_3   0.064457 0.457092 0.763738 -0.437121
C36   C     C_3   0.995873 0.446436 0.872325 -0.343935
C37   C     C_3   0.032604 0.396422 0.003562 -0.901435
C38   C     C_3   0.031347 0.622199 0.456473 -0.209722
C39   C     C_3   0.971820 0.531802 0.374581 -0.174704
C40   C     C_1   0.173725 0.505255 0.499251 -0.087375
C41   C     C_1   0.826222 0.510255 0.500660 -0.089955
C42   C     C_R   0.490585 0.064335 0.622292 0.090943
H1    H     H_    0.047631 0.343384 0.350758 0.143206
H2    H     H_    0.448479 0.111544 0.289586 0.166185
H3    H     H_    0.448016 0.883183 0.290315 0.161148
H4    H     H_    0.528453 0.890827 0.826607 0.193317
H5    H     H_    0.658222 0.086767 0.601290 0.192280
H6    H     H_    0.682323 0.116546 0.763816 0.185691
H7    H     H_    0.627878 0.654603 0.220889 0.238528
H8    H     H_    0.547492 0.749937 0.170505 0.196711
H9    H     H_    0.767847 0.681195 0.033148 0.263150
H10   H     H_    0.722816 0.528082 0.077170 0.274380
H11   H     H_    0.821740 0.540143 0.988664 0.235429
H12   H     H_    0.616026 0.890285 0.699002 0.188279
H13   H     H_    0.698463 0.475801 0.838451 0.243713
H14   H     H_    0.753884 0.616601 0.786945 0.199252
H15   H     H_    0.612125 0.671632 0.759643 0.222277
H16   H     H_    0.638578 0.742397 0.911271 0.184573
H17   H     H_    0.262330 0.076922 0.688902 0.263482
H18   H     H_    0.277280 0.001795 0.850212 0.262047
H19   H     H_    0.172493 0.047661 0.797561 0.250741
H20   H     H_    0.233189 0.197650 0.967550 0.228427
H21   H     H_    0.217637 0.271960 0.806915 0.219906
H22   H     H_    0.369828 0.247312 0.751188 0.224391
H23   H     H_    0.531621 0.116802 0.826516 0.157750
H24   H     H_    0.388417 0.172589 0.910422 0.190948
H25   H     H_    0.939349 0.958474 0.752821 0.259176
H26   H     H_    0.936319 0.856065 0.897980 0.262457
H27   H     H_    0.030444 0.950804 0.863649 0.245986
H28   H     H_    0.052773 0.730582 0.797625 0.224235
H29   H     H_    0.054212 0.830975 0.652178 0.219804
H30   H     H_    0.901866 0.769737 0.602105 0.202574
H31   H     H_    0.899167 0.669692 0.747009 0.195674
H32   H     H_    0.058542 0.301639 0.987674 0.260930
H33   H     H_    0.084125 0.460687 0.041950 0.264084
H34   H     H_    0.325528 0.448705 0.875693 0.179264
H35   H     H_    0.981619 0.389469 0.080284 0.247837
H36   H     H_    0.969666 0.540046 0.892510 0.223261
H37   H     H_    0.943154 0.382220 0.837923 0.223216
H38   H     H_    0.095414 0.365507 0.753191 0.202583
H39   H     H_    0.113779 0.528658 0.793332 0.192834
H40   H     H_    0.326588 0.451288 0.118621 0.203199
H41   H     H_    0.352595 0.281367 0.122356 0.193906
H42   H     H_    0.940953 0.308640 0.579724 0.136865
H43   H     H_    0.946577 0.549186 0.271929 0.144337
H44   H     H_    0.059252 0.712665 0.420458 0.135797
N1    N     N_R   0.499430 0.499140 0.142800 -0.133567
N2    N     N_R   0.499430 0.499180 0.857150 -0.152234
N3    N     N_3   0.637052 0.131399 0.688407 -0.432548
N4    N     N_3   0.592516 0.686009 0.139734 -0.472894
O1    O     O_R   0.500010 0.316790 0.614690 -0.613848
O2    O     O_R   0.500000 0.316760 0.385350 -0.617495
O3    O     O_R   0.376780 0.500010 0.614650 -0.624728
O4    O     O_R   0.376770 0.499970 0.385310 -0.611993
O5    O     O_R   0.500000 0.683240 0.614650 -0.633400
O6    O     O_R   0.499990 0.683210 0.385310 -0.641434
O7    O     O_R   0.623230 0.500030 0.614690 -0.630172
O8    O     O_R   0.623220 0.499990 0.385350 -0.625798
Zn1   Zn    Zn3+2 0.500010 0.500020 0.653130 0.923980
Zn2   Zn    Zn3+2 0.499990 0.499980 0.346870 0.926654

loop_
_geom_bond_atom_site_label_1
_geom_bond_atom_site_label_2
_ccdc_geom_bond_type
C37   H32   S    
C29   H21   S    
C35   C36   S    
H7    N4    S    
C26   H13   S    
C35   H39   S    
C7    C8    S    
O2    Zn2   S    
C9    C42   S    
C38   H44   S    
C28   C29   S    
C17   H40   S    
C38   C39   S    
O5    Zn1   S    
C31   H31   S    
C22   C41   T    
C10   C17   S    
C35   H38   S    
C1    C2    S    
C7    C42   A    
H8    N4    S    
C19   C20   S    
C11   N1    A    
C8    C9    S    
C30   H18   S    
C23   C24   S    
C18   O7    A    
O3    Zn1   S    
C33   H27   S    
C15   H34   S    
C37   H33   S    
C1    O1    A    
H5    N3    S    
C13   C25   S    
C34   C41   S    
C25   H15   S    
O7    Zn1   S    
C27   H9    S    
C32   H29   S    
C9    H23   S    
C10   N1    A    
C3    H2    S    
C16   O6    A    
C24   C35   S    
C34   C39   S    
C10   C14   A    
C8    H12   S    
C20   C39   S    
C32   H28   S    
C25   C26   S    
C37   H35   S    
C19   C34   S    
C17   H41   S    
C23   C31   S    
C12   C40   S    
C28   H24   S    
C29   C30   S    
C31   C32   S    
O4    Zn2   S    
C23   C34   S    
C30   H17   S    
C12   C20   S    
C26   C27   S    
C4    O4    A    
C28   H22   S    
C31   H30   S    
C1    O2    A    
O8    Zn2   S    
H6    N3    S    
C25   H16   S    
C39   H43   S    
C9    N3    S    
C19   H42   S    
C20   H1    S    
C27   H10   S    
C33   H25   S    
N1    Zn2   S    
C15   C17   S    
C29   H20   S    
C36   C37   S    
C16   O5    A    
C18   C22   S    
C3    C5    A    
C36   H37   S    
C26   H14   S    
C27   H11   S    
C6    C7    A    
C23   C38   S    
C12   C24   S    
C32   C33   S    
C2    C3    A    
C14   N2    A    
C36   H36   S    
C4    C21   S    
C11   C13   A    
C11   N4    S    
C15   C28   S    
C5    C6    A    
C21   C40   T    
C5    H3    S    
C2    C42   A    
O6    Zn2   S    
C13   N2    A    
C19   C24   S    
C12   C38   S    
C8    H4    S    
N2    Zn1   S    
C6    C16   S    
C4    O3    A    
C30   H19   S    
C14   C15   S    
C18   O8    A    
O1    Zn1   S    
C33   H26   S    
