data_mof_unit_50946.cif
_audit_creation_date              2012-12-10T17:25:36-0500
_audit_creation_method            fapswitch 2.2
_symmetry_space_group_name_H-M    P1
_symmetry_Int_Tables_number       1
_space_group_crystal_system       triclinic
_cell_length_a                    10.101098
_cell_length_b                    10.202422
_cell_length_c                    23.451788
_cell_angle_alpha                 89.784508
_cell_angle_beta                  81.016074
_cell_angle_gamma                 96.619577
_cell_volume                      2370.69253031

loop_
_atom_site_label
_atom_site_type_symbol
_atom_type_description
_atom_site_fract_x
_atom_site_fract_y
_atom_site_fract_z
_atom_type_partial_charge
C1    C     C_R   0.558070 0.738448 0.497482 0.830408
C2    C     C_R   0.379293 0.465916 0.304046 0.524665
C3    C     C_R   0.399185 0.539251 0.771268 -0.288811
C4    C     C_R   0.383794 0.469723 0.244370 -0.283453
C5    C     C_R   0.518281 0.516235 0.790684 0.138805
C6    C     C_R   0.506980 0.499016 0.207940 0.140420
C7    C     C_2   0.594524 0.877567 0.513693 0.316854
C8    C     C_2   0.406276 0.158777 0.556054 0.228595
C9    C     C_2   0.507330 0.967196 0.510068 0.287186
C10   C     C_2   0.482593 0.059533 0.559268 0.336842
C11   C     C_2   0.926963 0.506853 0.506669 -0.136237
C12   C     C_R   0.441900 0.263778 0.511057 0.802627
C13   C     C_2   0.071863 0.486359 0.495809 -0.104301
C14   C     C_R   0.500484 0.501204 0.610788 0.938337
C15   C     C_R   0.499531 0.498992 0.389354 0.950195
C16   C     C_R   0.503820 0.384449 0.118910 0.534033
C17   C     C_R   0.530124 0.632042 0.879148 0.534853
C18   C     C_R   0.518938 0.620062 0.119121 0.608473
C19   C     C_R   0.515034 0.396426 0.879030 0.602889
C20   C     C_R   0.523480 0.625193 0.059405 -0.081092
C21   C     C_R   0.513948 0.391564 0.938510 -0.079703
C22   C     C_R   0.517444 0.506369 0.029019 -0.082457
C23   C     C_R   0.631976 0.491822 0.751703 0.610446
C24   C     C_R   0.520562 0.510414 0.968839 -0.082948
C25   C     C_R   0.507241 0.383684 0.058810 -0.118745
C26   C     C_R   0.529885 0.633017 0.939077 -0.120179
C27   C     C_R   0.533426 0.746321 0.029843 -0.272908
C28   C     C_R   0.505281 0.270493 0.967974 -0.275716
C29   C     C_R   0.539109 0.751761 0.969955 0.533527
C30   C     C_R   0.499374 0.264989 0.027858 0.532186
C31   C     C_3   0.675321 0.939901 0.939107 -0.211278
C32   C     C_3   0.364285 0.075523 0.057905 -0.208366
C33   C     C_3   0.839196 0.584719 0.764834 -0.335971
C34   C     C_R   0.627627 0.524292 0.230387 0.597955
C35   C     C_3   0.823697 0.448893 0.191193 -0.290840
C36   C     C_3   0.172973 0.453434 0.706851 -0.262657
C37   C     C_3   0.228169 0.298480 0.345753 -0.299337
C38   C     C_3   0.581185 0.101515 0.639686 -0.149483
C39   C     C_3   0.289430 0.930483 0.488248 -0.303982
C40   C     C_3   0.203385 0.111116 0.614012 -0.266842
C41   C     C_3   0.709222 0.823719 0.587557 -0.254897
C42   C     C_R   0.623506 0.484703 0.693127 -0.440513
C43   C     C_R   0.623114 0.525935 0.290050 -0.378818
C44   C     C_R   0.503630 0.506181 0.672985 -0.229503
C45   C     C_R   0.499736 0.497284 0.327120 -0.233066
C46   C     C_R   0.389892 0.533003 0.712599 0.528918
H1    H     H_    0.536567 0.837875 0.053062 0.216452
H2    H     H_    0.356124 0.986588 0.086152 0.205895
H3    H     H_    0.930101 0.567866 0.783637 0.200978
H4    H     H_    0.872453 0.612232 0.718409 0.156525
H5    H     H_    0.794315 0.667655 0.788393 0.187556
H6    H     H_    0.766671 0.358335 0.176756 0.189736
H7    H     H_    0.855640 0.430051 0.233485 0.164626
H8    H     H_    0.916492 0.472470 0.159056 0.196987
H9    H     H_    0.711415 0.462639 0.663607 0.196418
H10   H     H_    0.716076 0.551263 0.307236 0.203536
H11   H     H_    0.209027 0.360461 0.689291 0.197166
H12   H     H_    0.502525 0.178988 0.944716 0.216724
H13   H     H_    0.084801 0.471030 0.686213 0.184793
H14   H     H_    0.138127 0.442150 0.754163 0.153697
H15   H     H_    0.129408 0.274648 0.374029 0.175362
H16   H     H_    0.305586 0.256040 0.366825 0.164121
H17   H     H_    0.220062 0.251248 0.303525 0.177482
H18   H     H_    0.313324 0.561227 0.802025 0.174166
H19   H     H_    0.291498 0.449261 0.226219 0.171707
H20   H     H_    0.678434 0.130297 0.610512 0.154788
H21   H     H_    0.605008 0.053385 0.678734 0.182056
H22   H     H_    0.533079 0.190950 0.653898 0.192220
H23   H     H_    0.120825 0.617253 0.553442 0.159243
H24   H     H_    0.242694 0.023763 0.489450 0.144735
H25   H     H_    0.267616 0.879817 0.531442 0.155432
H26   H     H_    0.240345 0.864570 0.458195 0.218187
H27   H     H_    0.146697 0.123655 0.577699 0.144773
H28   H     H_    0.140201 0.139519 0.654018 0.177634
H29   H     H_    0.218607 0.005882 0.619656 0.186843
H30   H     H_    0.764913 0.740520 0.571675 0.169523
H31   H     H_    0.607158 0.786591 0.611077 0.171898
H32   H     H_    0.765883 0.876006 0.619253 0.173737
H33   H     H_    0.107024 0.416058 0.464024 0.180761
H34   H     H_    0.880294 0.387837 0.444507 0.174046
H35   H     H_    0.891210 0.572010 0.540514 0.146189
H36   H     H_    0.683155 0.029544 0.911319 0.205052
H37   H     H_    0.753497 0.878340 0.918928 0.150209
H38   H     H_    0.695959 0.972587 0.982360 0.167697
H39   H     H_    0.284647 0.136519 0.077132 0.150135
H40   H     H_    0.346044 0.041569 0.014516 0.166753
N1    N     N_R   0.509649 0.501241 0.147146 -0.334612
N2    N     N_R   0.522362 0.515095 0.851047 -0.334702
N3    N     N_2   0.842710 0.448880 0.476480 -0.181347
N4    N     N_2   0.157290 0.551120 0.523520 -0.190258
O1    O     O_R   0.431060 0.692470 0.504730 -0.594818
O2    O     O_2   0.538120 0.746098 0.848820 -0.505927
O3    O     O_2   0.523612 0.732636 0.149208 -0.531432
O4    O     O_2   0.507224 0.283532 0.849222 -0.542384
O5    O     O_3   0.543995 0.872953 0.942501 -0.567978
O6    O     O_3   0.494815 0.143840 0.055326 -0.566842
O7    O     O_3   0.748867 0.467610 0.771497 -0.595491
O8    O     O_3   0.748044 0.557112 0.193635 -0.587976
O9    O     O_3   0.273147 0.562114 0.693845 -0.591150
O10   O     O_3   0.256322 0.436839 0.339414 -0.592666
O11   O     O_3   0.493177 0.011094 0.613657 -0.594387
O12   O     O_R   0.568940 0.307530 0.495270 -0.608763
O13   O     O_3   0.428502 0.955499 0.466119 -0.646604
O14   O     O_3   0.326820 0.193880 0.606158 -0.599390
O15   O     O_3   0.705103 0.912839 0.541733 -0.632754
O16   O     O_R   0.651120 0.659650 0.489640 -0.595333
O17   O     O_R   0.348880 0.340350 0.510360 -0.576426
O18   O     O_R   0.389950 0.516450 0.591390 -0.538324
O19   O     O_R   0.610050 0.483550 0.408610 -0.610372
O20   O     O_R   0.610020 0.483630 0.576300 -0.646653
O21   O     O_R   0.389980 0.516370 0.423700 -0.554272
O22   O     O_2   0.495002 0.270315 0.149273 -0.510628
Zn1   Zn    Zn3+2 0.353060 0.521920 0.510080 0.995202
Zn2   Zn    Zn3+2 0.646940 0.478080 0.489920 0.944341

loop_
_geom_bond_atom_site_label_1
_geom_bond_atom_site_label_2
_ccdc_geom_bond_type
C46   O9    S    
C13   H33   S    
C13   N4    D    
C27   C29   A    
C17   N2    A    
C15   O19   A    
C36   H13   S    
C37   H16   S    
C3    H18   S    
C11   H35   S    
C31   H36   S    
C41   O15   S    
O16   Zn2   S    
C17   C26   A    
C19   C21   A    
C24   C26   A    
C38   O11   S    
C41   H31   S    
C4    H19   S    
C35   H7    S    
C33   H3    S    
C16   C25   A    
C31   H37   S    
C40   H27   S    
C14   O20   A    
N4    Zn1   S    
H34   N3    S    
O17   Zn1   S    
C30   O6    S    
C5    N2    S    
C38   H20   S    
C22   C25   A    
C16   N1    A    
C39   H26   S    
C7    O15   S    
C35   O8    S    
C9    C10   S    
O20   Zn2   S    
C33   O7    S    
C8    C12   S    
C1    O16   A    
C14   O18   A    
C2    O10   S    
C1    O1    A    
C35   H8    S    
C32   H2    S    
C17   O2    S    
C42   C44   A    
C37   H17   S    
C44   C46   A    
C2    C45   A    
C15   O21   A    
C4    C6    A    
C36   H11   S    
C41   H32   S    
C29   O5    S    
C3    C5    A    
C33   H4    S    
C6    N1    S    
O1    Zn1   S    
O18   Zn1   S    
C2    C4    A    
C12   O12   A    
O12   Zn2   S    
C42   H9    S    
C40   O14   S    
C8    O14   S    
C11   N3    D    
C23   C42   A    
C5    C23   A    
C9    O13   S    
C32   H40   S    
O21   Zn1   S    
C43   C45   A    
C19   O4    S    
O19   Zn2   S    
C23   O7    S    
C21   C28   A    
C20   C22   A    
C19   N2    A    
C22   C24   A    
C15   C45   S    
H23   N4    S    
C16   O22   S    
C14   C44   S    
C27   H1    S    
C25   C30   A    
C7    C9    D    
N3    Zn2   S    
C32   O6    S    
C1    C7    S    
C10   O11   S    
C34   C43   A    
C38   H22   S    
C36   H14   S    
C12   O17   A    
C37   H15   S    
C39   O13   S    
C20   C27   A    
C28   H12   S    
C33   H5    S    
C3    C46   A    
C18   N1    A    
C40   H29   S    
C28   C30   A    
C41   H30   S    
C11   C13   S    
C31   O5    S    
C32   H39   S    
C34   O8    S    
C39   H24   S    
C40   H28   S    
C36   O9    S    
C18   C20   A    
C31   H38   S    
C6    C34   A    
C43   H10   S    
C38   H21   S    
C26   C29   A    
C8    C10   D    
C21   C24   A    
C35   H6    S    
C18   O3    S    
C39   H25   S    
C37   O10   S    
