data_mof_unit_29414.cif
_audit_creation_date              2012-12-11T15:48:11-0500
_audit_creation_method            fapswitch 2.2
_symmetry_space_group_name_H-M    P1
_symmetry_Int_Tables_number       1
_space_group_crystal_system       triclinic
_cell_length_a                    6.927218
_cell_length_b                    17.590077
_cell_length_c                    19.446701
_cell_angle_alpha                 108.516996
_cell_angle_beta                  89.614425
_cell_angle_gamma                 90.528008
_cell_volume                      2246.79813997

loop_
_atom_site_label
_atom_site_type_symbol
_atom_type_description
_atom_site_fract_x
_atom_site_fract_y
_atom_site_fract_z
_atom_type_partial_charge
O1    O     O_R   0.494330 0.415710 0.413720 -0.540314
O2    O     O_R   0.819360 0.430070 0.560210 -0.547162
O3    O     O_R   0.994320 0.584290 0.586280 -0.546729
C1    C     C_R   0.651327 0.420352 0.586075 0.709608
O4    O     O_R   0.823740 0.406290 0.412670 -0.541629
O5    O     O_R   0.998730 0.560340 0.437690 -0.538431
C2    C     C_R   0.654744 0.383103 0.384675 0.693105
O6    O     O_R   0.489920 0.439660 0.562310 -0.536773
O7    O     O_3   0.662330 0.550570 0.508380 -0.370738
V1    V     V_3+5 0.935370 0.490620 0.498440 1.389316
O8    O     O_R   0.328720 0.569930 0.439790 -0.542251
C3    C     C_R   0.160579 0.585061 0.418190 0.710558
O9    O     O_R   0.324340 0.593710 0.587330 -0.543516
C4    C     C_R   0.155228 0.616667 0.615475 0.678256
V2    V     V_3+5 0.435940 0.509380 0.501560 1.392760
O10   O     O_3   0.159110 0.449430 0.491620 -0.368125
C5    C     C_R   0.312032 0.724932 0.717738 -0.158253
H1    H     H_    0.452646 0.707279 0.693591 0.117026
C6    C     C_R   0.300785 0.788779 0.782664 -0.154274
H2    H     H_    0.433324 0.818444 0.806424 0.118764
C7    C     C_R   0.121281 0.814181 0.816166 -0.046979
C8    C     C_R   0.953412 0.773663 0.783071 -0.159249
H3    H     H_    0.812812 0.791257 0.807248 0.117884
C9    C     C_R   0.964672 0.709781 0.718168 -0.156263
H4    H     H_    0.832198 0.679960 0.694501 0.120657
C10   C     C_R   0.144089 0.684708 0.684452 -0.043607
C11   C     C_R   0.301702 0.630790 0.318999 -0.215002
C12   C     C_R   0.152499 0.634377 0.368917 -0.081108
C13   C     C_R   0.993744 0.684117 0.370884 -0.228321
C14   C     C_R   0.983175 0.731564 0.324366 0.075991
C15   C     C_R   0.135114 0.726730 0.273757 0.018549
C16   C     C_R   0.293357 0.675938 0.271160 0.068473
C17   C     C_R   0.825266 0.783426 0.326616 0.070116
C18   C     C_R   0.821547 0.828150 0.278270 -0.221224
C19   C     C_R   0.970717 0.823171 0.228148 0.077189
C20   C     C_R   0.129197 0.772511 0.225646 0.010293
C21   C     C_R   0.281042 0.767601 0.174969 0.073449
C22   C     C_R   0.438126 0.715200 0.172301 0.131968
C23   C     C_R   0.441959 0.670592 0.220748 -0.222317
C24   C     C_R   0.962496 0.868414 0.180396 -0.219474
C25   C     C_R   0.112234 0.865193 0.130752 -0.083950
C26   C     C_R   0.270891 0.815336 0.128687 -0.220842
H5    H     H_    0.423749 0.591884 0.316767 0.119809
H6    H     H_    0.880860 0.685927 0.409951 0.133856
H7    H     H_    0.700749 0.867448 0.279760 0.126064
H8    H     H_    0.840247 0.907198 0.182554 0.120291
H9    H     H_    0.384027 0.813674 0.089758 0.136653
H10   H     H_    0.562124 0.630901 0.218965 0.129040
C27   C     C_R   0.784474 0.183690 0.869333 -0.223215
C28   C     C_R   0.623462 0.134404 0.869015 -0.084310
C29   C     C_R   0.468598 0.133316 0.822175 -0.221666
C30   C     C_R   0.474029 0.180586 0.775997 0.091345
C31   C     C_R   0.633843 0.231633 0.778011 0.063694
C32   C     C_R   0.788955 0.233180 0.825085 0.094365
C33   C     C_R   0.322064 0.177873 0.727986 -0.186711
C34   C     C_R   0.328298 0.225166 0.682247 -0.175566
C35   C     C_R   0.484937 0.277154 0.684589 0.088754
C36   C     C_R   0.637875 0.281398 0.733201 0.016082
C37   C     C_R   0.793101 0.335793 0.737900 0.081961
C38   C     C_R   0.947753 0.335225 0.784874 -0.185531
C39   C     C_R   0.945686 0.284545 0.827458 -0.194988
C40   C     C_R   0.492127 0.323494 0.637935 -0.257669
C41   C     C_R   0.644790 0.377598 0.641063 -0.120787
C42   C     C_R   0.789045 0.389177 0.695880 0.097357
H11   H     H_    0.904068 0.185102 0.905424 0.128148
H12   H     H_    0.344590 0.094863 0.821045 0.124038
H13   H     H_    0.198353 0.138986 0.725664 0.131854
H14   H     H_    0.209429 0.221556 0.645365 0.128453
H15   H     H_    0.378715 0.316745 0.598202 0.136847
H16   H     H_    0.073696 0.373004 0.788867 0.145717
H17   H     H_    0.067125 0.285925 0.862706 0.134645
C43   C     C_R   0.811675 0.276228 0.281659 -0.156249
H18   H     H_    0.952433 0.295351 0.304960 0.116814
C44   C     C_R   0.800595 0.212432 0.216689 -0.153125
H19   H     H_    0.933340 0.184252 0.192060 0.118510
C45   C     C_R   0.621001 0.185367 0.184124 -0.046728
C46   C     C_R   0.452785 0.223865 0.218389 -0.156089
H20   H     H_    0.312037 0.204737 0.195082 0.116616
C47   C     C_R   0.463866 0.287667 0.283364 -0.153235
H21   H     H_    0.331133 0.315854 0.307998 0.118627
C48   C     C_R   0.643467 0.314724 0.315930 -0.048864
O11   O     O_R   0.774940 0.060470 0.937800 -0.539089
O12   O     O_R   0.440880 0.093730 0.087350 -0.542986
O13   O     O_R   0.266130 0.939630 0.062280 -0.539777
C49   C     C_R   0.609815 0.116971 0.115389 0.686443
O14   O     O_R   0.445480 0.069960 0.939820 -0.542224
O15   O     O_R   0.270770 0.915690 0.913690 -0.541780
C50   C     C_R   0.614627 0.084856 0.918027 0.713572
O16   O     O_R   0.770300 0.084410 0.086380 -0.541902
O17   O     O_3   0.602600 0.949510 0.991670 -0.369800
V3    V     V_3+5 0.329470 0.009370 0.001550 1.397847
O18   O     O_R   0.940760 0.906160 0.912560 -0.543603
C51   C     C_R   0.109983 0.882875 0.884708 0.684474
O19   O     O_R   0.936150 0.929930 0.060100 -0.541772
C52   C     C_R   0.104291 0.914762 0.081673 0.709233
V4    V     V_3+5 0.828930 0.990450 0.998310 1.397531
O20   O     O_3   0.105670 0.050490 0.008320 -0.369104
C53   C     C_3   0.602884 0.704058 0.118323 -0.346536
C54   C     C_3   0.543751 0.649087 0.043414 -0.752390
H22   H     H_    0.502573 0.588987 0.046309 0.231041
H23   H     H_    0.420065 0.674214 0.022011 0.223844
H24   H     H_    0.667147 0.642148 0.005216 0.218188
H25   H     H_    0.654620 0.762650 0.115097 0.178728
H26   H     H_    0.729380 0.676836 0.136287 0.187075
C55   C     C_3   0.925936 0.461668 0.714345 -0.359338
C56   C     C_3   0.879997 0.521804 0.788773 -0.778512
H27   H     H_    0.729249 0.543184 0.789776 0.227250
H28   H     H_    0.897759 0.495301 0.832963 0.234780
H29   H     H_    0.978975 0.574293 0.799447 0.223240
H30   H     H_    0.078542 0.442176 0.711495 0.171268
H31   H     H_    0.915441 0.496562 0.676499 0.195777
C57   C     C_3   0.657865 0.792678 0.379219 -0.349742
C58   C     C_3   0.711619 0.847647 0.455207 -0.309910
C59   C     C_3   0.546372 0.852622 0.508744 -0.761701
H32   H     H_    0.414737 0.876547 0.490832 0.229441
H33   H     H_    0.513804 0.792323 0.513063 0.227885
H34   H     H_    0.588060 0.893267 0.563125 0.218401
H35   H     H_    0.842030 0.825164 0.475246 0.194538
H36   H     H_    0.744468 0.908808 0.452967 0.198663
H37   H     H_    0.531251 0.818787 0.360116 0.180471
H38   H     H_    0.609222 0.733101 0.380972 0.178238

loop_
_geom_bond_atom_site_label_1
_geom_bond_atom_site_label_2
_ccdc_geom_bond_type
C33   C34   A    
O15   V3    S    
C25   C26   A    
C19   C20   A    
C1    O6    A    
C59   H32   S    
C35   C36   A    
C57   H37   S    
C42   C55   S    
C25   C52   S    
C46   H20   S    
C24   H8    S    
C1    C41   S    
C37   C42   A    
C13   C14   A    
C44   C45   A    
C3    C12   S    
C5    C10   A    
C20   C21   A    
C6    C7    A    
C55   H30   S    
C9    C10   A    
O14   V3    S    
C15   C20   A    
O5    C3    A    
C22   C23   A    
O14   C50   A    
C56   H27   S    
C27   C32   A    
O18   V4    S    
C34   C35   A    
C5    H1    S    
C18   C19   A    
C16   C23   A    
C21   C26   A    
C58   H36   S    
O8    V2    S    
C54   H22   S    
C53   H25   S    
O1    V2    S    
O13   V3    S    
O7    V1    S    
C43   C48   A    
O11   C50   A    
C30   C33   A    
C28   C50   S    
C58   H35   S    
C39   H17   S    
C55   H31   S    
C37   C38   A    
O9    C4    A    
C57   C58   S    
C28   C29   A    
C22   C53   S    
C46   C47   A    
O11   V4    S    
C44   H19   S    
C29   C30   A    
C35   C40   A    
C9    H4    S    
C43   C44   A    
C47   C48   A    
C49   O16   A    
C36   C37   A    
C34   H14   S    
O17   V4    S    
V3    O20   S    
C41   C42   A    
C40   H15   S    
C38   C39   A    
O13   C52   A    
O2    C1    A    
C21   C22   A    
C33   H13   S    
C15   C16   A    
C38   H16   S    
C31   C36   A    
V4    O20   S    
C4    C10   S    
C40   C41   A    
C17   C18   A    
C18   H7    S    
C45   C46   A    
O19   V4    S    
O3    C4    A    
C27   H11   S    
C24   C25   A    
C2    C48   S    
C53   C54   S    
O6    V2    S    
O9    V2    S    
C13   H6    S    
C8    C9    A    
C7    C51   S    
C29   H12   S    
O2    V1    S    
C30   C31   A    
O4    C2    A    
C58   C59   S    
C17   C57   S    
C12   C13   A    
C14   C17   A    
O12   C49   A    
C11   C16   A    
O1    C2    A    
C43   H18   S    
O5    V1    S    
C59   H33   S    
O8    C3    A    
C31   C32   A    
C32   C39   A    
O12   V3    S    
C55   C56   S    
C6    H2    S    
C19   C24   A    
O7    V2    S    
O4    V1    S    
O3    V1    S    
V1    O10   S    
O17   V3    S    
C14   C15   A    
C56   H28   S    
O16   V4    S    
C53   H26   S    
O15   C51   A    
O18   C51   A    
C5    C6    A    
C26   H9    S    
O19   C52   A    
C59   H34   S    
C47   H21   S    
C11   H5    S    
C57   H38   S    
C54   H24   S    
C27   C28   A    
C11   C12   A    
C8    H3    S    
C7    C8    A    
C45   C49   S    
C54   H23   S    
V2    O10   S    
C23   H10   S    
C56   H29   S    
