data_mof_unit_19392.cif
_audit_creation_date              2012-12-11T15:42:38-0500
_audit_creation_method            fapswitch 2.2
_symmetry_space_group_name_H-M    P1
_symmetry_Int_Tables_number       1
_space_group_crystal_system       triclinic
_cell_length_a                    6.932428
_cell_length_b                    14.54884
_cell_length_c                    16.200637
_cell_angle_alpha                 90.431791
_cell_angle_beta                  89.853283
_cell_angle_gamma                 89.952644
_cell_volume                      1633.92423552

loop_
_atom_site_label
_atom_site_type_symbol
_atom_type_description
_atom_site_fract_x
_atom_site_fract_y
_atom_site_fract_z
_atom_type_partial_charge
O1    O     O_R   0.505810 0.583360 0.413880 -0.541342
O2    O     O_R   0.175870 0.595480 0.585520 -0.541912
O3    O     O_R   0.005540 0.416640 0.586120 -0.541485
C1    C     C_R   0.344599 0.617879 0.614284 0.695896
O4    O     O_R   0.176100 0.594390 0.414490 -0.543524
O5    O     O_R   0.005770 0.415540 0.413870 -0.541299
C2    C     C_R   0.345266 0.616481 0.385735 0.684770
O6    O     O_R   0.505580 0.584460 0.586130 -0.540388
O7    O     O_3   0.339190 0.441320 0.500000 -0.369455
V1    V     V_3+5 0.064350 0.510890 0.500000 1.400523
O8    O     O_R   0.676050 0.404520 0.414480 -0.544201
C3    C     C_R   0.845258 0.382091 0.385731 0.684998
O9    O     O_R   0.675830 0.405610 0.585510 -0.539468
C4    C     C_R   0.845005 0.383617 0.613681 0.747389
V2    V     V_3+5 0.564340 0.489110 0.500000 1.402574
O10   O     O_3   0.839370 0.558680 0.500000 -0.371679
C5    C     C_2   0.720698 0.208161 0.785561 -0.131613
C6    C     C_2   0.885861 0.181527 0.822345 -0.312048
H1    H     H_    0.584838 0.179052 0.806229 0.136217
H2    H     H_    0.023441 0.209837 0.803727 0.127965
C7    C     C_2   0.708133 0.276672 0.717669 -0.133559
C8    C     C_2   0.861560 0.315329 0.680417 -0.310059
H3    H     H_    0.564029 0.295242 0.697560 0.134820
H4    H     H_    0.006818 0.297387 0.698634 0.129453
C9    C     C_R   0.047325 0.222816 0.219241 -0.156421
H5    H     H_    0.188122 0.204108 0.195376 0.117058
C10   C     C_R   0.036215 0.286819 0.284050 -0.151823
H6    H     H_    0.168958 0.315616 0.307956 0.118842
C11   C     C_R   0.856576 0.313317 0.317350 -0.045402
C12   C     C_R   0.688351 0.274063 0.283983 -0.156189
H7    H     H_    0.547555 0.292771 0.307848 0.116959
C13   C     C_R   0.699461 0.210059 0.219173 -0.151606
H8    H     H_    0.566720 0.181262 0.195266 0.118944
C14   C     C_R   0.879101 0.183562 0.185872 -0.045726
C15   C     C_R   0.201290 0.699438 0.737726 -0.158875
H9    H     H_    0.070084 0.659770 0.730817 0.126757
C16   C     C_R   0.216476 0.761462 0.803980 -0.192114
H10   H     H_    0.096737 0.767196 0.846679 0.128345
C17   C     C_R   0.384402 0.814242 0.816249 -0.059661
C18   C     C_R   0.539191 0.803624 0.758885 0.160142
C19   C     C_R   0.523510 0.739110 0.693945 -0.146977
H11   H     H_    0.642407 0.730683 0.650967 0.122898
C20   C     C_R   0.355565 0.686709 0.682586 -0.085572
C21   C     C_R   0.188475 0.723195 0.283857 -0.155734
H12   H     H_    0.047644 0.704825 0.307573 0.116551
C22   C     C_R   0.199672 0.786301 0.219106 -0.151381
H13   H     H_    0.066917 0.814725 0.195143 0.118689
C23   C     C_R   0.379326 0.812403 0.185919 -0.047225
C24   C     C_R   0.547465 0.773592 0.219426 -0.155860
H14   H     H_    0.688291 0.791967 0.195707 0.116571
C25   C     C_R   0.536267 0.710483 0.284179 -0.151307
H15   H     H_    0.669015 0.682056 0.308147 0.118512
C26   C     C_R   0.356608 0.684380 0.317362 -0.046636
O11   O     O_R   0.230120 0.912300 0.917180 -0.541115
O12   O     O_R   0.559740 0.902430 0.088770 -0.543119
O13   O     O_R   0.729930 0.081310 0.089370 -0.540846
C27   C     C_R   0.390609 0.880302 0.117545 0.687129
O14   O     O_R   0.559840 0.901330 0.917750 -0.538520
O15   O     O_R   0.730030 0.080210 0.917120 -0.537555
C28   C     C_R   0.391978 0.880599 0.887387 0.696890
O16   O     O_R   0.230020 0.913400 0.089430 -0.540826
O17   O     O_3   0.396460 0.055470 0.003290 -0.369416
V3    V     V_3+5 0.671360 0.985960 0.003250 1.397601
O18   O     O_R   0.059740 0.091300 0.917690 -0.543701
C29   C     C_R   0.891099 0.113090 0.889357 0.748698
O19   O     O_R   0.059640 0.092400 0.088720 -0.544031
C30   C     C_R   0.890430 0.114790 0.117491 0.686170
V4    V     V_3+5 0.171350 0.007820 0.003190 1.398590
O20   O     O_3   0.896380 0.938200 0.003220 -0.371733
C31   C     C_3   0.719029 0.861824 0.763077 -0.762771
H16   H     H_    0.679659 0.935838 0.763759 0.200612
H17   H     H_    0.802438 0.845027 0.819219 0.217564
H18   H     H_    0.815317 0.849725 0.709151 0.196043

loop_
_geom_bond_atom_site_label_1
_geom_bond_atom_site_label_2
_ccdc_geom_bond_type
O19   V4    S    
C3    C11   S    
C10   C11   A    
C19   H11   S    
C15   H9    S    
C1    O6    A    
C23   C27   S    
O11   C28   A    
C6    C29   S    
C11   C12   A    
C18   C31   S    
O18   V4    S    
C15   C16   A    
C16   H10   S    
O5    C3    A    
C12   H7    S    
O11   V4    S    
O14   C28   A    
V2    O10   S    
O8    V2    S    
C21   C26   A    
V3    O20   S    
V4    O20   S    
C24   C25   A    
O12   V3    S    
C31   H16   S    
O1    V2    S    
C15   C20   A    
O7    V1    S    
C9    C14   A    
O19   C30   A    
O9    C4    A    
C19   C20   A    
C21   C22   A    
C22   C23   A    
C25   H15   S    
C17   C18   A    
O4    C2    A    
C9    H5    S    
C5    C7    S    
C25   C26   A    
C13   C14   A    
O2    C1    A    
O17   V3    S    
C31   H18   S    
C5    C6    D    
O13   V3    S    
O12   C27   A    
O3    C4    A    
C23   C24   A    
O6    V2    S    
O9    V2    S    
C8    H4    S    
C2    C26   S    
O2    V1    S    
C21   H12   S    
O14   V3    S    
C22   H13   S    
C18   C19   A    
O1    C2    A    
C14   C30   S    
O5    V1    S    
O8    C3    A    
C27   O16   A    
C1    C20   S    
C9    C10   A    
O13   C30   A    
O15   V3    S    
O17   V4    S    
C13   H8    S    
C4    C8    S    
C7    H3    S    
O7    V2    S    
O4    V1    S    
C16   C17   A    
O3    V1    S    
V1    O10   S    
O18   C29   A    
C12   C13   A    
O16   V4    S    
C17   C28   S    
C5    H1    S    
C6    H2    S    
C24   H14   S    
C10   H6    S    
C31   H17   S    
C7    C8    D    
O15   C29   A    
