data_mof_unit_50701.cif
_audit_creation_date              2012-10-26T20:44:07-0400
_audit_creation_method            fapswitch 2.2
_symmetry_space_group_name_H-M    P1
_symmetry_Int_Tables_number       1
_space_group_crystal_system       triclinic
_cell_length_a                    10.824916
_cell_length_b                    9.50103
_cell_length_c                    19.385396
_cell_angle_alpha                 90.064881
_cell_angle_beta                  90.126876
_cell_angle_gamma                 89.995551
_cell_volume                      1993.74016008

loop_
_atom_site_label
_atom_site_type_symbol
_atom_type_description
_atom_site_fract_x
_atom_site_fract_y
_atom_site_fract_z
_atom_type_partial_charge
C1    C     C_R   0.871794 0.499991 0.499929 0.018908
C2    C     C_R   0.737987 0.499995 0.500000 0.549971
C3    C     C_R   0.500307 0.499970 0.367552 0.553921
C4    C     C_R   0.500795 0.500047 0.632478 0.554583
C5    C     C_R   0.063876 0.372081 0.498714 -0.143147
C6    C     C_R   0.936125 0.627910 0.500983 -0.143805
C7    C     C_R   0.936134 0.372076 0.498773 -0.143675
C8    C     C_R   0.063866 0.627916 0.500914 -0.143484
C9    C     C_R   0.477243 0.377049 0.744782 -0.155263
C10   C     C_R   0.467410 0.620994 0.255760 -0.148211
C11   C     C_R   0.543102 0.381131 0.255893 -0.156367
C12   C     C_R   0.128207 0.500001 0.499832 0.019298
C13   C     C_R   0.540158 0.621859 0.743891 -0.149075
C14   C     C_R   0.482212 0.374666 0.817515 0.229454
C15   C     C_R   0.471857 0.625034 0.183214 0.226673
C16   C     C_R   0.550759 0.381987 0.183352 0.225813
C17   C     C_R   0.551093 0.621081 0.815980 0.222145
C18   C     C_R   0.517328 0.498762 0.852226 0.051933
C19   C     C_R   0.511618 0.503575 0.147631 0.052726
C20   C     C_R   0.426665 0.074389 0.455213 0.004652
C21   C     C_R   0.573271 0.925612 0.544812 0.005537
C22   C     C_R   0.573296 0.074566 0.544797 0.005434
C23   C     C_R   0.404908 0.522878 0.962730 -0.072045
C24   C     C_R   0.426702 0.925435 0.455189 0.006874
C25   C     C_R   0.506042 0.499766 0.708189 -0.070460
C26   C     C_R   0.503523 0.500490 0.291861 -0.071164
C27   C     C_3   0.455906 0.127321 0.825688 0.017907
C28   C     C_3   0.329979 0.078342 0.798242 -0.265259
C29   C     C_3   0.339894 0.937307 0.761014 -0.473629
C30   C     C_3   0.448227 0.872169 0.175622 0.015897
C31   C     C_3   0.325590 0.928407 0.204007 -0.264040
C32   C     C_3   0.342793 0.069407 0.240448 -0.485467
C33   C     C_3   0.676427 0.178241 0.174464 0.002706
C34   C     C_R   0.624620 0.482581 0.036399 -0.080926
C35   C     C_3   0.800479 0.255414 0.182967 -0.270602
C36   C     C_3   0.899805 0.157019 0.211274 -0.481326
C37   C     C_3   0.693293 0.801527 0.833525 0.006008
C38   C     C_3   0.801097 0.720379 0.866039 -0.264056
C39   C     C_3   0.924699 0.789938 0.849713 -0.483697
C40   C     C_R   0.403290 0.523671 0.034578 -0.072228
C41   C     C_R   0.625890 0.480002 0.964595 -0.095783
C42   C     C_R   0.513255 0.503877 0.071728 0.100281
C43   C     C_R   0.516261 0.501277 0.927712 0.112677
C44   C     C_R   0.262014 0.500002 0.499919 0.551522
Cu1   Cu    Cu3+1 0.500000 0.640660 0.500000 0.926346
Cu2   Cu    Cu3+1 0.500000 0.359340 0.500000 0.924879
H1    H     H_    0.367895 0.130570 0.419406 0.106141
H2    H     H_    0.433327 0.709917 0.284771 0.124402
H3    H     H_    0.566842 0.288538 0.285184 0.127835
H4    H     H_    0.556301 0.718106 0.715544 0.122413
H5    H     H_    0.319651 0.538400 0.934372 0.106326
H6    H     H_    0.710187 0.467913 0.064468 0.106827
H7    H     H_    0.316491 0.538914 0.061264 0.126000
H8    H     H_    0.711918 0.460889 0.937823 0.086323
H9    H     H_    0.485773 0.051455 0.865972 0.181018
H10   H     H_    0.529438 0.123064 0.785629 0.103884
H11   H     H_    0.264711 0.067506 0.842110 0.172309
H12   H     H_    0.631957 0.869431 0.580663 0.098619
H13   H     H_    0.290807 0.157401 0.762232 0.160086
H14   H     H_    0.406489 0.944512 0.717627 0.146996
H15   H     H_    0.248096 0.907257 0.740002 0.143085
H16   H     H_    0.370345 0.854395 0.797521 0.193137
H17   H     H_    0.479859 0.945555 0.134743 0.174327
H18   H     H_    0.522890 0.873205 0.215293 0.106497
H19   H     H_    0.259120 0.941940 0.160729 0.173452
H20   H     H_    0.284678 0.852239 0.240794 0.154971
H21   H     H_    0.410734 0.059413 0.283194 0.134807
H22   H     H_    0.253223 0.104805 0.262221 0.138560
H23   H     H_    0.632026 0.130890 0.580625 0.103626
H24   H     H_    0.375265 0.149811 0.203228 0.192599
H25   H     H_    0.691802 0.088865 0.138494 0.152327
H26   H     H_    0.645115 0.128257 0.223035 0.109821
H27   H     H_    0.830826 0.296286 0.132076 0.159818
H28   H     H_    0.790654 0.345789 0.218914 0.157264
H29   H     H_    0.872424 0.116680 0.262802 0.147199
H30   H     H_    0.988294 0.215210 0.216634 0.147391
H31   H     H_    0.914255 0.066843 0.175644 0.145317
H32   H     H_    0.695720 0.911206 0.853393 0.144978
H33   H     H_    0.705849 0.810066 0.776855 0.107713
H34   H     H_    0.368018 0.869137 0.419317 0.103180
H35   H     H_    0.788925 0.716807 0.922917 0.172402
H36   H     H_    0.802448 0.610917 0.845833 0.149511
H37   H     H_    0.939781 0.792941 0.793067 0.145192
H38   H     H_    0.000733 0.728689 0.873808 0.147847
H39   H     H_    0.927081 0.898905 0.870507 0.146148
H40   H     H_    0.111958 0.272097 0.497781 0.125993
H41   H     H_    0.888045 0.727894 0.501915 0.125569
H42   H     H_    0.888060 0.272090 0.497896 0.125790
H43   H     H_    0.111939 0.727903 0.501775 0.126318
H44   H     H_    0.447373 0.285871 0.715953 0.128933
N1    N     N_R   0.500000 0.852070 0.500000 -0.221573
N2    N     N_R   0.500000 0.147930 0.500000 -0.222959
O1    O     O_R   0.319640 0.618740 0.500000 -0.507088
O2    O     O_3   0.429639 0.739112 0.144262 -0.579262
O3    O     O_3   0.583927 0.264177 0.144253 -0.581790
O4    O     O_3   0.577943 0.743050 0.852849 -0.584930
O5    O     O_R   0.680360 0.381260 0.500000 -0.508014
O6    O     O_R   0.680360 0.618740 0.500000 -0.507465
O7    O     O_R   0.319640 0.381260 0.500000 -0.506815
O8    O     O_R   0.500020 0.618830 0.400190 -0.503264
O9    O     O_R   0.499980 0.381170 0.599810 -0.504139
O10   O     O_R   0.499980 0.618830 0.599810 -0.502875
O11   O     O_R   0.500020 0.381170 0.400190 -0.503726
O12   O     O_3   0.444306 0.260542 0.857816 -0.571490

loop_
_geom_bond_atom_site_label_1
_geom_bond_atom_site_label_2
_ccdc_geom_bond_type
C31   H20   S    
Cu2   O7    S    
C35   H28   S    
C30   H18   S    
C14   C18   A    
C35   C36   S    
C34   C42   A    
Cu1   O1    S    
C15   O2    S    
C4    C25   S    
C9    C25   A    
C31   C32   S    
C28   H11   S    
C15   C19   A    
C20   N2    A    
C28   C29   S    
C39   H38   S    
C36   H31   S    
C30   C31   S    
C44   O7    A    
C27   H9    S    
Cu2   N2    S    
C23   C40   A    
C27   O12   S    
C23   C43   A    
C1    C2    S    
C44   O1    A    
C36   H30   S    
C33   H26   S    
C23   H5    S    
C3    O8    A    
C24   H34   S    
C20   C24   A    
C2    O5    A    
C4    O10   A    
C22   H23   S    
C19   C42   S    
C32   H22   S    
C10   C26   A    
C40   C42   A    
C30   H17   S    
C38   H36   S    
C41   C43   A    
C13   C25   A    
C34   C41   A    
C33   O3    S    
Cu2   O9    S    
C29   H15   S    
C1    C6    A    
C5    C12   A    
C5    C7    A    
C27   H10   S    
C6    C8    A    
C11   C26   A    
Cu1   Cu2   S    
C6    H41   S    
C37   O4    S    
C9    C14   A    
C37   C38   S    
C11   H3    S    
C36   H29   S    
C37   H33   S    
C11   C16   A    
C14   O12   S    
C7    H42   S    
C29   H14   S    
C8    C12   A    
C4    O9    A    
C17   C18   A    
C17   O4    S    
C32   H21   S    
C5    H40   S    
Cu2   O5    S    
C38   H35   S    
C10   H2    S    
C39   H39   S    
C24   N1    A    
C21   N1    A    
C28   H13   S    
C3    O11   A    
C31   H19   S    
C29   H16   S    
C35   H27   S    
C16   O3    S    
C10   C15   A    
C1    C7    A    
C3    C26   S    
Cu1   O8    S    
C9    H44   S    
C32   H24   S    
Cu2   O11   S    
C34   H6    S    
C13   C17   A    
Cu1   O6    S    
C39   H37   S    
C21   H12   S    
C12   C44   S    
C18   C43   S    
C38   C39   S    
C16   C19   A    
C33   C35   S    
Cu1   N1    S    
C41   H8    S    
C20   H1    S    
Cu1   O10   S    
C33   H25   S    
C13   H4    S    
C2    O6    A    
C30   O2    S    
C40   H7    S    
C27   C28   S    
C22   N2    A    
C8    H43   S    
C21   C22   A    
C37   H32   S    
