data_mof_unit_31589.cif
_audit_creation_date              2012-12-10T21:13:54-0500
_audit_creation_method            fapswitch 2.2
_symmetry_space_group_name_H-M    P1
_symmetry_Int_Tables_number       1
_space_group_crystal_system       triclinic
_cell_length_a                    15.490405
_cell_length_b                    16.837603
_cell_length_c                    17.28706
_cell_angle_alpha                 89.21286
_cell_angle_beta                  91.758535
_cell_angle_gamma                 67.50625
_cell_volume                      4162.2600292

loop_
_atom_site_label
_atom_site_type_symbol
_atom_type_description
_atom_site_fract_x
_atom_site_fract_y
_atom_site_fract_z
_atom_type_partial_charge
C1    C     C_R   0.497282 0.500392 0.647711 0.920191
C2    C     C_R   0.497013 0.501736 0.352125 0.917511
C3    C     C_R   0.108717 0.396283 0.510131 0.443616
C4    C     C_R   0.897085 0.598704 0.524542 0.439403
C5    C     C_R   0.070430 0.336660 0.485805 0.073244
C6    C     C_R   0.936569 0.657374 0.549218 0.069823
C7    C     C_R   0.432620 0.450763 0.152516 0.172136
C8    C     C_R   0.435775 0.598902 0.842702 0.174432
C9    C     C_R   0.463273 0.442223 0.230002 -0.301404
C10   C     C_R   0.465987 0.584462 0.767151 -0.293204
C11   C     C_R   0.476415 0.510114 0.268012 -0.267506
C12   C     C_R   0.475806 0.507783 0.730297 -0.261388
C13   C     C_R   0.460482 0.587692 0.226570 0.368580
C14   C     C_R   0.454928 0.444221 0.770634 0.359971
C15   C     C_R   0.423903 0.598694 0.150080 0.326643
C16   C     C_R   0.415763 0.462063 0.843552 0.332732
C17   C     C_R   0.413493 0.529522 0.112724 -0.054449
C18   C     C_R   0.411013 0.536760 0.880837 -0.064266
C19   C     C_1   0.399281 0.536450 0.030886 0.053464
C20   C     C_1   0.398455 0.539531 0.961981 0.039851
C21   C     C_R   0.562355 0.145819 0.554948 0.276578
C22   C     C_R   0.440467 0.853009 0.442653 0.285759
C23   C     C_R   0.676360 0.446463 0.499797 0.879058
C24   C     C_R   0.323789 0.553473 0.501068 0.879524
C25   C     C_R   0.560158 0.231736 0.550978 0.462138
C26   C     C_R   0.443038 0.767092 0.446436 0.458050
C27   C     C_R   0.444394 0.268697 0.448862 0.280217
C28   C     C_R   0.551162 0.732826 0.554117 0.274163
C29   C     C_R   0.447916 0.183922 0.449362 -0.351514
C30   C     C_R   0.546426 0.818006 0.554132 -0.356202
C31   C     C_R   0.505280 0.121796 0.502240 -0.064461
C32   C     C_R   0.493260 0.878617 0.498226 -0.070541
C33   C     C_1   0.501153 0.035856 0.501411 -0.006997
C34   C     C_1   0.497214 0.964617 0.499102 -0.008979
C35   C     C_R   0.777936 0.412391 0.497629 -0.144956
C36   C     C_R   0.223367 0.586906 0.510633 -0.140117
C37   C     C_R   0.926016 0.306468 0.458092 0.517465
C38   C     C_R   0.080783 0.691163 0.561457 0.521741
C39   C     C_R   0.828048 0.335683 0.461930 -0.333782
C40   C     C_R   0.177061 0.663761 0.547536 -0.345337
C41   C     C_R   0.823503 0.463128 0.525123 -0.178366
C42   C     C_R   0.176903 0.533888 0.492352 -0.170250
C43   C     C_R   0.916017 0.445750 0.507807 -0.005961
C44   C     C_R   0.088247 0.549952 0.518997 -0.008687
C45   C     C_R   0.971693 0.362126 0.482116 -0.030951
C46   C     C_R   0.034653 0.633531 0.545594 -0.031245
C47   C     C_R   0.953869 0.509755 0.517302 -0.131255
C48   C     C_R   0.050993 0.485199 0.515173 -0.133718
H1    H     H_    0.403425 0.166847 0.408735 0.180823
H2    H     H_    0.587222 0.836413 0.597244 0.181675
H3    H     H_    0.211862 0.478442 0.457896 0.200076
H4    H     H_    0.784837 0.517729 0.559180 0.200205
H5    H     H_    0.216564 0.701204 0.566436 0.144973
H6    H     H_    0.790571 0.299667 0.435908 0.146376
H7    H     H_    0.476677 0.381915 0.260674 0.198346
H8    H     H_    0.481978 0.633796 0.737205 0.195434
N1    N     N_R   0.499980 0.292780 0.499970 -0.147027
N2    N     N_R   0.500020 0.707220 0.500030 -0.155418
O1    O     O_R   0.500000 0.433430 0.610870 -0.520683
O2    O     O_R   0.500000 0.566570 0.389130 -0.519590
O3    O     O_R   0.500010 0.566520 0.610900 -0.643422
O4    O     O_R   0.499990 0.433480 0.389100 -0.643911
O5    O     O_R   0.632240 0.395450 0.499980 -0.599881
O6    O     O_R   0.367760 0.604550 0.500020 -0.605745
O7    O     O_R   0.632250 0.528530 0.500000 -0.614472
O8    O     O_R   0.367750 0.471470 0.500000 -0.614210
Zn1   Zn    Zn3+2 0.500000 0.411140 0.499980 0.972149
Zn2   Zn    Zn3+2 0.500000 0.588860 0.500020 0.969783
C49   C     C_3   0.136540 0.245584 0.470043 -0.796919
H9    H     H_    0.211297 0.234408 0.480642 0.251165
H10   H     H_    0.121549 0.199388 0.508366 0.235268
H11   H     H_    0.129534 0.231241 0.408273 0.265471
C50   C     C_3   0.871181 0.746730 0.570481 -0.789483
H12   H     H_    0.796512 0.755210 0.568060 0.244756
H13   H     H_    0.886772 0.759218 0.631112 0.261711
H14   H     H_    0.878219 0.795464 0.530006 0.242856
O9    O     O_3   0.608269 0.093382 0.618330 -0.601680
C51   C     C_3   0.680346 0.016849 0.595666 0.110521
H15   H     H_    0.717750 0.027026 0.544720 0.100789
H16   H     H_    0.652148 0.967056 0.582433 0.164162
C52   C     C_3   0.750402 0.981360 0.663471 -0.861466
H17   H     H_    0.714143 0.972297 0.715288 0.265031
H18   H     H_    0.803976 0.918200 0.648823 0.224564
H19   H     H_    0.785391 0.026214 0.677340 0.250332
O10   O     O_3   0.396996 0.904611 0.378140 -0.589693
C53   C     C_3   0.322593 0.980465 0.399134 0.109476
H20   H     H_    0.348900 0.031196 0.413796 0.161974
H21   H     H_    0.283637 0.969659 0.448742 0.098014
C54   C     C_3   0.254750 0.014852 0.329731 -0.844686
H22   H     H_    0.221406 0.969080 0.314509 0.248273
H23   H     H_    0.199595 0.077642 0.343399 0.219115
H24   H     H_    0.292501 0.024446 0.279105 0.265597
O11   O     O_3   0.613684 0.256530 0.603248 -0.563675
C55   C     C_3   0.708487 0.220389 0.583445 0.128432
H25   H     H_    0.717126 0.235872 0.522176 0.119184
H26   H     H_    0.737953 0.149694 0.591645 0.148942
C56   C     C_3   0.765495 0.255349 0.636055 -0.849276
H27   H     H_    0.767285 0.231133 0.696385 0.233850
H28   H     H_    0.838273 0.233772 0.616399 0.198695
H29   H     H_    0.734231 0.326684 0.635134 0.257314
O12   O     O_3   0.391608 0.741742 0.392583 -0.514638
C57   C     C_3   0.296418 0.775930 0.411528 0.157116
H30   H     H_    0.264816 0.846215 0.400250 0.137079
H31   H     H_    0.287314 0.763225 0.473460 0.101846
C58   C     C_3   0.242410 0.735765 0.361239 -0.804142
H32   H     H_    0.277438 0.664617 0.363450 0.255761
H33   H     H_    0.170292 0.754439 0.381903 0.187498
H34   H     H_    0.238219 0.758840 0.300343 0.227355
C59   C     C_3   0.376675 0.328896 0.389762 -0.805302
H35   H     H_    0.305291 0.331155 0.399621 0.240245
H36   H     H_    0.372562 0.395029 0.389966 0.270425
H37   H     H_    0.396294 0.304187 0.330958 0.195678
C60   C     C_3   0.614436 0.673833 0.616247 -0.788261
H38   H     H_    0.683978 0.678575 0.616048 0.235679
H39   H     H_    0.584429 0.694008 0.673606 0.195357
H40   H     H_    0.627386 0.605862 0.609823 0.268680
O13   O     O_3   0.974837 0.230615 0.420861 -0.616731
C61   C     C_3   0.956370 0.160874 0.452243 0.094763
H41   H     H_    0.887614 0.162762 0.429813 0.138027
H42   H     H_    0.957898 0.160579 0.516775 0.124272
C62   C     C_3   0.030638 0.076966 0.426968 -0.876207
H43   H     H_    0.099760 0.068514 0.453729 0.244278
H44   H     H_    0.012609 0.021962 0.445230 0.208332
H45   H     H_    0.034705 0.077244 0.362944 0.269913
O14   O     O_3   0.034066 0.768084 0.598321 -0.620063
C63   C     C_3   0.058782 0.835937 0.571035 0.093675
H46   H     H_    0.067112 0.834574 0.507135 0.124838
H47   H     H_    0.124428 0.832817 0.601237 0.144581
C64   C     C_3   0.982419 0.921487 0.589832 -0.879556
H48   H     H_    0.968164 0.922914 0.652471 0.271230
H49   H     H_    0.005097 0.974894 0.575888 0.208525
H50   H     H_    0.917454 0.931005 0.555267 0.244732
O15   O     O_3   0.203068 0.366309 0.530864 -0.627117
C65   C     C_3   0.213639 0.354520 0.612097 0.066262
H51   H     H_    0.179512 0.311191 0.633150 0.137120
H52   H     H_    0.183537 0.417372 0.641125 0.148878
C66   C     C_3   0.317142 0.313230 0.634667 -0.740541
H53   H     H_    0.349131 0.250161 0.606704 0.240714
H54   H     H_    0.353011 0.355689 0.616027 0.299994
H55   H     H_    0.326344 0.302894 0.698427 0.217641
O16   O     O_3   0.804152 0.631372 0.499411 -0.628842
C67   C     C_3   0.799772 0.649128 0.418976 0.113648
H56   H     H_    0.820169 0.588295 0.386714 0.150437
H57   H     H_    0.845799 0.683589 0.402828 0.130306
C68   C     C_3   0.700435 0.706666 0.394215 -0.826404
H58   H     H_    0.677749 0.766892 0.427181 0.261649
H59   H     H_    0.697814 0.723377 0.331734 0.197218
H60   H     H_    0.652656 0.672869 0.404581 0.274228
C69   C     C_3   0.422221 0.374384 0.114921 -0.875708
H61   H     H_    0.394127 0.388195 0.054330 0.266214
H62   H     H_    0.491363 0.320127 0.115065 0.242225
H63   H     H_    0.373490 0.354182 0.148161 0.229912
C70   C     C_3   0.431909 0.680582 0.880061 -0.871911
H64   H     H_    0.405461 0.687145 0.939399 0.270579
H65   H     H_    0.503031 0.681943 0.883230 0.240177
H66   H     H_    0.384863 0.736958 0.844704 0.230563
O17   O     O_3   0.474647 0.655138 0.261786 -0.545532
C71   C     C_3   0.555671 0.663460 0.233650 0.146073
H67   H     H_    0.574737 0.637473 0.174765 0.136137
H68   H     H_    0.615868 0.628604 0.274094 0.128655
C72   C     C_3   0.540175 0.758284 0.229956 -0.747800
H69   H     H_    0.526269 0.785708 0.288400 0.284546
H70   H     H_    0.603178 0.766100 0.208070 0.178873
H71   H     H_    0.479499 0.793996 0.190279 0.267965
O18   O     O_3   0.466890 0.366637 0.737539 -0.596298
C73   C     C_3   0.543744 0.300019 0.775066 0.175337
H72   H     H_    0.556147 0.311360 0.837118 0.128674
H73   H     H_    0.608328 0.292370 0.744773 0.180930
C74   C     C_3   0.527448 0.216618 0.772068 -0.721947
H74   H     H_    0.507640 0.205834 0.712208 0.291674
H75   H     H_    0.592016 0.161767 0.791780 0.209351
H76   H     H_    0.469876 0.220165 0.810306 0.232558
O19   O     O_3   0.407209 0.674629 0.108874 -0.611375
C75   C     C_3   0.319434 0.735819 0.128546 0.117507
H77   H     H_    0.322594 0.756735 0.188879 0.195190
H78   H     H_    0.263402 0.709760 0.122224 0.121853
C76   C     C_3   0.293517 0.814535 0.074963 -0.845937
H79   H     H_    0.285690 0.796871 0.014273 0.252104
H80   H     H_    0.226215 0.864360 0.091940 0.208653
H81   H     H_    0.348632 0.841497 0.078843 0.260375
O20   O     O_3   0.390387 0.401753 0.881310 -0.607837
C77   C     C_3   0.295402 0.419913 0.862136 0.121867
H82   H     H_    0.282864 0.420208 0.798254 0.150473
H83   H     H_    0.250107 0.483315 0.884861 0.132485
C78   C     C_3   0.267642 0.350901 0.898591 -0.845033
H84   H     H_    0.277959 0.349634 0.962523 0.256414
H85   H     H_    0.192872 0.364742 0.884033 0.203326
H86   H     H_    0.310898 0.286954 0.876221 0.253656

loop_
_geom_bond_atom_site_label_1
_geom_bond_atom_site_label_2
_ccdc_geom_bond_type
O9    C51   S    
C25   O11   S    
O18   C73   S    
C52   H19   S    
C27   C29   A    
C74   H75   S    
C74   H74   S    
C36   C42   A    
C19   C20   T    
O3    Zn2   S    
C38   O14   S    
C65   C66   S    
C72   H69   S    
C29   H1    S    
O10   C53   S    
C58   H33   S    
C63   H46   S    
C22   C32   A    
O4    Zn1   S    
O6    Zn2   S    
C38   C40   A    
C60   H38   S    
C1    O1    A    
C26   O12   S    
C68   H58   S    
C75   H77   S    
C53   H21   S    
C78   H85   S    
C39   H6    S    
O20   C77   S    
C3    C48   A    
C57   C58   S    
C15   C17   A    
C50   H12   S    
C22   O10   S    
C49   H10   S    
C61   H41   S    
C62   H45   S    
C5    C49   S    
C71   C72   S    
C68   H59   S    
C7    C69   S    
O16   C67   S    
C71   H68   S    
O17   C71   S    
C76   H80   S    
C31   C33   S    
C72   H70   S    
C9    H7    S    
C54   H23   S    
C10   H8    S    
C41   C43   A    
C41   H4    S    
C18   C20   S    
C24   O8    A    
C42   H3    S    
C55   H26   S    
C60   H40   S    
O1    Zn1   S    
C76   H81   S    
C23   O5    A    
O8    Zn1   S    
C30   H2    S    
C24   O6    A    
C69   H62   S    
C73   H73   S    
C50   H13   S    
C67   C68   S    
C55   H25   S    
C1    C12   S    
C42   C44   A    
N1    Zn1   S    
C2    C11   S    
C13   O17   S    
C52   H18   S    
C44   C46   A    
C56   H27   S    
C61   H42   S    
C66   H55   S    
O5    Zn1   S    
C62   H44   S    
C15   O19   S    
C57   H30   S    
C25   N1    A    
O12   C57   S    
C36   C40   A    
C4    C6    A    
C56   H28   S    
C69   H63   S    
C4    O16   S    
C51   H15   S    
C78   H86   S    
C65   H52   S    
C55   C56   S    
C7    C17   A    
O19   C75   S    
C5    C45   A    
C52   H17   S    
C3    O15   S    
C77   C78   S    
C32   C34   S    
C71   H67   S    
C49   H11   S    
C35   C39   A    
O15   C65   S    
C26   N2    A    
C47   C48   A    
C29   C31   A    
O7    Zn2   S    
C21   C31   A    
C8    C18   A    
C33   C34   T    
C51   H16   S    
O11   C55   S    
C24   C36   S    
C58   H34   S    
C54   H24   S    
C57   H31   S    
C8    C70   S    
C9    C11   A    
C75   C76   S    
O2    Zn2   S    
C62   H43   S    
C10   C12   A    
N2    Zn2   S    
C12   C14   A    
C40   H5    S    
C23   C35   S    
C13   C15   A    
C27   N1    A    
C73   H72   S    
C50   H14   S    
C14   C16   A    
C59   H37   S    
C70   H65   S    
C37   C45   A    
C72   H71   S    
C68   H60   S    
C53   H20   S    
C6    C50   S    
C64   H48   S    
C66   H53   S    
C7    C9    A    
C21   C25   A    
C63   H47   S    
C56   H29   S    
C6    C46   A    
C77   H83   S    
C66   H54   S    
C16   C18   A    
C3    C5    A    
C53   C54   S    
C1    O3    A    
C65   H51   S    
C28   N2    A    
C58   H32   S    
C63   C64   S    
C64   H50   S    
C28   C30   A    
C54   H22   S    
C37   C39   A    
C44   C48   A    
C69   H61   S    
C30   C32   A    
C11   C13   A    
C51   C52   S    
C23   O7    A    
C78   H84   S    
O14   C63   S    
C59   H36   S    
C70   H66   S    
C17   C19   S    
C2    O2    A    
C49   H9    S    
C35   C41   A    
C75   H78   S    
C38   C46   A    
C28   C60   S    
C14   O18   S    
C16   O20   S    
C2    O4    A    
C37   O13   S    
C27   C59   S    
C73   C74   S    
C8    C10   A    
C76   H79   S    
C22   C26   A    
C21   O9    S    
C59   H35   S    
C67   H56   S    
C74   H76   S    
C60   H39   S    
C70   H64   S    
O13   C61   S    
C43   C47   A    
C43   C45   A    
C61   C62   S    
C67   H57   S    
C77   H82   S    
C64   H49   S    
C4    C47   A    
