data_mof_unit_5136.cif
_audit_creation_date              2012-12-10T17:49:36-0500
_audit_creation_method            fapswitch 2.2
_symmetry_space_group_name_H-M    P1
_symmetry_Int_Tables_number       1
_space_group_crystal_system       triclinic
_cell_length_a                    14.689654
_cell_length_b                    14.717865
_cell_length_c                    15.874911
_cell_angle_alpha                 76.991395
_cell_angle_beta                  102.633411
_cell_angle_gamma                 114.804815
_cell_volume                      3005.44488392

loop_
_atom_site_label
_atom_site_type_symbol
_atom_type_description
_atom_site_fract_x
_atom_site_fract_y
_atom_site_fract_z
_atom_type_partial_charge
C1    C     C_R   0.880304 0.312319 0.515155 0.794941
C2    C     C_3   0.041425 0.423467 0.072545 -0.382521
C3    C     C_3   0.003136 0.503315 0.082806 0.301094
C4    C     C_3   0.074036 0.609266 0.042693 -0.378514
C5    C     C_3   0.074608 0.611338 0.944009 -0.025035
C6    C     C_1   0.002390 0.501641 0.175173 -0.106823
C7    C     C_1   0.000643 0.502487 0.824447 -0.123739
C8    C     C_1   0.999382 0.501095 0.748956 -0.185286
C9    C     C_R   0.812768 0.204764 0.526973 -0.050920
C10   C     C_R   0.187348 0.794758 0.485138 -0.051770
C11   C     C_R   0.784507 0.027187 0.555852 -0.202207
C12   C     C_R   0.999554 0.499970 0.659618 0.832598
C13   C     C_R   0.850759 0.128509 0.546681 -0.199231
C14   C     C_R   0.708390 0.178704 0.518654 -0.256477
C15   C     C_R   0.640183 0.077181 0.530291 0.088731
C16   C     C_R   0.679712 0.001009 0.546653 0.163963
C17   C     C_R   0.533833 0.049527 0.523130 0.064406
C18   C     C_R   0.467699 0.946042 0.522637 0.062882
C19   C     C_R   0.510393 0.872261 0.540368 -0.223806
C20   C     C_R   0.614397 0.899525 0.553018 -0.229737
C21   C     C_R   0.491597 0.121583 0.517975 -0.222855
C22   C     C_R   0.387630 0.094215 0.506835 -0.230926
C23   C     C_R   0.119687 0.687650 0.486354 0.791298
C24   C     C_R   0.321855 0.994633 0.499486 0.163937
C25   C     C_R   0.361049 0.919690 0.506335 0.088728
C26   C     C_R   0.216863 0.969012 0.485903 -0.202812
C27   C     C_R   0.149913 0.869394 0.479593 -0.200191
C28   C     C_R   0.291867 0.820951 0.495574 -0.251766
C29   C     C_R   0.721400 0.676473 0.363640 -0.324587
C30   C     C_R   0.800431 0.643327 0.382844 0.077889
C31   C     C_R   0.714155 0.509126 0.487728 0.002088
C32   C     C_R   0.635635 0.544664 0.477484 -0.016704
C33   C     C_R   0.638498 0.626973 0.410098 0.163496
C34   C     C_R   0.000414 0.500012 0.340350 0.830508
C35   C     C_R   0.552691 0.499356 0.528046 0.051234
C36   C     C_R   0.465969 0.526019 0.498347 0.036876
C37   C     C_R   0.472434 0.607409 0.429622 -0.226095
C38   C     C_R   0.558153 0.658484 0.388427 -0.200436
C39   C     C_R   0.552924 0.431288 0.608087 0.144753
C40   C     C_R   0.462957 0.375468 0.644025 -0.208996
C41   C     C_R   0.375611 0.394329 0.610694 0.117062
C42   C     C_R   0.376492 0.472223 0.539722 -0.025706
C43   C     C_R   0.288677 0.339333 0.651567 -0.313752
C44   C     C_R   0.203734 0.363182 0.623434 0.080006
C45   C     C_3   0.036989 0.420812 0.974681 -0.369302
C46   C     C_R   0.286867 0.492355 0.513802 0.019405
C47   C     C_3   0.895198 0.480573 0.934050 -0.426426
C48   C     C_3   0.894881 0.479099 0.031878 -0.386058
C49   C     C_1   0.001651 0.500632 0.250795 -0.182782
C50   C     C_3   0.003728 0.504536 0.916873 0.307299
Cu1   Cu    Cu3+1 0.081750 0.475690 0.522550 0.933721
Cu2   Cu    Cu3+1 0.918250 0.524310 0.477450 0.933039
H1    H     H_    0.994000 0.347183 0.104042 0.165123
H2    H     H_    0.110656 0.428030 0.960766 0.164556
H3    H     H_    0.120469 0.441406 0.106106 0.157651
H4    H     H_    0.047214 0.667462 0.049184 0.139743
H5    H     H_    0.643820 0.840568 0.566524 0.150026
H6    H     H_    0.317340 0.762698 0.494179 0.145742
H7    H     H_    0.069210 0.850638 0.471544 0.153228
H8    H     H_    0.358534 0.151769 0.503427 0.147749
H9    H     H_    0.815137 0.969181 0.569396 0.132480
H10   H     H_    0.931341 0.147060 0.553709 0.152031
H11   H     H_    0.681745 0.239203 0.500347 0.150179
H12   H     H_    0.981504 0.345333 0.958645 0.161081
H13   H     H_    0.465728 0.792040 0.547535 0.147915
H14   H     H_    0.536882 0.199692 0.525096 0.143357
H15   H     H_    0.186569 0.025886 0.481301 0.132919
H16   H     H_    0.560092 0.721474 0.336910 0.139674
H17   H     H_    0.280287 0.549964 0.460431 0.119321
H18   H     H_    0.137315 0.322084 0.656020 0.122829
H19   H     H_    0.462985 0.320695 0.702656 0.147762
H20   H     H_    0.725390 0.740867 0.313221 0.135630
H21   H     H_    0.866037 0.683389 0.349115 0.125099
H22   H     H_    0.711640 0.439982 0.529540 0.146033
H23   H     H_    0.866846 0.538191 0.893575 0.163446
H24   H     H_    0.412936 0.635259 0.406838 0.129492
H25   H     H_    0.287131 0.279592 0.706215 0.133865
H26   H     H_    0.841827 0.405847 0.914844 0.175227
H27   H     H_    0.842570 0.403244 0.059746 0.171059
H28   H     H_    0.865786 0.535556 0.038329 0.165209
H29   H     H_    0.037106 0.663391 0.907132 0.117041
H30   H     H_    0.150508 0.628793 0.081200 0.160568
N1    N     N_R   0.795410 0.560790 0.443550 -0.178537
N2    N     N_R   0.204590 0.439170 0.556520 -0.177707
O1    O     O_R   0.977910 0.338120 0.529720 -0.590515
O2    O     O_R   0.839850 0.379180 0.491640 -0.591571
O3    O     O_R   0.069060 0.479460 0.639610 -0.578095
O4    O     O_R   0.931000 0.520530 0.601530 -0.576508
O5    O     O_R   0.160150 0.620820 0.508360 -0.589503
O6    O     O_R   0.022090 0.661880 0.470280 -0.591492
O7    O     O_R   0.069000 0.479470 0.398470 -0.578714
O8    O     O_R   0.930940 0.520540 0.360390 -0.575552
C51   C     C_3   0.647944 0.427459 0.666508 -0.903604
H31   H     H_    0.660055 0.360001 0.659792 0.226420
H32   H     H_    0.715215 0.498152 0.653718 0.242445
H33   H     H_    0.640819 0.421287 0.736065 0.232739
C52   C     C_3   0.182316 0.660623 0.914961 -0.391691
C53   C     C_3   0.267650 0.634944 0.977343 -0.334476
C54   C     C_3   0.355781 0.656355 0.929534 -0.853981
H34   H     H_    0.330668 0.606797 0.878485 0.256823
H35   H     H_    0.385786 0.736890 0.898642 0.255853
H36   H     H_    0.417528 0.640908 0.976629 0.239860
H37   H     H_    0.297430 0.682630 0.030185 0.204927
H38   H     H_    0.240780 0.554979 0.008289 0.220982
H39   H     H_    0.177207 0.643126 0.849228 0.212806
H40   H     H_    0.206776 0.744289 0.906188 0.178558

loop_
_geom_bond_atom_site_label_1
_geom_bond_atom_site_label_2
_ccdc_geom_bond_type
C10   C27   A    
C51   H31   S    
C40   H19   S    
C21   H14   S    
C41   C42   A    
C36   C42   A    
C19   C20   A    
C9    C14   A    
C3    C6    S    
Cu1   O1    S    
C52   C53   S    
C7    C8    T    
C25   C28   A    
C26   C27   A    
C37   C38   A    
C26   H15   S    
C48   H27   S    
C36   C37   A    
C24   C26   A    
C2    H3    S    
C22   H8    S    
C53   H37   S    
C29   C33   A    
C3    C48   S    
C31   N1    A    
C18   C19   A    
C42   C46   A    
C30   N1    A    
C9    C13   A    
C34   O7    A    
C39   C51   S    
C46   H17   S    
Cu1   O7    S    
Cu2   O6    S    
C13   H10   S    
C54   H34   S    
C23   O5    A    
C44   H18   S    
C16   C20   A    
C29   H20   S    
C52   H39   S    
C51   H32   S    
C21   C22   A    
C4    H4    S    
C41   C43   A    
C18   C25   A    
C47   C50   S    
C2    C45   S    
C1    O1    A    
C12   O4    A    
Cu1   Cu2   S    
C32   C35   A    
Cu2   O4    S    
C1    C9    S    
C24   C25   A    
Cu1   O3    S    
C39   C40   A    
C30   H21   S    
C31   H22   S    
C11   H9    S    
C17   C21   A    
C35   C36   A    
Cu2   N1    S    
C35   C39   A    
C43   C44   A    
C29   C30   A    
C5    H29   S    
C11   C16   A    
C47   C48   S    
C8    C12   S    
C17   C18   A    
C23   O6    A    
C46   N2    A    
C52   H40   S    
C40   C41   A    
C54   H35   S    
C37   H24   S    
C38   H16   S    
C45   H2    S    
C51   H33   S    
C22   C24   A    
C5    C50   S    
Cu2   O8    S    
C3    C4    S    
C10   C28   A    
C1    O2    A    
C15   C17   A    
C34   C49   S    
C12   O3    A    
C31   C32   A    
C7    C50   S    
C5    C52   S    
C4    C5    S    
C44   N2    A    
C2    H1    S    
C28   H6    S    
C10   C23   S    
C43   H25   S    
C45   H12   S    
C33   C38   A    
C32   C33   A    
C48   H28   S    
Cu2   O2    S    
C2    C3    S    
C47   H23   S    
C27   H7    S    
Cu1   O5    S    
C11   C13   A    
C45   C50   S    
C53   H38   S    
C14   H11   S    
C19   H13   S    
C6    C49   T    
C34   O8    A    
C54   H36   S    
C4    H30   S    
C53   C54   S    
C14   C15   A    
C47   H26   S    
C20   H5    S    
Cu1   N2    S    
C15   C16   A    
