data_mof_unit_31300.cif
_audit_creation_date              2012-12-10T16:52:40-0500
_audit_creation_method            fapswitch 2.2
_symmetry_space_group_name_H-M    P1
_symmetry_Int_Tables_number       1
_space_group_crystal_system       triclinic
_cell_length_a                    8.180859
_cell_length_b                    8.640577
_cell_length_c                    13.867375
_cell_angle_alpha                 103.008673
_cell_angle_beta                  93.252646
_cell_angle_gamma                 91.744212
_cell_volume                      952.611029653

loop_
_atom_site_label
_atom_site_type_symbol
_atom_type_description
_atom_site_fract_x
_atom_site_fract_y
_atom_site_fract_z
_atom_type_partial_charge
C1    C     C_R   0.041916 0.792959 0.498387 0.923612
C2    C     C_R   0.936632 0.483830 0.317367 0.826299
C3    C     C_R   0.101512 0.540120 0.790850 -0.168910
C4    C     C_R   0.898488 0.459881 0.209150 -0.168910
C5    C     C_R   0.061078 0.657790 0.963630 -0.209073
C6    C     C_R   0.938923 0.342213 0.036370 -0.209073
C7    C     C_R   0.008653 0.632694 0.863520 0.422795
C8    C     C_R   0.991347 0.367308 0.136480 0.422794
C9    C     C_R   0.250007 0.482539 0.820976 -0.314779
C10   C     C_R   0.749993 0.517462 0.179024 -0.314778
C11   C     C_R   0.314021 0.524094 0.919816 0.089493
C12   C     C_R   0.958083 0.207041 0.501613 0.923612
C13   C     C_R   0.685979 0.475908 0.080184 0.089493
C14   C     C_R   0.212329 0.604250 0.992203 0.071956
C15   C     C_R   0.787671 0.395752 0.007797 0.071956
C16   C     C_R   0.475090 0.486288 0.948737 0.085486
C17   C     C_R   0.524910 0.513714 0.051263 0.085486
C18   C     C_R   0.460038 0.302238 0.401653 0.241537
C19   C     C_R   0.318956 0.210959 0.354884 -0.091082
C20   C     C_R   0.318022 0.051893 0.303292 -0.196699
C21   C     C_R   0.463970 0.978329 0.286632 -0.058822
C22   C     C_R   0.607590 0.068290 0.314446 -0.214401
C23   C     C_R   0.410746 0.574410 0.121428 -0.175112
C24   C     C_R   0.603527 0.227242 0.365858 -0.121991
C25   C     C_R   0.539962 0.697762 0.598347 0.241537
C26   C     C_R   0.681044 0.789041 0.645115 -0.091083
C27   C     C_R   0.681978 0.948108 0.696708 -0.196698
C28   C     C_R   0.536029 0.021672 0.713368 -0.058822
C29   C     C_R   0.392410 0.931711 0.685554 -0.214400
C30   C     C_R   0.396473 0.772758 0.634142 -0.121991
C31   C     C_R   0.589254 0.425592 0.878572 -0.175112
C32   C     C_R   0.261019 0.626863 0.092391 -0.167319
C33   C     C_R   0.738981 0.373139 0.907609 -0.167320
C34   C     C_2   0.064530 0.955595 0.498155 -0.393120
C35   C     C_2   0.935470 0.044405 0.501845 -0.393121
C36   C     C_R   0.063368 0.516170 0.682633 0.826299
H1    H     H_    0.180468 0.680620 0.148811 0.139983
H2    H     H_    0.811278 0.997854 0.504852 0.206662
H3    H     H_    0.090599 0.223627 0.202708 0.304565
H4    H     H_    0.909402 0.776374 0.797291 0.304563
H5    H     H_    0.204625 0.258290 0.352498 0.198983
H6    H     H_    0.203528 0.987708 0.274008 0.126932
H7    H     H_    0.466297 0.856658 0.246456 0.132132
H8    H     H_    0.723038 0.016794 0.293096 0.130930
H9    H     H_    0.716416 0.279614 0.366490 0.198347
H10   H     H_    0.795375 0.741709 0.647502 0.198983
H11   H     H_    0.796472 0.012292 0.725991 0.126932
H12   H     H_    0.819533 0.319383 0.851189 0.139983
H13   H     H_    0.533703 0.143344 0.753543 0.132131
H14   H     H_    0.276962 0.983207 0.706904 0.130930
H15   H     H_    0.283584 0.720386 0.633510 0.198346
H16   H     H_    0.685097 0.595236 0.234564 0.176372
H17   H     H_    0.314903 0.404765 0.765436 0.176372
H18   H     H_    0.985576 0.723986 0.019014 0.163958
H19   H     H_    0.014425 0.276017 0.980986 0.163958
H20   H     H_    0.433422 0.582035 0.199728 0.151881
H21   H     H_    0.566578 0.417967 0.800273 0.151881
H22   H     H_    0.188722 0.002146 0.495148 0.206662
N1    N     N_2   0.440860 0.456490 0.474790 -0.113662
N2    N     N_2   0.559140 0.543510 0.525210 -0.113662
O1    O     O_R   0.891570 0.738930 0.506190 -0.637035
O2    O     O_3   0.871203 0.705706 0.839215 -0.754123
O3    O     O_R   0.108430 0.261070 0.493810 -0.637035
O4    O     O_R   0.174650 0.711050 0.490030 -0.632878
O5    O     O_R   0.825350 0.288950 0.509970 -0.632878
O6    O     O_R   0.909850 0.521900 0.644940 -0.613232
O7    O     O_R   0.090150 0.478100 0.355060 -0.613232
O8    O     O_R   0.192930 0.494020 0.628780 -0.637762
O9    O     O_R   0.807070 0.505980 0.371220 -0.637762
O10   O     O_3   0.128797 0.294296 0.160785 -0.754124
Zn1   Zn    Zn3+2 0.810990 0.518620 0.510790 0.908082
Zn2   Zn    Zn3+2 0.189010 0.481380 0.489210 0.908082

loop_
_geom_bond_atom_site_label_1
_geom_bond_atom_site_label_2
_ccdc_geom_bond_type
C20   H6    S    
C30   H15   S    
C31   C33   A    
C7    O2    S    
C29   C30   A    
C3    C9    A    
C25   N2    S    
O7    Zn2   S    
C2    O9    A    
C5    C7    A    
C28   H13   S    
N1    Zn2   S    
C36   O6    A    
C2    C4    S    
C19   C20   A    
C13   C17   A    
C6    H19   S    
O8    Zn2   S    
C10   H16   S    
C23   C32   A    
O1    Zn1   S    
C13   C15   A    
C26   C27   A    
C18   N1    S    
N1    N2    D    
C21   H7    S    
C21   C22   A    
O3    Zn2   S    
C12   C35   S    
C33   H12   S    
C9    C11   A    
C31   H21   S    
C5    C14   A    
C17   C23   A    
C3    C36   S    
C18   C24   A    
C24   H9    S    
C6    C8    A    
C27   C28   A    
C28   C29   A    
H3    O10   S    
C1    C34   S    
C2    O7    A    
C3    C7    A    
C29   H14   S    
O4    Zn2   S    
C11   C14   A    
C22   C24   A    
C6    C15   A    
C9    H17   S    
C26   H10   S    
C4    C10   A    
C1    O4    A    
C19   H5    S    
C5    H18   S    
C23   H20   S    
C35   H2    S    
H4    O2    S    
C20   C21   A    
C34   H22   S    
C34   C35   D    
C11   C16   A    
C18   C19   A    
C27   H11   S    
C4    C8    A    
O9    Zn1   S    
C12   O3    A    
C25   C30   A    
C12   O5    A    
C32   H1    S    
N2    Zn1   S    
C25   C26   A    
O5    Zn1   S    
C8    O10   S    
C36   O8    A    
C15   C33   A    
C22   H8    S    
O6    Zn1   S    
C14   C32   A    
C16   C17   A    
C16   C31   A    
C10   C13   A    
C1    O1    A    
