data_mof_unit_54809.cif
_audit_creation_date              2012-12-10T16:57:49-0500
_audit_creation_method            fapswitch 2.2
_symmetry_space_group_name_H-M    P1
_symmetry_Int_Tables_number       1
_space_group_crystal_system       triclinic
_cell_length_a                    7.81878
_cell_length_b                    8.541321
_cell_length_c                    19.1007
_cell_angle_alpha                 91.870583
_cell_angle_beta                  84.317615
_cell_angle_gamma                 93.93366
_cell_volume                      1265.90858475

loop_
_atom_site_label
_atom_site_type_symbol
_atom_type_description
_atom_site_fract_x
_atom_site_fract_y
_atom_site_fract_z
_atom_type_partial_charge
C1    C     C_R   0.545807 0.794617 0.498136 0.951024
C2    C     C_R   0.623537 0.434684 0.172455 0.063065
C3    C     C_R   0.491545 0.527353 0.855952 -0.033570
C4    C     C_R   0.537860 0.556422 0.144944 -0.023944
C5    C     C_R   0.551111 0.391631 0.819597 -0.010134
C6    C     C_R   0.443291 0.662776 0.188924 -0.019892
C7    C     C_R   0.553518 0.381652 0.745874 -0.075041
C8    C     C_R   0.435818 0.648018 0.262153 -0.072628
C9    C     C_R   0.500403 0.509403 0.710178 -0.177901
C10   C     C_R   0.505472 0.517143 0.289730 -0.183618
C11   C     C_R   0.524038 0.555763 0.070061 0.378179
C12   C     C_R   0.454193 0.205368 0.501709 0.957758
C13   C     C_R   0.500522 0.541516 0.931101 0.353219
C14   C     C_2   0.381014 0.773827 0.706041 0.537988
C15   C     C_2   0.657675 0.267561 0.277367 0.493399
C16   C     C_3   0.378666 0.801411 0.861807 -0.346205
C17   C     C_3   0.188837 0.782236 0.891379 -0.318553
C18   C     C_3   0.131761 0.930946 0.930769 -0.768253
C19   C     C_3   0.734431 0.329365 0.123098 -0.417376
C20   C     C_3   0.637143 0.173354 0.105223 -0.263806
C21   C     C_3   0.751241 0.071177 0.055913 -0.757902
C22   C     C_2   0.622375 0.264528 0.857632 0.442991
C23   C     C_2   0.569778 0.958385 0.497123 -0.343028
C24   C     C_2   0.343245 0.784668 0.159549 0.436001
C25   C     C_2   0.601877 0.235111 0.705819 0.358970
C26   C     C_2   0.363820 0.774348 0.309827 0.350378
C27   C     C_2   0.010007 0.312942 0.455403 0.711016
C28   C     C_2   0.990125 0.687166 0.544519 0.708425
C29   C     C_2   0.430211 0.041583 0.502628 -0.328856
C30   C     C_R   0.499791 0.499663 0.634155 0.827447
C31   C     C_R   0.500717 0.503385 0.365761 0.848907
C32   C     C_R   0.437814 0.643818 0.746713 -0.052194
C33   C     C_R   0.598214 0.409494 0.245547 -0.053383
C34   C     C_R   0.434287 0.653858 0.820592 0.049115
H1    H     H_    0.701457 0.009857 0.491931 0.169108
H2    H     H_    0.460351 0.829294 0.905483 0.217260
H3    H     H_    0.400529 0.906770 0.828908 0.267653
H4    H     H_    0.796875 0.134304 0.006928 0.263765
H5    H     H_    0.864277 0.039760 0.082185 0.258233
H6    H     H_    0.677169 0.961555 0.041389 0.291685
H7    H     H_    0.594529 0.107906 0.153828 0.256085
H8    H     H_    0.520980 0.196719 0.079095 0.255601
H9    H     H_    0.780007 0.388544 0.073307 0.207006
H10   H     H_    0.856358 0.309531 0.145372 0.258186
H11   H     H_    0.734061 0.206864 0.833828 0.098857
H12   H     H_    0.298533 0.990101 0.507813 0.170014
H13   H     H_    0.233858 0.830959 0.190955 0.108625
H14   H     H_    0.664366 0.239787 0.652706 0.105808
H15   H     H_    0.274873 0.746742 0.355499 0.115670
H16   H     H_    0.015799 0.217785 0.491176 -0.015185
H17   H     H_    0.983965 0.782088 0.508659 -0.016237
H18   H     H_    0.455035 0.809506 0.657434 0.065862
H19   H     H_    0.576751 0.210309 0.319805 0.100304
H20   H     H_    0.209456 0.957996 0.975827 0.292426
H21   H     H_    0.146482 0.031860 0.894921 0.277052
H22   H     H_    0.994145 0.913142 0.951232 0.244152
H23   H     H_    0.105960 0.755390 0.847967 0.266344
H24   H     H_    0.168999 0.683174 0.928117 0.231018
N1    N     N_R   0.641477 0.613940 0.956880 -0.190721
N2    N     N_R   0.382505 0.484785 0.044275 -0.159833
N3    N     N_R   0.652853 0.621654 0.025753 -0.173432
N4    N     N_R   0.370765 0.477769 0.975490 -0.133121
N5    N     N_2   0.950330 0.457950 0.481240 -0.187025
N6    N     N_2   0.049670 0.542050 0.518760 -0.185871
O1    O     O_R   0.389250 0.738570 0.504600 -0.646973
O2    O     O_2   0.798531 0.217892 0.259783 -0.542688
O3    O     O_2   0.554798 0.219890 0.914492 -0.588537
O4    O     O_2   0.381635 0.836115 0.100814 -0.604334
O5    O     O_2   0.567094 0.106018 0.731003 -0.600894
O6    O     O_2   0.405769 0.912223 0.298464 -0.592249
O7    O     O_2   0.045353 0.291317 0.392346 -0.559145
O8    O     O_2   0.955436 0.709187 0.607591 -0.569417
O9    O     O_R   0.610750 0.261430 0.495400 -0.645588
O10   O     O_R   0.678400 0.711620 0.492580 -0.646367
O11   O     O_R   0.321600 0.288380 0.507420 -0.644401
O12   O     O_R   0.355380 0.513500 0.607880 -0.600090
O13   O     O_R   0.644620 0.486500 0.392120 -0.601239
O14   O     O_R   0.644530 0.486550 0.595850 -0.617312
O15   O     O_R   0.355470 0.513450 0.404150 -0.620331
O16   O     O_2   0.247670 0.836640 0.724376 -0.544080
Zn1   Zn    Zn3+2 0.306930 0.517990 0.508030 0.971629
Zn2   Zn    Zn3+2 0.693070 0.482010 0.491970 0.971133

loop_
_geom_bond_atom_site_label_1
_geom_bond_atom_site_label_2
_ccdc_geom_bond_type
C12   C29   S    
C8    C26   S    
C19   C20   S    
C20   H7    S    
C1    O10   A    
C23   C29   D    
C28   H17   S    
N2    N4    A    
C9    C32   A    
C16   C34   S    
C10   C31   S    
C14   H18   S    
C5    C22   S    
C16   C17   S    
C1    O1    A    
C14   O16   D    
C3    C13   S    
C27   H16   S    
C18   H22   S    
C17   H24   S    
C12   O9    A    
C28   O8    D    
O10   Zn2   S    
C19   H9    S    
C31   O13   A    
N6    Zn1   S    
N1    N3    A    
C13   N4    A    
N5    Zn2   S    
C4    C6    A    
C26   H15   S    
C5    C7    A    
C18   H20   S    
O11   Zn1   S    
C6    C8    A    
C3    C34   A    
C11   N3    A    
C15   O2    D    
C32   C34   A    
C2    C4    A    
C30   O12   A    
O14   Zn2   S    
O1    Zn1   S    
C21   H4    S    
C21   H5    S    
C6    C24   S    
C17   C18   S    
C4    C11   S    
C25   H14   S    
C27   N5    S    
C9    C30   S    
C18   H21   S    
C2    C33   A    
C1    C23   S    
C23   H1    S    
C26   O6    D    
C25   O5    D    
C11   N2    A    
C15   H19   S    
O9    Zn2   S    
C27   O7    D    
C19   H10   S    
C28   N6    S    
O15   Zn1   S    
C7    C9    A    
C2    C19   S    
C24   H13   S    
C14   C32   S    
C3    C5    A    
O12   Zn1   S    
C20   H8    S    
C31   O15   A    
C13   N1    A    
C16   H3    S    
C7    C25   S    
C29   H12   S    
C16   H2    S    
C21   H6    S    
O13   Zn2   S    
C10   C33   A    
C22   O3    D    
C24   O4    D    
N5    N6    D    
C30   O14   A    
C22   H11   S    
C20   C21   S    
C8    C10   A    
C12   O11   A    
C15   C33   S    
C17   H23   S    
