data_mof_unit_25352.cif
_audit_creation_date              2012-12-11T19:09:45-0500
_audit_creation_method            fapswitch 2.2
_symmetry_space_group_name_H-M    P1
_symmetry_Int_Tables_number       1
_space_group_crystal_system       triclinic
_cell_length_a                    8.247252
_cell_length_b                    15.099114
_cell_length_c                    26.906955
_cell_angle_alpha                 98.480484
_cell_angle_beta                  93.126641
_cell_angle_gamma                 80.749069
_cell_volume                      3269.25093735

loop_
_atom_site_label
_atom_site_type_symbol
_atom_type_description
_atom_site_fract_x
_atom_site_fract_y
_atom_site_fract_z
_atom_type_partial_charge
Ba1   Ba    Ba6+2 0.860050 0.456430 0.522540 1.635560
Ba2   Ba    Ba6+2 0.329780 0.543490 0.477450 1.632060
C1    C     C_3   0.723332 0.138932 0.655674 -0.263313
C2    C     C_R   0.894670 0.587925 0.178792 0.570998
C3    C     C_2   0.749664 0.556704 0.272831 -0.082192
C4    C     C_3   0.170201 0.271749 0.658163 0.329585
C5    C     C_3   0.729726 0.587084 0.328344 -0.047363
C6    C     C_1   0.982488 0.483416 0.342307 0.029808
C7    C     C_2   0.023532 0.479713 0.294511 -0.108822
C8    C     C_2   0.899012 0.515600 0.256016 0.191315
C9    C     C_R   0.021007 0.507759 0.101505 -0.079823
C10   C     C_R   0.067745 0.431067 0.126183 -0.036103
C11   C     C_R   0.155836 0.352998 0.099534 -0.060087
C12   C     C_3   0.688042 0.228945 0.635325 0.296411
C13   C     C_R   0.933159 0.586331 0.128136 -0.023762
C14   C     C_2   0.842064 0.528659 0.360321 -0.290350
C15   C     C_2   0.351572 0.476330 0.640508 -0.275513
C16   C     C_3   0.132986 0.259480 0.711208 -0.315427
C17   C     C_R   0.200814 0.426954 0.973417 0.019695
C18   C     C_R   0.045095 0.580864 0.973983 0.020458
C19   C     C_R   0.143351 0.503314 0.948383 0.050297
C20   C     C_R   0.303303 0.352994 0.946660 -0.099308
C21   C     C_R   0.344620 0.353257 0.897114 -0.058918
C22   C     C_R   0.285768 0.427093 0.871643 -0.031998
C23   C     C_3   0.554729 0.701044 0.637340 0.314032
C24   C     C_R   0.184660 0.502234 0.897179 -0.077774
C25   C     C_R   0.125226 0.576483 0.871560 -0.033547
C26   C     C_R   0.167144 0.574765 0.821079 0.590520
C27   C     C_R   0.326101 0.427165 0.821119 0.577704
C28   C     C_3   0.215934 0.266724 0.415156 0.315134
C29   C     C_2   0.462744 0.483630 0.728799 -0.072495
C30   C     C_3   0.500816 0.487286 0.674521 -0.048946
C31   C     C_1   0.207347 0.516631 0.657033 0.056724
C32   C     C_2   0.170047 0.517649 0.704591 -0.120473
C33   C     C_2   0.304521 0.499282 0.743623 0.199683
C34   C     C_3   0.657710 0.722773 0.685292 -0.291818
C35   C     C_R   0.155197 0.427199 0.024094 0.019998
C36   C     C_R   0.061967 0.506070 0.050197 0.049890
C37   C     C_R   0.009323 0.583466 0.025611 0.020361
C38   C     C_R   0.198856 0.351004 0.049866 -0.098863
C39   C     C_R   0.886441 0.662830 0.103865 -0.060004
C40   C     C_3   0.242219 0.164111 0.401415 -0.383592
C41   C     C_R   0.985033 0.653358 0.946678 -0.100013
C42   C     C_R   0.024534 0.651142 0.896844 -0.061615
C43   C     C_R   0.923384 0.661608 0.053968 -0.102304
C44   C     C_R   0.362877 0.176475 0.539647 -0.014307
C45   C     C_3   0.032482 0.731472 0.341443 0.343983
C46   C     C_R   0.577063 0.208970 0.489261 0.065157
C47   C     C_R   0.747246 0.767939 0.476136 -0.287805
C48   C     C_R   0.835321 0.827018 0.458158 0.007114
C49   C     C_R   0.772989 0.919944 0.462546 -0.155191
C50   C     C_R   0.625777 0.956036 0.488687 0.005704
C51   C     C_R   0.542768 0.894412 0.509001 -0.015130
C52   C     C_3   0.986919 0.744804 0.592880 0.229687
C53   C     C_R   0.566177 0.051454 0.499371 0.008994
C54   C     C_R   0.432837 0.083046 0.532859 -0.016412
C55   C     C_R   0.372006 0.019656 0.557437 -0.081907
C56   C     C_3   0.046280 0.753124 0.288529 -0.309652
C57   C     C_R   0.412457 0.928252 0.541144 -0.065345
C58   C     C_R   0.635896 0.116490 0.478268 -0.133897
C59   C     C_R   0.441756 0.238354 0.519723 -0.284504
C60   C     C_R   0.605464 0.800678 0.502733 0.040312
C61   C     C_3   0.003473 0.844262 0.613869 -0.120760
C62   C     C_3   0.695665 0.341623 0.371495 0.303128
C63   C     C_3   0.695545 0.319391 0.314497 -0.358600
C64   C     C_2   0.931647 0.871673 0.665488 0.548611
C65   C     C_3   0.928431 0.910159 0.578143 -0.433301
C66   C     C_3   0.379561 0.706093 0.651970 -0.323112
C67   C     C_3   0.483248 0.784281 0.364880 0.364102
C68   C     C_2   0.303459 0.041604 0.607891 0.556413
C69   C     C_3   0.429536 0.874571 0.345585 -0.364952
C70   C     C_R   0.024490 0.433686 0.176862 0.597956
H1    H     H_    0.782864 0.228622 0.607466 0.099328
H2    H     H_    0.853017 0.126683 0.669695 0.117307
H3    H     H_    0.793519 0.261463 0.303028 0.132208
H4    H     H_    0.718085 0.378765 0.297612 0.070019
H5    H     H_    0.574471 0.301478 0.300109 0.135062
H6    H     H_    0.564483 0.235255 0.616764 -0.015175
H7    H     H_    0.702321 0.083417 0.625256 0.116005
H8    H     H_    0.602969 0.631239 0.619635 0.060025
H9    H     H_    0.613197 0.792018 0.704608 0.149873
H10   H     H_    0.651973 0.672839 0.711403 0.055621
H11   H     H_    0.787253 0.719080 0.676476 0.147218
H12   H     H_    0.337009 0.142833 0.372451 0.124107
H13   H     H_    0.641041 0.139227 0.687025 0.186757
H14   H     H_    0.175431 0.314120 0.738430 0.105884
H15   H     H_    0.114695 0.666733 0.345373 0.086292
H16   H     H_    0.903164 0.723861 0.346594 -0.056291
H17   H     H_    0.158842 0.783039 0.285269 0.148168
H18   H     H_    0.053850 0.689824 0.261563 0.114636
H19   H     H_    0.937693 0.801874 0.278697 0.120741
H20   H     H_    0.619914 0.771265 0.365599 -0.063029
H21   H     H_    0.439275 0.790288 0.403713 0.076733
H22   H     H_    0.486075 0.928369 0.369800 0.069560
H23   H     H_    0.283331 0.131121 0.435037 0.063658
H24   H     H_    0.293971 0.893376 0.346422 0.150037
H25   H     H_    0.113824 0.341033 0.652049 0.066969
H26   H     H_    0.469687 0.870152 0.306448 0.122814
H27   H     H_    0.148356 0.452833 0.283431 0.133252
H28   H     H_    0.192720 0.292488 0.117132 0.122240
H29   H     H_    0.563393 0.474158 0.756188 0.104751
H30   H     H_    0.423637 0.294641 0.878688 0.125071
H31   H     H_    0.356409 0.293752 0.963137 0.070471
H32   H     H_    0.264741 0.287609 0.032501 0.070024
H33   H     H_    0.652257 0.580435 0.246984 0.120997
H34   H     H_    0.125258 0.141278 0.386522 0.130542
H35   H     H_    0.820347 0.724836 0.123511 0.122939
H36   H     H_    0.904302 0.712970 0.962369 0.070096
H37   H     H_    0.305557 0.264697 0.654988 0.019893
H38   H     H_    0.974999 0.708824 0.878043 0.123027
H39   H     H_    0.043139 0.533510 0.715700 0.130826
H40   H     H_    0.884759 0.724294 0.039122 0.069772
H41   H     H_    0.820901 0.539670 0.400364 0.081728
H42   H     H_    0.362184 0.436529 0.603435 0.066310
H43   H     H_    0.390600 0.309558 0.524980 0.067497
H44   H     H_    0.733516 0.097313 0.451939 0.075629
H45   H     H_    0.858282 0.739297 0.581112 0.018702
H46   H     H_    0.798061 0.696823 0.473909 0.065798
H47   H     H_    0.848898 0.962565 0.449078 0.083140
H48   H     H_    0.998692 0.263133 0.714933 0.146186
H49   H     H_    0.352566 0.884003 0.559402 0.094623
H50   H     H_    0.196549 0.192847 0.720119 0.156726
H51   H     H_    0.334479 0.289117 0.427317 -0.002162
H52   H     H_    0.129268 0.285318 0.446432 0.077129
H53   H     H_    0.998568 0.846403 0.697676 0.017721
H54   H     H_    0.940898 0.980728 0.594257 0.132595
H55   H     H_    0.993516 0.894483 0.542439 0.127250
H56   H     H_    0.065387 0.721864 0.559830 0.071610
H57   H     H_    0.796326 0.906231 0.571901 0.149813
H58   H     H_    0.327585 0.776569 0.667402 0.116533
H59   H     H_    0.312891 0.683619 0.617198 0.113146
H60   H     H_    0.369719 0.662263 0.680832 0.056318
H61   H     H_    0.198810 0.012515 0.616731 -0.024014
H62   H     H_    0.136082 0.849860 0.617915 0.038753
H63   H     H_    0.818289 0.356777 0.385236 0.008717
H64   H     H_    0.601184 0.401907 0.381690 0.075642
N1    N     N_R   0.939593 0.511960 0.203108 -0.421960
N2    N     N_R   0.265698 0.500311 0.796103 -0.425302
O1    O     O_2   0.906490 0.548660 0.619040 -0.467553
O2    O     O_2   0.174999 0.825821 0.470558 -0.493435
O3    O     O_3   0.079950 0.801909 0.376349 -0.598512
O4    O     O_3   0.138490 0.548590 0.558860 -0.484764
O5    O     O_3   0.572560 0.389970 0.472910 -0.488444
O6    O     O_2   0.345680 0.723560 0.528460 -0.474556
O7    O     O_3   0.558784 0.766805 0.605577 -0.629833
O8    O     O_2   0.408023 0.540320 0.323727 -0.497193
O9    O     O_3   0.415571 0.715272 0.333511 -0.592835
O10   O     O_2   0.060682 0.365716 0.197237 -0.596577
O11   O     O_2   0.413852 0.361579 0.799293 -0.593377
O12   O     O_3   0.660966 0.266557 0.391553 -0.633339
O13   O     O_2   0.822092 0.657973 0.201376 -0.620929
O14   O     O_2   0.117567 0.640330 0.799590 -0.600638
O15   O     O_3   0.686290 0.382320 0.585720 -0.486769
O16   O     O_2   0.841802 0.435066 0.671133 -0.497753
O17   O     O_3   0.034059 0.692835 0.631750 -0.668340
O18   O     O_3   0.691746 0.299664 0.675324 -0.591770
O19   O     O_2   0.844020 0.276410 0.471510 -0.463183
O20   O     O_3   0.101490 0.335510 0.560360 -0.487001
O21   O     O_2   0.021659 0.175106 0.528439 -0.491488
O22   O     O_2   0.799224 0.920706 0.671809 -0.577159
O23   O     O_3   0.104009 0.206500 0.623695 -0.597167
O24   O     O_2   0.373689 0.085701 0.641485 -0.602032
O25   O     O_2   0.283210 0.451320 0.380930 -0.457517
O26   O     O_3   0.051220 0.451340 0.441130 -0.499953
O27   O     O_3   0.503420 0.617610 0.414270 -0.477749
O28   O     O_3   0.153449 0.305908 0.372728 -0.622884
O29   O     O_3   0.617160 0.609950 0.527080 -0.477105
O30   O     O_3   0.088220 0.664410 0.439630 -0.486004
P1    P     P_3+3 0.071960 0.575810 0.612130 0.980627
P2    P     P_3+3 0.664360 0.290070 0.457280 0.986979
P3    P     P_3+3 0.150821 0.220157 0.562892 0.931958
P4    P     P_3+3 0.117760 0.424110 0.387870 0.991535
P5    P     P_3+3 0.044725 0.780962 0.436670 0.943231
P6    P     P_3+3 0.679163 0.402465 0.651403 0.966410
P7    P     P_3+3 0.534376 0.724306 0.541254 0.939457
P8    P     P_3+3 0.513688 0.611160 0.349248 0.947007

loop_
_geom_bond_atom_site_label_1
_geom_bond_atom_site_label_2
_ccdc_geom_bond_type
C57   H49   S    
C53   C54   A    
C62   H64   S    
O28   P4    S    
C32   H39   S    
C16   H48   S    
C1    H13   S    
C23   H8    S    
Ba2   O6    S    
C19   C24   A    
C1    H7    S    
C14   H41   S    
C64   O22   D    
C51   C57   A    
C43   H40   S    
C69   H22   S    
C3    H33   S    
C44   P3    S    
O27   P8    S    
C27   N2    Am   
O18   P6    S    
C24   C25   A    
C16   H14   S    
C63   H4    S    
O21   P3    D    
C48   P5    S    
C29   H29   S    
Ba1   O20   S    
C17   C19   A    
C22   C24   A    
C32   C33   S    
C35   C38   A    
C67   H21   S    
C33   N2    S    
C36   C37   A    
O20   P3    S    
C55   C57   A    
C21   H30   S    
C52   C61   S    
Ba1   O29   S    
C34   H11   S    
Ba1   P2    S    
C54   C55   A    
C66   H60   S    
Ba1   Ba2   S    
C67   C69   S    
C1    H2    S    
C22   C27   A    
C11   C38   A    
Ba1   O4    S    
C17   C35   A    
C2    N1    Am   
C9    C13   A    
C25   C42   A    
O7    P7    S    
Ba1   O26   S    
C34   H10   S    
C6    C7    D    
O8    P8    D    
C59   H43   S    
C68   H61   S    
C49   H47   S    
C21   C22   A    
C8    N1    S    
C55   C68   S    
C67   H20   S    
C7    C8    S    
Ba1   O1    S    
C50   C53   A    
C37   C43   A    
C10   C70   A    
C61   C64   S    
C31   P1    S    
C6    C14   D    
C53   C58   A    
O3    P5    S    
Ba2   O5    S    
C65   H57   S    
C23   C66   S    
C15   C31   D    
C68   O24   D    
C15   H42   S    
C46   C58   A    
O30   P5    S    
C4    C16   S    
C69   H26   S    
C61   C65   S    
C63   H5    S    
O16   P6    D    
C44   C59   A    
C40   H23   S    
C4    H25   S    
C17   C20   A    
C26   N2    Am   
C28   O28   S    
C65   H54   S    
Ba2   O26   S    
C52   O17   S    
C3    C5    S    
C18   C37   A    
O9    P8    S    
O2    P5    D    
C69   H24   S    
C70   O10   D    
C52   H56   S    
O15   P6    S    
C20   H31   S    
C49   C50   A    
C62   O12   S    
C45   H15   S    
C66   H59   S    
Ba1   O15   S    
C41   C42   A    
C61   H62   S    
C35   C36   A    
Ba1   O5    S    
C65   H55   S    
O19   P2    D    
C38   H32   S    
C56   H18   S    
C51   C60   A    
O17   P1    S    
C47   H46   S    
C4    O23   S    
C34   H9    S    
C5    P8    S    
C48   C49   A    
C40   H12   S    
C10   C11   A    
C66   H58   S    
O25   P4    D    
C40   H34   S    
Ba2   O27   S    
C13   C39   A    
C1    C12   S    
C16   H50   S    
O4    P1    S    
C46   P2    S    
C70   N1    Am   
C28   H52   S    
C12   H1    S    
C26   O14   D    
Ba2   O4    S    
C4    H37   S    
C29   C33   D    
O26   P4    S    
Ba2   O30   S    
C18   C41   A    
C50   C51   A    
O29   P7    S    
C56   H19   S    
C15   C30   S    
C2    O13   D    
C5    C14   S    
C47   C60   A    
C39   H35   S    
C12   O18   S    
C29   C30   S    
O5    P2    S    
Ba2   O25   S    
C9    C10   A    
C45   O3    S    
C63   H3    S    
C64   H53   S    
C62   C63   S    
C11   H28   S    
Ba1   O19   S    
C3    C8    D    
C45   H16   S    
C45   C56   S    
C46   C59   A    
O12   P2    S    
C30   P6    S    
C2    C13   A    
C67   O9    S    
C60   P7    S    
O6    P7    D    
Ba1   P1    S    
C31   C32   D    
O1    P1    D    
C41   H36   S    
C12   H6    S    
C56   H17   S    
C62   H63   S    
C58   H44   S    
C23   C34   S    
C27   O11   D    
O23   P3    S    
C18   C19   A    
C7    H27   S    
C47   C48   A    
C52   H45   S    
C44   C54   A    
C25   C26   A    
C28   H51   S    
C39   C43   A    
C20   C21   A    
C28   C40   S    
C9    C36   A    
C23   O7    S    
Ba2   O29   S    
C6    P4    S    
Ba2   P4    S    
C42   H38   S    
