data_mof_unit_27417.cif
_audit_creation_date              2012-12-10T17:22:06-0500
_audit_creation_method            fapswitch 2.2
_symmetry_space_group_name_H-M    P1
_symmetry_Int_Tables_number       1
_space_group_crystal_system       triclinic
_cell_length_a                    10.384028
_cell_length_b                    10.65838
_cell_length_c                    15.836749
_cell_angle_alpha                 92.212283
_cell_angle_beta                  82.245285
_cell_angle_gamma                 94.982724
_cell_volume                      1729.52822387

loop_
_atom_site_label
_atom_site_type_symbol
_atom_type_description
_atom_site_fract_x
_atom_site_fract_y
_atom_site_fract_z
_atom_type_partial_charge
C1    C     C_R   0.554620 0.733568 0.494716 0.940875
C2    C     C_3   0.381930 0.574257 0.058565 -0.156834
C3    C     C_3   0.497410 0.496379 0.084395 -0.021430
C4    C     C_3   0.472050 0.352289 0.055844 -0.190555
C5    C     C_3   0.436168 0.342198 0.963240 -0.193799
C6    C     C_1   0.496210 0.498979 0.176446 -0.200574
C7    C     C_1   0.492450 0.466994 0.825080 -0.006217
C8    C     C_1   0.495267 0.477791 0.749776 -0.156866
C9    C     C_2   0.583696 0.870398 0.493244 -0.137012
C10   C     C_2   0.529422 0.938870 0.559778 -0.267119
C11   C     C_2   0.425267 0.135400 0.543944 -0.256851
C12   C     C_R   0.499206 0.494984 0.661197 0.866402
C13   C     C_2   0.531877 0.077114 0.559376 -0.035579
C14   C     C_2   0.934049 0.518923 0.498285 -0.005788
C15   C     C_2   0.071997 0.482068 0.496120 -0.030693
C16   C     C_R   0.446655 0.267289 0.513801 0.834847
C17   C     C_R   0.499098 0.499438 0.339307 0.922671
C18   C     C_3   0.403771 0.583544 0.955673 -0.040081
C19   C     C_3   0.638913 0.501184 0.938039 -0.219431
C20   C     C_3   0.642207 0.543502 0.037060 -0.066181
C21   C     C_1   0.496864 0.499028 0.251288 -0.197708
C22   C     C_3   0.491784 0.470284 0.918227 0.068051
H1    H     H_    0.565383 0.313005 0.056297 0.090619
H2    H     H_    0.475270 0.891302 0.614727 0.164684
H3    H     H_    0.133144 0.637255 0.559758 0.155601
H4    H     H_    0.671991 0.584885 0.900511 0.147850
H5    H     H_    0.329005 0.338151 0.971161 0.184516
N1    N     N_2   0.842720 0.448890 0.465540 -0.185003
N2    N     N_2   0.157250 0.551040 0.534500 -0.224899
O1    O     O_R   0.431050 0.692470 0.506940 -0.628541
O2    O     O_R   0.651130 0.659650 0.484820 -0.564381
O3    O     O_R   0.389910 0.516410 0.633920 -0.605790
O4    O     O_R   0.609990 0.483590 0.611800 -0.627615
O5    O     O_R   0.348870 0.340350 0.515180 -0.589003
O6    O     O_R   0.568950 0.307530 0.493060 -0.644870
O7    O     O_R   0.390010 0.516410 0.388200 -0.624804
O8    O     O_R   0.610090 0.483590 0.366080 -0.587636
Zn1   Zn    Zn3+2 0.353060 0.521920 0.514770 0.937625
Zn2   Zn    Zn3+2 0.646940 0.478080 0.485230 0.975812
C23   C     C_2   0.373334 0.701092 0.107229 0.353850
H6    H     H_    0.395173 0.710441 0.172136 0.088416
O9    O     O_2   0.324044 0.788810 0.080560 -0.572211
C24   C     C_R   0.272509 0.589155 0.916254 0.202616
C25   C     C_R   0.209803 0.484840 0.875255 -0.111599
C26   C     C_R   0.100610 0.496763 0.834725 -0.069898
C27   C     C_R   0.048893 0.612371 0.834260 -0.111499
C28   C     C_R   0.105629 0.716526 0.874868 -0.144071
C29   C     C_R   0.214494 0.705355 0.915942 0.032371
H7    H     H_    0.244559 0.393523 0.870213 0.090573
H8    H     H_    0.057770 0.415984 0.802140 0.136846
H9    H     H_    0.965178 0.621313 0.802227 0.109342
H10   H     H_    0.066657 0.807020 0.873413 0.115471
H11   H     H_    0.256394 0.790844 0.943455 0.179856
C30   C     C_2   0.249445 0.507435 0.093689 0.470405
H12   H     H_    0.241629 0.448928 0.148761 0.092190
O10   O     O_2   0.147264 0.532221 0.070642 -0.481190
C31   C     C_2   0.640238 0.149381 0.597389 0.421797
H13   H     H_    0.623043 0.237116 0.632428 0.085195
O11   O     O_2   0.748799 0.112227 0.590337 -0.660075
C32   C     C_R   0.296922 0.090807 0.591318 0.150420
C33   C     C_R   0.243454 0.166197 0.659887 -0.165909
C34   C     C_R   0.146531 0.114987 0.721379 -0.174545
C35   C     C_R   0.097576 0.989651 0.713443 -0.100203
C36   C     C_R   0.144793 0.915830 0.643329 -0.129424
C37   C     C_R   0.243143 0.966052 0.581922 -0.174866
H14   H     H_    0.284560 0.261473 0.670242 0.132637
H15   H     H_    0.113111 0.171631 0.776821 0.138168
H16   H     H_    0.023244 0.949652 0.761717 0.108037
H17   H     H_    0.106993 0.818859 0.637776 0.140716
H18   H     H_    0.280369 0.906419 0.528953 0.158377
C38   C     C_2   0.662641 0.928732 0.417322 0.357539
H19   H     H_    0.682556 0.030200 0.414145 0.106229
O12   O     O_2   0.707089 0.863140 0.357344 -0.592448
C39   C     C_R   0.104979 0.357347 0.460366 0.174938
C40   C     C_R   0.062703 0.250208 0.508273 -0.141341
C41   C     C_R   0.080761 0.130513 0.472239 -0.121314
C42   C     C_R   0.140801 0.116287 0.388607 -0.133526
C43   C     C_R   0.181403 0.222484 0.340164 -0.171189
C44   C     C_R   0.163519 0.342802 0.375628 -0.050327
H20   H     H_    0.014904 0.259371 0.573080 0.145072
H21   H     H_    0.049611 0.048814 0.509641 0.158515
H22   H     H_    0.154452 0.023048 0.361128 0.155197
H23   H     H_    0.223563 0.211207 0.274612 0.171084
H24   H     H_    0.188929 0.423799 0.335778 0.165521
C45   C     C_R   0.897655 0.632242 0.548174 0.169647
C46   C     C_R   0.869817 0.628319 0.636639 -0.157031
C47   C     C_R   0.829110 0.734419 0.684111 -0.190793
C48   C     C_R   0.823805 0.846812 0.642952 -0.091884
C49   C     C_R   0.862210 0.853244 0.554989 -0.125971
C50   C     C_R   0.900967 0.746889 0.507707 -0.139296
H25   H     H_    0.882916 0.543239 0.667295 0.111708
H26   H     H_    0.803163 0.730397 0.752511 0.136598
H27   H     H_    0.793155 0.929114 0.679613 0.167375
H28   H     H_    0.858985 0.939100 0.522254 0.191388
H29   H     H_    0.928340 0.752627 0.439406 0.173921
C51   C     C_2   0.482438 0.707274 0.927466 0.318795
H30   H     H_    0.513118 0.778129 0.972538 0.127554
O13   O     O_2   0.510757 0.729416 0.851864 -0.633911
C52   C     C_2   0.872691 0.384156 0.386140 0.583983
H31   H     H_    0.834897 0.286894 0.378390 0.031801
O14   O     O_2   0.931236 0.439885 0.324645 -0.582252
C53   C     C_R   0.732152 0.404043 0.893438 0.174481
C54   C     C_R   0.766164 0.413508 0.804645 -0.208815
C55   C     C_R   0.820772 0.316439 0.754488 -0.141446
C56   C     C_R   0.851589 0.210238 0.792750 -0.125701
C57   C     C_R   0.836226 0.205129 0.881159 -0.169768
C58   C     C_R   0.775169 0.299440 0.931310 -0.030703
H32   H     H_    0.741328 0.494072 0.773526 0.142421
H33   H     H_    0.837184 0.322834 0.685858 0.153507
H34   H     H_    0.887069 0.132199 0.753772 0.151274
H35   H     H_    0.864274 0.124060 0.910944 0.122254
H36   H     H_    0.757228 0.282071 0.998202 0.090195
C59   C     C_R   0.686439 0.687329 0.048754 0.086284
C60   C     C_R   0.657654 0.754979 0.126969 -0.119119
C61   C     C_R   0.701281 0.881808 0.137155 -0.078231
C62   C     C_R   0.784852 0.942367 0.072578 -0.123253
C63   C     C_R   0.828589 0.874634 0.999159 -0.154931
C64   C     C_R   0.782568 0.748831 0.988010 -0.079492
H37   H     H_    0.604733 0.711984 0.182440 0.148898
H38   H     H_    0.672947 0.932276 0.196429 0.166230
H39   H     H_    0.819839 0.040148 0.080862 0.140689
H40   H     H_    0.899575 0.919208 0.950925 0.117195
H41   H     H_    0.828117 0.699839 0.932776 0.133046
C65   C     C_2   0.748473 0.483148 0.075684 0.436173
H42   H     H_    0.724546 0.419575 0.128422 0.075341
O15   O     O_2   0.863703 0.505861 0.048345 -0.494210
C66   C     C_R   0.469606 0.217828 0.914328 0.187926
C67   C     C_R   0.534723 0.122994 0.947823 -0.080859
C68   C     C_R   0.576202 0.020666 0.896784 -0.130537
C69   C     C_R   0.543735 0.003781 0.814690 -0.052559
C70   C     C_R   0.463381 0.084900 0.785650 -0.157113
C71   C     C_R   0.426263 0.190487 0.834540 -0.159633
H43   H     H_    0.559895 0.126954 0.011667 0.108672
H44   H     H_    0.635623 0.955595 0.920558 0.140210
H45   H     H_    0.577935 0.926464 0.774058 0.173838
H46   H     H_    0.430919 0.065901 0.724709 0.149116
H47   H     H_    0.364166 0.250409 0.808798 0.110235
C72   C     C_2   0.382298 0.266767 0.117293 0.335271
H48   H     H_    0.409903 0.252122 0.179566 0.066633
O16   O     O_2   0.283055 0.210017 0.097327 -0.555191

loop_
_geom_bond_atom_site_label_1
_geom_bond_atom_site_label_2
_ccdc_geom_bond_type
C25   H7    S    
C47   C48   A    
C2    C18   S    
C18   C51   S    
C58   H36   S    
C69   H45   S    
C63   H40   S    
C3    C6    S    
C67   C68   A    
C60   C61   A    
C7    C8    T    
C42   C43   A    
O4    Zn2   S    
C34   H15   S    
C26   H8    S    
C56   H34   S    
C59   C60   A    
C46   H25   S    
C16   O6    A    
C20   C59   S    
C19   C53   S    
C31   O11   D    
C11   C13   D    
C13   C31   S    
C57   C58   A    
C37   H18   S    
C1    O2    A    
C62   C63   A    
O1    Zn1   S    
C27   C28   A    
C49   H28   S    
C19   H4    S    
C66   C71   A    
C16   O5    A    
C5    H5    S    
C33   H14   S    
C5    C22   S    
C19   C20   S    
C51   O13   D    
N2    Zn1   S    
C54   H32   S    
C17   O7    A    
O3    Zn1   S    
C24   C29   A    
C60   H37   S    
C64   H41   S    
C59   C64   A    
C23   O9    D    
C18   C22   S    
C47   H26   S    
C12   O3    A    
C44   H24   S    
C53   C54   A    
C67   H43   S    
C43   H23   S    
C9    C10   D    
C55   C56   A    
C15   N2    D    
C57   H35   S    
H3    N2    S    
C29   H11   S    
C30   O10   D    
C39   C40   A    
C3    C20   S    
C19   C22   S    
C1    C9    S    
C41   C42   A    
C70   H46   S    
C2    C30   S    
C38   O12   D    
C4    H1    S    
C48   H27   S    
C46   C47   A    
N1    Zn2   S    
C10   H2    S    
C71   H47   S    
C45   C46   A    
C6    C21   T    
C27   H9    S    
C17   C21   S    
C35   C36   A    
C32   C33   A    
O6    Zn2   S    
C40   C41   A    
C34   C35   A    
C11   C16   S    
C28   C29   A    
C61   C62   A    
C8    C12   S    
C51   H30   S    
C5    C66   S    
C53   C58   A    
C17   O8    A    
C36   H17   S    
C72   O16   D    
N1    C52   S    
C23   H6    S    
C52   O14   D    
C32   C37   A    
C39   C44   A    
C24   C25   A    
C26   C27   A    
C66   C67   A    
C25   C26   A    
C65   O15   D    
C68   C69   A    
C40   H20   S    
C30   H12   S    
O5    Zn1   S    
C9    C38   S    
C14   C45   S    
C4    C5    S    
C10   C13   S    
C50   H29   S    
C41   H21   S    
C45   C50   A    
C28   H10   S    
C7    C22   S    
C56   C57   A    
C35   H16   S    
C52   H31   S    
C36   C37   A    
O7    Zn1   S    
C69   C70   A    
C49   C50   A    
C38   H19   S    
O8    Zn2   S    
C70   C71   A    
C43   C44   A    
C31   H13   S    
C55   H33   S    
C42   H22   S    
C1    O1    A    
O2    Zn2   S    
C2    C3    S    
C11   C32   S    
C33   C34   A    
C20   C65   S    
C72   H48   S    
C4    C72   S    
C68   H44   S    
C2    C23   S    
C15   C39   S    
C48   C49   A    
C61   H38   S    
C18   C24   S    
C54   C55   A    
C14   C15   S    
C62   H39   S    
C14   N1    D    
C12   O4    A    
C63   C64   A    
C3    C4    S    
C65   H42   S    
