data_mof_unit_57154.cif
_audit_creation_date              2012-10-26T19:27:42-0400
_audit_creation_method            fapswitch 2.2
_symmetry_space_group_name_H-M    P1
_symmetry_Int_Tables_number       1
_space_group_crystal_system       triclinic
_cell_length_a                    20.727075
_cell_length_b                    21.322988
_cell_length_c                    14.802704
_cell_angle_alpha                 89.999868
_cell_angle_beta                  128.194126
_cell_angle_gamma                 89.999962
_cell_volume                      5141.68701372

loop_
_atom_site_label
_atom_site_type_symbol
_atom_type_description
_atom_site_fract_x
_atom_site_fract_y
_atom_site_fract_z
_atom_type_partial_charge
C1    C     C_R   0.601970 0.913108 0.630534 0.548809
C2    C     C_R   0.635824 0.262918 0.016818 -0.099425
C3    C     C_R   0.723000 0.777377 0.967565 0.058174
C4    C     C_R   0.202330 0.742669 0.936948 0.023328
C5    C     C_R   0.777003 0.277373 0.032440 0.058175
C6    C     C_R   0.786731 0.737515 0.051913 0.022378
C7    C     C_R   0.239520 0.288292 0.987608 0.063940
C8    C     C_R   0.302726 0.819948 0.979472 -0.106047
C9    C     C_R   0.641210 0.234058 0.937820 -0.140667
C10   C     C_R   0.666466 0.798792 0.983935 -0.110304
C11   C     C_R   0.361556 0.228874 0.057630 -0.147383
C12   C     C_R   0.833530 0.298794 0.016061 -0.110306
C13   C     C_R   0.671201 0.779351 0.077594 -0.111720
C14   C     C_R   0.138464 0.728845 0.942411 -0.147400
C15   C     C_R   0.197252 0.319942 0.020514 -0.106049
C16   C     C_R   0.858801 0.734074 0.062204 -0.140663
C17   C     C_2   0.279453 0.761644 0.677557 0.565676
C18   C     C_2   0.627952 0.315592 0.194640 0.577243
C19   C     C_2   0.677480 0.733537 0.272895 0.563628
C20   C     C_2   0.356971 0.296947 0.776575 0.582134
C21   C     C_2   0.822499 0.233553 0.727082 0.563628
C22   C     C_2   0.143064 0.796911 0.223483 0.582136
C23   C     C_2   0.220491 0.261611 0.322392 0.565676
C24   C     C_R   0.362209 0.253551 0.971364 -0.105385
C25   C     C_2   0.872071 0.815621 0.805401 0.577243
C26   C     C_R   0.828790 0.279355 0.922397 -0.111717
C27   C     C_R   0.137816 0.753517 0.028685 -0.105405
C28   C     C_R   0.207529 0.303269 0.119623 -0.108718
C29   C     C_R   0.864190 0.762938 0.983211 -0.099422
C30   C     C_R   0.321880 0.989829 0.663932 -0.128405
C31   C     C_R   0.677178 0.004461 0.333037 -0.127577
C32   C     C_R   0.822823 0.504459 0.666962 -0.127577
C33   C     C_R   0.397466 0.086758 0.369005 0.577985
C34   C     C_R   0.178121 0.489830 0.336068 -0.128399
C35   C     C_R   0.351220 0.995804 0.601731 0.254822
C36   C     C_R   0.648503 0.004745 0.396632 0.258789
C37   C     C_R   0.851497 0.504743 0.603368 0.258792
C38   C     C_R   0.148781 0.495805 0.398269 0.254828
C39   C     C_R   0.488193 0.999708 0.774937 0.024503
C40   C     C_R   0.511436 0.994786 0.225408 0.020555
C41   C     C_R   0.988564 0.494785 0.774592 0.020545
C42   C     C_R   0.011807 0.499709 0.225063 0.024501
C43   C     C_R   0.462377 0.992100 0.844214 0.006643
C44   C     C_R   0.397505 0.913245 0.368516 0.549774
C45   C     C_R   0.536287 0.996480 0.154154 0.004242
C46   C     C_R   0.963713 0.496478 0.845846 0.004241
C47   C     C_R   0.037623 0.492101 0.155786 0.006640
C48   C     C_R   0.376727 0.988481 0.783978 -0.000056
C49   C     C_R   0.621971 0.999594 0.213194 -0.000462
C50   C     C_R   0.878029 0.499592 0.786806 -0.000464
C51   C     C_R   0.123274 0.488481 0.216022 -0.000058
C52   C     C_R   0.516437 0.990558 0.968850 0.046184
C53   C     C_R   0.481639 0.993723 0.029207 0.045855
C54   C     C_R   0.018361 0.493721 0.970793 0.045850
C55   C     C_R   0.604259 0.085342 0.633367 0.573218
C56   C     C_R   0.983564 0.490558 0.031150 0.046182
C57   C     C_R   0.394052 0.994294 0.961006 0.077393
C58   C     C_R   0.603541 0.986010 0.035987 0.077492
C59   C     C_R   0.896460 0.486010 0.964013 0.077492
C60   C     C_R   0.105949 0.494289 0.038995 0.077392
C61   C     C_R   0.344629 0.987282 0.842463 -0.112505
C62   C     C_R   0.653772 0.994302 0.154323 -0.108047
C63   C     C_R   0.846229 0.494301 0.845677 -0.108050
C64   C     C_R   0.155371 0.487281 0.157538 -0.112502
C65   C     C_R   0.663657 0.134961 0.708699 0.013300
C66   C     C_R   0.102496 0.413245 0.631485 0.549775
C67   C     C_R   0.334786 0.866649 0.287772 -0.022127
C68   C     C_R   0.344446 0.141061 0.302296 0.015364
C69   C     C_R   0.664459 0.866717 0.709856 -0.018218
C70   C     C_R   0.155550 0.641062 0.697700 0.015370
C71   C     C_R   0.835546 0.366713 0.290149 -0.018222
C72   C     C_R   0.836342 0.634961 0.291299 0.013298
C73   C     C_R   0.165219 0.366654 0.712235 -0.022124
C74   C     C_R   0.768325 0.210392 0.753658 0.052639
C75   C     C_R   0.205560 0.813475 0.208435 0.051292
C76   C     C_R   0.261927 0.229913 0.281385 0.053006
C77   C     C_R   0.895741 0.585342 0.366633 0.573216
C78   C     C_R   0.801373 0.823981 0.806378 0.052168
C79   C     C_R   0.238040 0.729930 0.718588 0.053003
C80   C     C_R   0.698642 0.323963 0.193648 0.052171
C81   C     C_R   0.731664 0.710384 0.246330 0.052637
C82   C     C_R   0.294462 0.313501 0.791604 0.051299
C83   C     C_R   0.709809 0.164631 0.681159 -0.156193
C84   C     C_R   0.268882 0.854216 0.288661 -0.142839
C85   C     C_R   0.311000 0.177489 0.342996 -0.157348
C86   C     C_R   0.737102 0.862812 0.722832 -0.141325
C87   C     C_R   0.188976 0.677502 0.656983 -0.157351
C88   C     C_R   0.898030 0.413108 0.369467 0.548811
C89   C     C_R   0.762907 0.362800 0.277184 -0.141326
C90   C     C_R   0.790181 0.664624 0.318831 -0.156191
C91   C     C_R   0.231133 0.354231 0.711364 -0.142830
C92   C     C_R   0.673742 0.153171 0.808103 0.088969
C93   C     C_R   0.337976 0.836701 0.205309 0.076429
C94   C     C_R   0.330807 0.158249 0.200369 0.083191
C95   C     C_R   0.654380 0.829246 0.778688 0.081071
C96   C     C_R   0.169202 0.658241 0.799639 0.083198
C97   C     C_R   0.845625 0.329244 0.221316 0.081072
C98   C     C_R   0.826264 0.653175 0.191901 0.088968
C99   C     C_R   0.102534 0.586758 0.630994 0.577990
C100  C     C_R   0.162025 0.336702 0.794693 0.076433
C101  C     C_R   0.718954 0.207872 0.867453 0.024278
C102  C     C_R   0.267791 0.805602 0.111334 0.056859
C103  C     C_R   0.295631 0.217213 0.149911 0.022170
C104  C     C_R   0.723697 0.800338 0.877749 0.057480
C105  C     C_R   0.204367 0.717207 0.850095 0.022172
C106  C     C_R   0.776310 0.300331 0.122261 0.057481
C107  C     C_R   0.781048 0.707876 0.132551 0.024278
C108  C     C_R   0.232214 0.305613 0.888680 0.056855
C109  C     C_R   0.773129 0.232498 0.848119 0.011937
C110  C     C_R   0.292439 0.803282 0.880355 -0.108721
C111  C     C_R   0.203562 0.790076 0.116994 0.004927
C112  C     C_R   0.254084 0.250293 0.183627 0.014416
C113  C     C_R   0.796603 0.794736 0.888129 0.003991
C114  C     C_R   0.245894 0.750301 0.816359 0.014416
C115  C     C_R   0.703409 0.294720 0.111893 0.003995
C116  C     C_R   0.726865 0.732495 0.151875 0.011936
C117  C     C_R   0.296456 0.290100 0.883041 0.004923
C118  C     C_R   0.713275 0.237507 0.948098 0.022382
C119  C     C_R   0.260477 0.788286 0.012398 0.063945
C120  C     C_R   0.297677 0.242683 0.063070 0.023325
Cu1   Cu    Cu3+1 0.526640 1.000000 0.436960 0.986458
Cu2   Cu    Cu3+1 0.473360 0.000000 0.563040 0.983793
Cu3   Cu    Cu3+1 0.026640 0.500000 0.436960 0.983795
Cu4   Cu    Cu3+1 0.973360 0.500000 0.563040 0.986455
H1    H     H_    0.321890 0.832372 0.855713 0.168911
H2    H     H_    0.703445 0.149723 0.606004 0.162352
H3    H     H_    0.743146 0.889198 0.665894 0.166969
H4    H     H_    0.320343 0.163533 0.420757 0.163977
H5    H     H_    0.756863 0.389184 0.334125 0.166974
H6    H     H_    0.179622 0.663552 0.579212 0.163974
H7    H     H_    0.231936 0.374696 0.645176 0.166570
H8    H     H_    0.796541 0.649713 0.393981 0.162350
H9    H     H_    0.338737 0.861247 0.024088 0.127932
H10   H     H_    0.585685 0.213746 0.862965 0.119835
H11   H     H_    0.622718 0.835222 0.931534 0.153781
H12   H     H_    0.577261 0.261276 0.000374 0.175390
H13   H     H_    0.415280 0.203365 0.125616 0.120144
H14   H     H_    0.877274 0.335226 0.068458 0.153776
H15   H     H_    0.084744 0.703328 0.874436 0.120159
H16   H     H_    0.161230 0.361235 0.975890 0.127941
H17   H     H_    0.914326 0.713765 0.137062 0.119846
H18   H     H_    0.278499 0.986242 0.794363 0.118640
H19   H     H_    0.719821 0.992968 0.201919 0.120119
H20   H     H_    0.780179 0.492967 0.798081 0.120119
H21   H     H_    0.221501 0.486239 0.205638 0.118644
H22   H     H_    0.449743 0.987001 0.193074 0.187273
H23   H     H_    0.630619 0.801721 0.090280 0.175766
H24   H     H_    0.550554 0.007676 0.810041 0.193168
H25   H     H_    0.949446 0.507678 0.189959 0.193173
H26   H     H_    0.050258 0.487002 0.806924 0.187280
H27   H     H_    0.256133 0.987383 0.618172 0.109371
H28   H     H_    0.742791 0.006882 0.377795 0.106355
H29   H     H_    0.757209 0.506879 0.622205 0.106356
H30   H     H_    0.243867 0.487384 0.381829 0.109366
H31   H     H_    0.313873 0.045761 0.962866 0.244965
H32   H     H_    0.313950 0.969034 0.989172 0.227469
H33   H     H_    0.683422 0.004199 0.004340 0.242768
H34   H     H_    0.415304 0.243975 0.975891 0.178070
H35   H     H_    0.679272 0.928532 0.031954 0.232947
H36   H     H_    0.816580 0.504205 0.995662 0.242770
H37   H     H_    0.820725 0.428536 0.968047 0.232946
H38   H     H_    0.186130 0.545748 0.037128 0.244963
H39   H     H_    0.186051 0.469019 0.010833 0.227477
H40   H     H_    0.459224 0.812694 0.310314 0.249131
H41   H     H_    0.434470 0.869937 0.213240 0.247561
H42   H     H_    0.693717 0.112762 0.949910 0.236799
H43   H     H_    0.592988 0.117699 0.831402 0.234447
H44   H     H_    0.539319 0.796409 0.653916 0.240889
H45   H     H_    0.869367 0.301731 0.909705 0.175764
H46   H     H_    0.543506 0.850420 0.741626 0.256687
H47   H     H_    0.288216 0.116461 0.048652 0.239209
H48   H     H_    0.392406 0.111070 0.153936 0.253126
H49   H     H_    0.960692 0.296416 0.346083 0.240892
H50   H     H_    0.956492 0.350427 0.258362 0.256687
H51   H     H_    0.211822 0.616443 0.951361 0.239210
H52   H     H_    0.107629 0.611043 0.846098 0.253128
H53   H     H_    0.040784 0.312680 0.689671 0.249123
H54   H     H_    0.065514 0.369923 0.786732 0.247565
H55   H     H_    0.806303 0.612773 0.050099 0.236799
H56   H     H_    0.084730 0.743929 0.024174 0.178071
H57   H     H_    0.907029 0.617713 0.168616 0.234447
H58   H     H_    0.383211 0.799490 0.716496 0.343846
H59   H     H_    0.548410 0.256106 0.185341 0.335118
H60   H     H_    0.562765 0.754730 0.215110 0.351260
H61   H     H_    0.425095 0.229605 0.775864 0.337169
H62   H     H_    0.937209 0.254754 0.784852 0.351257
H63   H     H_    0.074964 0.729557 0.224221 0.337178
H64   H     H_    0.116713 0.299435 0.283419 0.343853
H65   H     H_    0.951633 0.756148 0.814724 0.335125
H66   H     H_    0.746238 0.970676 0.548784 0.221396
H67   H     H_    0.178062 0.332350 0.144250 0.168914
H68   H     H_    0.739034 0.049627 0.541525 0.217692
H69   H     H_    0.257584 0.037972 0.455833 0.219161
H70   H     H_    0.257224 0.959018 0.449487 0.223519
H71   H     H_    0.242773 0.459018 0.550514 0.223517
H72   H     H_    0.242420 0.537972 0.544165 0.219162
H73   H     H_    0.760967 0.549626 0.458474 0.217690
H74   H     H_    0.753761 0.470675 0.451217 0.221398
H75   H     H_    0.922756 0.761302 0.999663 0.175394
H76   H     H_    0.268081 0.874678 0.354852 0.166574
N1    N     N_R   0.433280 0.000000 0.657760 -0.220844
N2    N     N_3   0.652608 0.109406 0.860287 -0.621602
N3    N     N_3   0.573442 0.812025 0.738913 -0.624081
N4    N     N_3   0.335356 0.110185 0.136473 -0.604317
N5    N     N_3   0.926563 0.312030 0.261085 -0.624089
N6    N     N_3   0.164674 0.610168 0.863543 -0.604333
N7    N     N_3   0.084993 0.328072 0.774130 -0.625513
N8    N     N_3   0.847407 0.609416 0.139722 -0.621603
N9    N     N_3   0.705280 0.008197 0.519207 -0.546290
N10   N     N_3   0.294946 0.998603 0.479074 -0.541065
N11   N     N_3   0.205055 0.498606 0.520926 -0.541062
N12   N     N_R   0.566720 0.000000 0.342240 -0.217291
N13   N     N_3   0.794720 0.508196 0.480793 -0.546292
N14   N     N_R   0.933280 0.500000 0.657760 -0.217293
N15   N     N_R   0.066720 0.500000 0.342240 -0.220846
N16   N     N_3   0.351929 0.007119 0.006996 -0.669536
N17   N     N_3   0.643336 0.968138 0.988169 -0.669409
N18   N     N_3   0.856663 0.468142 0.011832 -0.669411
N19   N     N_3   0.148073 0.507106 0.993004 -0.669558
N20   N     N_3   0.415005 0.828083 0.225855 -0.625511
O1    O     O_R   0.600040 0.935040 0.546740 -0.477518
O2    O     O_R   0.444990 0.064930 0.346780 -0.482569
O3    O     O_R   0.444990 0.935070 0.346780 -0.520342
O4    O     O_R   0.555010 0.064930 0.653220 -0.489103
O5    O     O_R   0.055010 0.435070 0.653220 -0.520341
O6    O     O_R   0.944990 0.564930 0.346780 -0.489102
O7    O     O_R   0.944990 0.435070 0.346780 -0.509685
O8    O     O_R   0.055010 0.564930 0.653220 -0.482579
O9    O     O_2   0.241910 0.770545 0.574641 -0.500897
O10   O     O_R   0.362170 0.778688 0.755369 -0.695433
O11   O     O_2   0.601527 0.360362 0.214474 -0.509536
O12   O     O_R   0.399960 0.064960 0.453260 -0.483365
O13   O     O_R   0.594238 0.255997 0.178723 -0.707747
O14   O     O_2   0.706569 0.745329 0.372343 -0.509248
O15   O     O_R   0.592882 0.739032 0.185660 -0.690012
O16   O     O_2   0.383146 0.337342 0.748119 -0.501925
O17   O     O_R   0.383143 0.234836 0.789579 -0.705632
O18   O     O_2   0.793402 0.245347 0.627632 -0.509243
O19   O     O_R   0.907098 0.239051 0.814309 -0.690009
O20   O     O_2   0.116884 0.837301 0.251940 -0.501902
O21   O     O_R   0.116910 0.734796 0.210496 -0.705632
O22   O     O_2   0.258017 0.270511 0.425305 -0.500917
O23   O     O_R   0.399960 0.935040 0.453260 -0.476351
O24   O     O_R   0.137770 0.278643 0.244562 -0.695425
O25   O     O_2   0.898492 0.860397 0.785572 -0.509534
O26   O     O_R   0.905800 0.756031 0.821329 -0.707754
O27   O     O_R   0.600040 0.064960 0.546740 -0.482240
O28   O     O_R   0.100040 0.435040 0.546740 -0.476350
O29   O     O_R   0.899960 0.564960 0.453260 -0.482240
O30   O     O_R   0.899960 0.435040 0.453260 -0.477518
O31   O     O_R   0.100040 0.564960 0.546740 -0.483362
O32   O     O_R   0.555010 0.935070 0.653220 -0.509685

loop_
_geom_bond_atom_site_label_1
_geom_bond_atom_site_label_2
_ccdc_geom_bond_type
C3    C104  A    
C58   C62   A    
C65   C92   A    
C96   C105  A    
C28   H67   S    
C50   C63   A    
Cu3   N15   S    
C64   H21   S    
C73   C100  A    
C103  C120  A    
C38   N15   A    
H63   O21   S    
C3    C6    A    
C74   C109  A    
C79   C87   A    
Cu4   O5    S    
C30   H27   S    
C1    O32   A    
C92   N2    S    
Cu3   Cu4   S    
Cu3   O6    S    
C66   O28   A    
C70   C99   S    
Cu3   O31   S    
C71   C97   A    
C34   C51   A    
Cu4   O29   S    
C30   C35   A    
C93   N20   S    
C101  C118  A    
Cu2   N1    S    
C30   C48   A    
H66   N9    S    
C63   H20   S    
C20   C82   S    
C18   O11   D    
C31   C36   A    
Cu3   O28   S    
C58   N17   S    
C24   H34   S    
C43   C52   A    
C65   C83   A    
C88   O7    A    
Cu3   O7    S    
C11   C120  A    
C95   N3    S    
C20   O17   S    
C11   C24   A    
C17   C79   S    
C89   H5    S    
C81   C116  A    
C1    O1    A    
H42   N2    S    
H43   N2    S    
H52   N6    S    
H47   N4    S    
H48   N4    S    
C42   H25   S    
C54   C60   A    
Cu4   O30   S    
C42   N15   A    
H41   N20   S    
C55   C65   S    
H38   N19   S    
H72   N11   S    
H58   O10   S    
H61   O17   S    
C26   H45   S    
H35   N17   S    
C41   N14   A    
C39   H24   S    
H32   N16   S    
H50   N5    S    
Cu1   O2    S    
C57   N16   S    
C4    C119  A    
C14   C27   A    
C33   O12   A    
H46   N3    S    
C43   C48   A    
C110  C114  A    
C99   O8    A    
C76   C112  A    
C36   N9    S    
C90   H8    S    
C9    H10   S    
C78   C86   A    
C7    C15   A    
C21   O18   D    
C80   C89   A    
C6    C107  A    
C27   C111  A    
C67   C84   A    
C55   O27   A    
H37   N18   S    
C9    C118  A    
C98   N8    S    
C102  C111  A    
C14   H15   S    
C22   C75   S    
C31   C49   A    
C70   C87   A    
C7    C120  A    
C37   N13   S    
Cu4   O8    S    
C100  N7    S    
C46   C50   A    
C22   O20   D    
C5    C106  A    
C34   H30   S    
Cu1   O3    S    
C40   C45   A    
C107  C116  A    
C54   C56   A    
C100  C108  A    
C44   C67   S    
C25   C78   S    
C74   C83   A    
C25   O25   D    
C105  C114  A    
H57   N8    S    
Cu1   O27   S    
C10   H11   S    
C73   C91   A    
C5    C12   A    
C99   O31   A    
C60   N19   S    
C53   C57   A    
C35   N1    A    
C47   C51   A    
C41   H26   S    
C29   H75   S    
C16   C29   A    
C66   C73   S    
C6    C16   A    
C21   C74   S    
C10   C13   A    
C2    H12   S    
C82   C91   A    
C71   C88   S    
C12   C26   A    
C103  C112  A    
C75   C84   A    
H65   O26   S    
C70   C96   A    
H60   O15   S    
H71   N11   S    
C72   C77   S    
C72   C98   A    
C8    C110  A    
H70   N10   S    
C72   C90   A    
C2    C115  A    
C86   H3    S    
C33   O2    A    
C96   N6    S    
C71   C89   A    
C80   C115  A    
C45   C49   A    
C41   C46   A    
H54   N7    S    
C46   C54   A    
H33   N17   S    
C24   C117  A    
C44   O3    A    
C32   C37   A    
C27   H56   S    
C23   O22   D    
C26   C109  A    
C32   C50   A    
Cu1   Cu2   S    
C52   C58   A    
C92   C101  A    
C36   N12   A    
C81   C90   A    
C21   O19   S    
H59   O13   S    
C94   C103  A    
H62   O19   S    
C39   N1    A    
C38   N11   S    
C12   H14   S    
H39   N19   S    
H64   O24   S    
C78   C113  A    
C94   N4    S    
C13   H23   S    
C83   H2    S    
C15   C28   A    
C19   O14   D    
C37   N14   A    
H73   N13   S    
C95   C104  A    
C87   H6    S    
C88   O30   A    
C15   H16   S    
C29   C113  A    
H55   N8    S    
C17   O9    D    
C49   C62   A    
C20   O16   D    
C8    H9    S    
C34   C38   A    
C77   O29   A    
C59   C63   A    
C108  C117  A    
C35   N10   S    
C51   C64   A    
C33   C68   S    
C69   C95   A    
C59   N18   S    
C19   O15   S    
C93   C102  A    
C39   C43   A    
C17   O10   S    
H44   N3    S    
C57   C61   A    
Cu2   O23   S    
C98   C107  A    
H36   N18   S    
Cu2   O12   S    
C4    C105  A    
C40   N12   A    
C75   C111  A    
H51   N6    S    
C56   C59   A    
C40   H22   S    
C5    C118  A    
C60   C64   A    
Cu2   O4    S    
C16   H17   S    
C11   H13   S    
Cu1   N12   S    
C3    C10   A    
C25   O26   S    
C31   H28   S    
H74   N13   S    
H40   N20   S    
H69   N10   S    
C18   O13   S    
C45   C53   A    
C66   O5    A    
C104  C113  A    
C68   C85   A    
C42   C47   A    
C84   H76   S    
C4    C14   A    
H31   N16   S    
Cu4   N14   S    
C1    C69   S    
H68   N9    S    
C13   C116  A    
C69   C86   A    
C110  H1    S    
Cu2   O32   S    
C32   H29   S    
H53   N7    S    
C61   H18   S    
C77   O6    A    
C91   H7    S    
C62   H19   S    
C8    C119  A    
C18   C80   S    
C68   C94   A    
C79   C114  A    
C48   C61   A    
C67   C93   A    
C23   C76   S    
Cu1   O1    S    
C7    C108  A    
C55   O4    A    
C85   H4    S    
H49   N5    S    
C82   C117  A    
C97   N5    S    
C23   O24   S    
C19   C81   S    
C2    C9    A    
C101  C109  A    
C76   C85   A    
C28   C112  A    
C22   O21   S    
C102  C119  A    
C44   O23   A    
C52   C53   A    
C47   C56   A    
C106  C115  A    
C97   C106  A    
