data_mof_unit_7702.cif
_audit_creation_date              2012-12-10T18:43:08-0500
_audit_creation_method            fapswitch 2.2
_symmetry_space_group_name_H-M    P1
_symmetry_Int_Tables_number       1
_space_group_crystal_system       triclinic
_cell_length_a                    8.733864
_cell_length_b                    19.437278
_cell_length_c                    18.149519
_cell_angle_alpha                 90.104318
_cell_angle_beta                  97.942864
_cell_angle_gamma                 90.16996
_cell_volume                      3051.52828535

loop_
_atom_site_label
_atom_site_type_symbol
_atom_type_description
_atom_site_fract_x
_atom_site_fract_y
_atom_site_fract_z
_atom_type_partial_charge
C1    C     C_R   0.499543 0.367465 0.499934 0.841488
C2    C     C_R   0.500124 0.632529 0.500059 0.841692
C3    C     C_R   0.372942 0.963841 0.523575 -0.138115
C4    C     C_R   0.618916 0.036176 0.476151 -0.121366
C5    C     C_R   0.371883 0.035470 0.523167 -0.139305
C6    C     C_R   0.619901 0.964527 0.476495 -0.128281
C7    C     C_R   0.494993 0.071907 0.499577 0.195496
C8    C     C_R   0.497054 0.928111 0.500346 0.174844
C9    C     C_R   0.398289 0.458840 0.713687 0.058100
C10   C     C_R   0.598794 0.542222 0.285675 0.052563
C11   C     C_R   0.395726 0.457532 0.790847 -0.217785
C12   C     C_R   0.600453 0.543201 0.208400 -0.211847
C13   C     C_R   0.499351 0.498606 0.838420 0.181287
C14   C     C_R   0.499364 0.500458 0.161511 0.159801
C15   C     C_R   0.602049 0.541077 0.805824 -0.291674
C16   C     C_R   0.399663 0.457006 0.194789 -0.306954
C17   C     C_R   0.600717 0.540901 0.728292 0.077510
C18   C     C_R   0.401547 0.457685 0.272308 0.081286
C19   C     C_R   0.500439 0.560737 0.960418 -0.348777
C20   C     C_R   0.497370 0.437941 0.039566 -0.354720
C21   C     C_R   0.496570 0.562470 0.037721 0.508305
C22   C     C_R   0.494461 0.435954 0.961266 0.521362
C23   C     C_R   0.203537 0.499981 0.481011 0.887121
C24   C     C_R   0.796464 0.500014 0.518990 0.889582
C25   C     C_R   0.498070 0.500572 0.078592 -0.054030
C26   C     C_R   0.498732 0.498155 0.921230 -0.053245
C27   C     C_2   0.037838 0.500030 0.470478 -0.368640
C28   C     C_2   0.962165 0.499958 0.529524 -0.368853
C29   C     C_R   0.503797 0.744501 0.433926 -0.272651
C30   C     C_R   0.495653 0.255660 0.566335 -0.287154
C31   C     C_R   0.500487 0.816326 0.433437 0.434487
C32   C     C_R   0.490385 0.183496 0.566634 0.446950
C33   C     C_R   0.497682 0.852548 0.500513 -0.054914
C34   C     C_R   0.494328 0.147492 0.499525 -0.048431
C35   C     C_R   0.493846 0.816626 0.567493 0.375801
C36   C     C_R   0.496232 0.183280 0.432315 0.365660
C37   C     C_R   0.494342 0.744410 0.566751 -0.296963
C38   C     C_R   0.496938 0.255452 0.432922 -0.294972
C39   C     C_R   0.499474 0.708150 0.500235 -0.143278
C40   C     C_R   0.497372 0.291826 0.499707 -0.137890
Cu1   Cu    Cu3+1 0.499960 0.500000 0.573360 0.938757
Cu2   Cu    Cu3+1 0.500040 0.500000 0.426640 0.937095
H1    H     H_    0.977878 0.500152 0.413833 0.172728
H2    H     H_    0.022125 0.499836 0.586169 0.171999
H3    H     H_    0.683956 0.573635 0.840120 0.139977
H4    H     H_    0.319436 0.423330 0.161001 0.137787
H5    H     H_    0.680586 0.573535 0.703829 0.121734
H6    H     H_    0.323878 0.424292 0.297269 0.121670
H7    H     H_    0.501419 0.608954 0.930640 0.176459
H8    H     H_    0.503507 0.390354 0.070656 0.168031
H9    H     H_    0.508883 0.717433 0.382091 0.179796
H10   H     H_    0.500412 0.283453 0.618320 0.174902
H11   H     H_    0.491472 0.716671 0.618261 0.160329
H12   H     H_    0.497726 0.283077 0.381187 0.159314
H13   H     H_    0.276684 0.936195 0.541415 0.149778
H14   H     H_    0.715023 0.063828 0.458172 0.148043
H15   H     H_    0.274826 0.062523 0.540710 0.134651
H16   H     H_    0.716679 0.937427 0.458711 0.150361
H17   H     H_    0.318354 0.426850 0.677722 0.119295
H18   H     H_    0.676974 0.575331 0.321195 0.123773
H19   H     H_    0.311790 0.425270 0.812947 0.146457
H20   H     H_    0.681577 0.576554 0.185658 0.165586
N1    N     N_R   0.499980 0.500020 0.683620 -0.171675
N2    N     N_R   0.500020 0.499980 0.316380 -0.172075
O1    O     O_R   0.499930 0.400180 0.561970 -0.590435
O2    O     O_R   0.500070 0.599820 0.438030 -0.591927
O3    O     O_R   0.500010 0.400190 0.438070 -0.591020
O4    O     O_R   0.499990 0.599810 0.561930 -0.590056
O5    O     O_R   0.274810 0.500000 0.547650 -0.584770
O6    O     O_R   0.725190 0.500000 0.452350 -0.583195
O7    O     O_R   0.274880 0.500000 0.423750 -0.593167
O8    O     O_R   0.725120 0.500000 0.576250 -0.591923
O9    O     O_3   0.495785 0.625371 0.073201 -0.583303
C41   C     C_3   0.341036 0.646606 0.070928 -0.311790
H21   H     H_    0.273176 0.609310 0.099991 0.162428
H22   H     H_    0.284980 0.654437 0.012653 0.160270
H23   H     H_    0.339810 0.696644 0.100322 0.194594
O10   O     O_3   0.504815 0.374053 0.924001 -0.570862
C42   C     C_3   0.386748 0.328350 0.938653 -0.343479
H24   H     H_    0.273170 0.354524 0.938073 0.149408
H25   H     H_    0.420136 0.301246 0.992236 0.173812
H26   H     H_    0.371608 0.288662 0.894220 0.193404
O11   O     O_3   0.506333 0.851197 0.367576 -0.575333
C43   C     C_3   0.354890 0.855882 0.329325 -0.287292
H27   H     H_    0.277462 0.884064 0.362779 0.157570
H28   H     H_    0.306375 0.804084 0.313426 0.154808
H29   H     H_    0.358703 0.885336 0.277318 0.199080
O12   O     O_3   0.496925 0.146946 0.632638 -0.563213
C44   C     C_3   0.372856 0.165590 0.670797 -0.306346
H30   H     H_    0.261352 0.169604 0.632912 0.143243
H31   H     H_    0.398717 0.214325 0.702142 0.165081
H32   H     H_    0.358071 0.124899 0.712023 0.200490
O13   O     O_3   0.492433 0.853080 0.632839 -0.722442
H33   H     H_    0.490029 0.820269 0.674444 0.323560
O14   O     O_3   0.495077 0.146671 0.366887 -0.728871
H34   H     H_    0.496493 0.179371 0.325107 0.323410

loop_
_geom_bond_atom_site_label_1
_geom_bond_atom_site_label_2
_ccdc_geom_bond_type
C38   C40   A    
O13   H33   S    
C17   H5    S    
O9    C41   S    
C23   O5    A    
O14   H34   S    
C43   H29   S    
C24   O6    A    
C41   H22   S    
C19   C21   A    
C43   H28   S    
C2    O4    A    
C20   C25   A    
C32   O12   S    
C21   O9    S    
Cu2   O6    S    
C31   O11   S    
Cu1   Cu2   S    
C19   C26   A    
C6    H16   S    
C20   H8    S    
C1    C40   S    
C33   C35   A    
C3    H13   S    
C2    C39   S    
C41   H23   S    
C1    O1    A    
C31   C33   A    
C23   C27   S    
C44   H31   S    
C3    C5    A    
C37   H11   S    
C4    H14   S    
C4    C7    A    
Cu1   O4    S    
C5    C7    A    
C35   O13   S    
C41   H21   S    
C23   O7    A    
C43   H27   S    
C22   O10   S    
C4    C6    A    
C3    C8    A    
C16   H4    S    
C42   H25   S    
O10   C42   S    
C6    C8    A    
C2    O2    A    
C28   H2    S    
C9    H17   S    
C32   C34   A    
C10   H18   S    
C12   H20   S    
C19   H7    S    
O11   C43   S    
C38   H12   S    
C29   C39   A    
C30   C40   A    
C44   H32   S    
C9    C11   A    
C10   C12   A    
Cu1   O8    S    
C16   C18   A    
C12   C14   A    
C13   C15   A    
Cu2   O3    S    
C7    C34   S    
C14   C16   A    
C13   C26   S    
C15   H3    S    
Cu2   N2    S    
C24   O8    A    
Cu1   O5    S    
C29   H9    S    
C15   C17   A    
C21   C25   A    
C35   C37   A    
C9    N1    A    
C10   N2    A    
C24   C28   S    
C20   C22   A    
C11   H19   S    
C18   H6    S    
C42   H26   S    
Cu1   O1    S    
C5    H15   S    
C36   C38   A    
C37   C39   A    
C17   N1    A    
C30   C32   A    
C11   C13   A    
C36   O14   S    
C18   N2    A    
C30   H10   S    
Cu2   O7    S    
C1    O3    A    
C34   C36   A    
C8    C33   S    
C14   C25   S    
C42   H24   S    
C27   H1    S    
O12   C44   S    
C29   C31   A    
C22   C26   A    
C27   C28   D    
Cu2   O2    S    
Cu1   N1    S    
C44   H30   S    
