data_mof_unit_23275.cif
_audit_creation_date              2012-12-11T15:31:44-0500
_audit_creation_method            fapswitch 2.2
_symmetry_space_group_name_H-M    P1
_symmetry_Int_Tables_number       1
_space_group_crystal_system       triclinic
_cell_length_a                    6.944586
_cell_length_b                    14.805348
_cell_length_c                    21.321739
_cell_angle_alpha                 74.880526
_cell_angle_beta                  90.248928
_cell_angle_gamma                 90.7028
_cell_volume                      2116.19038455

loop_
_atom_site_label
_atom_site_type_symbol
_atom_type_description
_atom_site_fract_x
_atom_site_fract_y
_atom_site_fract_z
_atom_type_partial_charge
O1    O     O_R   0.648150 0.130050 0.214300 -0.541238
O2    O     O_R   0.351850 0.869950 0.785700 -0.541882
O3    O     O_R   0.320490 0.006660 0.340150 -0.534353
O4    O     O_R   0.679510 0.993340 0.659850 -0.537854
O5    O     O_R   0.146100 0.869940 0.285700 -0.528212
O6    O     O_R   0.853900 0.130060 0.714300 -0.534953
C1    C     C_R   0.488652 0.001886 0.367109 0.701061
C2    C     C_R   0.510880 0.998720 0.632803 0.701391
O7    O     O_R   0.318690 0.137980 0.218120 -0.544659
O8    O     O_R   0.681310 0.862020 0.781880 -0.543502
O9    O     O_R   0.144280 0.002190 0.162800 -0.544227
O10   O     O_R   0.855720 0.997810 0.837200 -0.543739
C3    C     C_R   0.488362 0.175451 0.205729 0.686078
C4    C     C_R   0.511640 0.824560 0.794311 0.687248
O11   O     O_R   0.649960 0.997790 0.337200 -0.533807
O12   O     O_R   0.350040 0.002210 0.662800 -0.531437
O13   O     O_3   0.479300 0.955290 0.231990 -0.375314
O14   O     O_3   0.520700 0.044710 0.768010 -0.375404
V1    V     V_3+5 0.206040 0.008290 0.253340 1.451349
V2    V     V_3+5 0.793960 0.991710 0.746660 1.448337
O15   O     O_R   0.814320 0.993320 0.159850 -0.547462
O16   O     O_R   0.185680 0.006680 0.840150 -0.547929
C5    C     C_R   0.982648 0.998357 0.132836 0.661367
C6    C     C_R   0.017355 0.001634 0.867166 0.662099
O17   O     O_R   0.816120 0.862000 0.281880 -0.541421
O18   O     O_R   0.183880 0.138000 0.718120 -0.536277
C7    C     C_R   0.984718 0.824465 0.293315 0.761051
C8    C     C_R   0.016452 0.175441 0.705923 0.761151
V3    V     V_3+5 0.705540 0.991700 0.246660 1.440169
V4    V     V_3+5 0.294460 0.008300 0.753340 1.445033
O19   O     O_3   0.982150 0.044700 0.268010 -0.366966
O20   O     O_3   0.017850 0.955300 0.731990 -0.366843
C9    C     C_R   0.996226 0.723586 0.322336 -0.108676
C10   C     C_R   0.016741 0.276473 0.676649 -0.110773
C11   C     C_R   0.056119 0.569978 0.307906 -0.151636
C12   C     C_R   0.095342 0.430288 0.688616 -0.147500
C13   C     C_R   0.034790 0.665581 0.281881 -0.201221
C14   C     C_R   0.071924 0.334950 0.715518 -0.193160
C15   C     C_R   0.982073 0.686124 0.390253 -0.053929
C16   C     C_R   0.985863 0.313471 0.609287 -0.058849
C17   C     C_R   0.026404 0.589881 0.417996 0.028561
C18   C     C_R   0.033746 0.409454 0.579843 0.027651
C19   C     C_R   0.051696 0.531655 0.375281 0.129916
C20   C     C_R   0.078468 0.467889 0.621476 0.132160
C21   C     C_R   0.048498 0.549012 0.486278 0.071619
C22   C     C_R   0.043464 0.449856 0.511045 0.069739
C23   C     C_R   0.071523 0.395334 0.466628 -0.125007
C24   C     C_R   0.097805 0.603190 0.529527 -0.118692
C25   C     C_R   0.077848 0.435717 0.400144 -0.191202
C26   C     C_R   0.113539 0.563223 0.595727 -0.184685
H1    H     H_    0.103135 0.391300 0.367897 0.119906
H2    H     H_    0.154265 0.607434 0.627046 0.117946
H3    H     H_    0.096236 0.306475 0.767122 0.106003
H4    H     H_    0.045777 0.694424 0.229780 0.106312
H5    H     H_    0.080464 0.526054 0.275273 0.119722
H6    H     H_    0.133355 0.474426 0.720213 0.112320
H7    H     H_    0.104062 0.321859 0.482394 0.131267
H8    H     H_    0.138344 0.676069 0.512594 0.133073
C27   C     C_3   0.919019 0.921361 0.991306 -0.138125
C28   C     C_3   0.080995 0.078614 0.008700 -0.138206
C29   C     C_3   0.094830 0.925460 0.035576 -0.143908
C30   C     C_3   0.905183 0.074514 0.964432 -0.144069
H9    H     H_    0.172949 0.863995 0.065306 0.099762
H10   H     H_    0.827050 0.135978 0.934709 0.101043
H11   H     H_    0.852099 0.856534 0.983707 0.098636
H12   H     H_    0.147915 0.143441 0.016299 0.098601
C31   C     C_3   0.990998 0.998891 0.062203 -0.000209
C32   C     C_3   0.009013 0.001085 0.937802 -0.000678
C33   C     C_3   0.814975 0.994799 0.018733 -0.118848
C34   C     C_3   0.185038 0.005175 0.981274 -0.118963
H13   H     H_    0.662196 0.990430 0.034471 0.105423
H14   H     H_    0.337817 0.009545 0.965534 0.105317
C35   C     C_3   0.629194 0.062646 0.467301 -0.156145
C36   C     C_3   0.366681 0.939033 0.532492 -0.124249
C37   C     C_3   0.457794 0.086368 0.506377 -0.117780
C38   C     C_3   0.537731 0.915271 0.493506 -0.145321
H15   H     H_    0.424168 0.156858 0.512182 0.149191
H16   H     H_    0.566186 0.844333 0.488180 0.165546
H17   H     H_    0.737403 0.113483 0.439934 0.114210
H18   H     H_    0.258231 0.888100 0.559617 0.108072
C39   C     C_3   0.502621 0.999627 0.562158 -0.010188
C40   C     C_3   0.494018 0.001854 0.437651 -0.010633
C41   C     C_3   0.673987 0.975856 0.523894 -0.149455
C42   C     C_3   0.322002 0.025644 0.475830 -0.104518
H19   H     H_    0.819483 0.955073 0.543910 0.116418
H20   H     H_    0.176368 0.046191 0.455836 0.115795
C43   C     C_R   0.500594 0.276557 0.177895 -0.030731
C44   C     C_R   0.499404 0.723470 0.822184 -0.030656
C45   C     C_R   0.552780 0.432057 0.190730 -0.165301
C46   C     C_R   0.448733 0.567900 0.809339 -0.161037
C47   C     C_R   0.535541 0.336058 0.217827 -0.178951
C48   C     C_R   0.465715 0.663893 0.782224 -0.174512
C49   C     C_R   0.483146 0.312893 0.110668 -0.214475
C50   C     C_R   0.515913 0.687204 0.889450 -0.215333
C51   C     C_R   0.501989 0.410236 0.081582 0.084980
C52   C     C_R   0.497445 0.589843 0.918536 0.084190
C53   C     C_R   0.537039 0.469484 0.123252 0.140406
C54   C     C_R   0.463261 0.530544 0.876847 0.141695
C55   C     C_R   0.488665 0.450488 0.012896 0.059785
C56   C     C_R   0.510584 0.549601 0.987227 0.060262
C57   C     C_R   0.544786 0.605087 0.031080 -0.192416
C58   C     C_R   0.454708 0.394987 0.969034 -0.192422
C59   C     C_R   0.557420 0.565647 0.097502 -0.207526
C60   C     C_R   0.442705 0.434391 0.902596 -0.205462
H21   H     H_    0.584247 0.611161 0.129124 0.121627
H22   H     H_    0.416289 0.388860 0.870955 0.120041
H23   H     H_    0.540959 0.737328 0.917303 0.089756
H24   H     H_    0.457075 0.262828 0.082840 0.089707
H25   H     H_    0.579898 0.477188 0.222572 0.121316
H26   H     H_    0.423172 0.522690 0.777477 0.113326
H27   H     H_    0.563242 0.679873 0.015880 0.117841
H28   H     H_    0.436357 0.320196 0.984226 0.117754
H29   H     H_    0.452174 0.691779 0.730123 0.104446
H30   H     H_    0.549938 0.308094 0.269893 0.107025
C61   C     C_2   0.888659 0.252967 0.572873 0.702867
O21   O     O_2   0.744090 0.280425 0.540970 -0.560053
O22   O     O_R   0.964457 0.165378 0.574380 -0.673291
H31   H     H_    0.888184 0.131610 0.546732 0.283419
C62   C     C_2   0.899612 0.745541 0.429540 0.691742
O23   O     O_2   0.766253 0.715431 0.466639 -0.566422
O24   O     O_R   0.977071 0.834658 0.425093 -0.668866
H32   H     H_    0.913575 0.867054 0.455791 0.278834

loop_
_geom_bond_atom_site_label_1
_geom_bond_atom_site_label_2
_ccdc_geom_bond_type
C29   C34   S    
C43   C47   A    
O13   V3    S    
C43   C49   A    
C58   H28   S    
O4    C2    A    
V1    O19   S    
C60   H22   S    
C23   C25   A    
C21   C22   A    
C7    C9    S    
O9    V1    S    
C9    C15   A    
C36   C38   S    
C10   C16   A    
C11   C13   A    
C42   H20   S    
O3    C1    A    
C49   H24   S    
C51   C55   A    
C37   C42   S    
C16   C61   S    
O12   V4    S    
C61   O21   D    
C45   H25   S    
C28   C30   S    
C18   C22   A    
C5    C31   S    
C33   H13   S    
O7    C3    A    
C30   H10   S    
O5    C7    A    
O7    V1    S    
O6    C8    A    
C44   C48   A    
C28   C31   S    
O8    V2    S    
C61   O22   S    
C52   C54   A    
C26   H2    S    
O3    V1    S    
O14   V4    S    
C45   C47   A    
C11   C19   A    
C48   H29   S    
C2    O12   A    
C24   C26   A    
C28   H12   S    
C57   C59   A    
C36   H18   S    
C17   C19   A    
C3    C43   S    
C18   C20   A    
C38   C41   S    
C39   C41   S    
O11   V3    S    
C62   O24   S    
O17   V3    S    
C44   C50   A    
C50   H23   S    
C27   C29   S    
C11   H5    S    
C2    C39   S    
C15   C17   A    
O8    C4    A    
C38   C40   S    
C37   C39   S    
C1    O11   A    
C25   H1    S    
O15   V3    S    
C9    C13   A    
C30   C33   S    
C45   C53   A    
C31   C33   S    
C58   C60   A    
C12   H6    S    
C27   C32   S    
C23   H7    S    
C29   C31   S    
C46   C48   A    
C55   C56   A    
C28   C34   S    
O10   V2    S    
O1    V3    S    
C35   H17   S    
C59   H21   S    
C46   C54   A    
C50   C52   A    
C37   H15   S    
O24   H32   S    
C53   C59   A    
C27   C33   S    
C13   H4    S    
C32   C34   S    
C41   H19   S    
O18   V4    S    
C40   C42   S    
O15   C5    A    
O16   C6    A    
C12   C20   A    
O1    C3    A    
C1    C40   S    
C35   C37   S    
C36   C39   S    
C35   C40   S    
V2    O20   S    
C21   C24   A    
C20   C26   A    
C36   C42   S    
C22   C23   A    
C17   C21   A    
O16   V4    S    
C10   C14   A    
C29   H9    S    
C19   C25   A    
C38   H16   S    
C16   C18   A    
C62   O23   D    
C51   C53   A    
C24   H8    S    
O5    V1    S    
O17   C7    A    
O6    V2    S    
O10   C6    A    
O18   C8    A    
C47   H30   S    
C30   C32   S    
O2    V4    S    
C12   C14   A    
C4    C44   S    
V3    O19   S    
O22   H31   S    
C27   H11   S    
V4    O20   S    
C14   H3    S    
C15   C62   S    
C57   H27   S    
C52   C56   A    
O9    C5    A    
C56   C57   A    
O13   V1    S    
C35   C41   S    
O14   V2    S    
O2    C4    A    
C6    C32   S    
C8    C10   S    
O4    V2    S    
C55   C58   A    
C49   C51   A    
C46   H26   S    
C34   H14   S    
C54   C60   A    
