data_mof_unit_11205.cif
_audit_creation_date              2012-12-10T19:44:28-0500
_audit_creation_method            fapswitch 2.2
_symmetry_space_group_name_H-M    P1
_symmetry_Int_Tables_number       1
_space_group_crystal_system       triclinic
_cell_length_a                    10.79191
_cell_length_b                    12.308645
_cell_length_c                    13.196565
_cell_angle_alpha                 116.676824
_cell_angle_beta                  77.094632
_cell_angle_gamma                 101.413908
_cell_volume                      1517.16699094

loop_
_atom_site_label
_atom_site_type_symbol
_atom_type_description
_atom_site_fract_x
_atom_site_fract_y
_atom_site_fract_z
_atom_type_partial_charge
C1    C     C_R   0.513935 0.854883 0.286554 0.767577
C2    C     C_R   0.624928 0.819747 0.783598 -0.121702
C3    C     C_R   0.038311 0.952280 0.564719 -0.250494
C4    C     C_R   0.129301 0.997712 0.495185 -0.085861
C5    C     C_R   0.091269 0.045119 0.428597 0.057831
C6    C     C_R   0.961822 0.047762 0.435103 -0.188636
C7    C     C_R   0.870837 0.002496 0.504784 -0.093971
C8    C     C_R   0.908963 0.955154 0.571356 0.000072
C9    C     C_R   0.199087 0.211498 0.366541 0.477341
C10   C     C_R   0.296031 0.250475 0.294366 -0.256469
C11   C     C_R   0.371582 0.166850 0.203389 -0.168695
C12   C     C_R   0.737144 0.001205 0.502241 0.785324
C13   C     C_R   0.352102 0.043780 0.183009 -0.114018
C14   C     C_R   0.258763 0.004234 0.255031 -0.194691
C15   C     C_R   0.183678 0.087733 0.348356 0.040353
C16   C     C_R   0.318095 0.280844 0.017458 -0.209198
C17   C     C_R   0.455416 0.227450 0.834581 -0.050565
C18   C     C_R   0.626169 0.811162 0.091106 -0.205178
C19   C     C_R   0.666616 0.728744 0.980302 -0.170860
C20   C     C_R   0.615238 0.606761 0.940764 -0.190748
C21   C     C_R   0.518669 0.564525 0.011545 0.085113
C22   C     C_R   0.471407 0.651072 0.122199 0.082030
C23   C     C_R   0.481428 0.144961 0.713384 0.793314
C24   C     C_R   0.467863 0.439410 0.976653 0.076560
C25   C     C_R   0.368131 0.404038 0.050389 0.170854
C26   C     C_R   0.316309 0.492232 0.154428 -0.250852
C27   C     C_R   0.364974 0.614184 0.188597 -0.207253
C28   C     C_R   0.511784 0.348107 0.869896 -0.256031
C29   C     C_R   0.361616 0.192692 0.909813 -0.210297
C30   C     C_R   0.531980 0.772768 0.163951 -0.102153
C31   C     C_R   0.706119 0.347517 0.329446 -0.315110
C32   C     C_R   0.325856 0.759128 0.645023 0.071148
C33   C     C_R   0.286571 0.661585 0.675399 -0.273227
C34   C     C_R   0.262911 0.998749 0.497621 0.793656
C35   C     C_R   0.351471 0.557878 0.620123 -0.168991
C36   C     C_R   0.457313 0.550574 0.533331 -0.025124
C37   C     C_R   0.493486 0.652671 0.504562 0.300387
C38   C     C_R   0.528839 0.446627 0.474476 -0.046349
C39   C     C_R   0.634051 0.447076 0.388271 0.171609
C40   C     C_R   0.667143 0.546895 0.361199 -0.298318
C41   C     C_R   0.598576 0.647237 0.417992 -0.166065
C42   C     C_R   0.501393 0.341540 0.497153 0.043512
C43   C     C_R   0.674206 0.247397 0.355921 0.070179
C44   C     C_R   0.640586 0.944049 0.808071 -0.115302
C45   C     C_R   0.736408 0.989487 0.741720 -0.098313
C46   C     C_R   0.816565 0.910227 0.649599 0.123914
C47   C     C_R   0.802851 0.786113 0.627853 -0.146275
C48   C     C_R   0.707113 0.741166 0.694670 -0.146853
Cu1   Cu    Cu3+1 0.529370 0.098270 0.475420 0.939259
Cu2   Cu    Cu3+1 0.470630 0.901730 0.524580 0.925553
H1    H     H_    0.549143 0.784344 0.833647 0.141465
H2    H     H_    0.445984 0.197744 0.148975 0.157614
H3    H     H_    0.410804 0.979217 0.112369 0.135521
H4    H     H_    0.246648 0.908843 0.239643 0.118058
H5    H     H_    0.316987 0.099160 0.883066 0.144712
H6    H     H_    0.236724 0.467031 0.209256 0.128105
H7    H     H_    0.242058 0.253454 0.073366 0.136239
H8    H     H_    0.587050 0.368162 0.809878 0.143041
H9    H     H_    0.673286 0.903968 0.121621 0.147401
H10   H     H_    0.653490 0.548844 0.854251 0.124976
H11   H     H_    0.741582 0.758806 0.925675 0.150698
H12   H     H_    0.577295 0.004875 0.877383 0.122019
H13   H     H_    0.316601 0.679292 0.267225 0.166173
H14   H     H_    0.729473 0.170214 0.310968 0.114667
H15   H     H_    0.747586 0.547823 0.295391 0.152236
H16   H     H_    0.786840 0.347300 0.263593 0.132388
H17   H     H_    0.423175 0.333103 0.560984 0.131911
H18   H     H_    0.274956 0.839287 0.688403 0.119693
H19   H     H_    0.316811 0.485119 0.647029 0.156656
H20   H     H_    0.205493 0.666349 0.741991 0.144276
H21   H     H_    0.632305 0.719001 0.391266 0.205771
H22   H     H_    0.745802 0.085481 0.759814 0.100719
H23   H     H_    0.863454 0.723623 0.557031 0.125917
H24   H     H_    0.695174 0.644994 0.676225 0.133619
H25   H     H_    0.068146 0.917674 0.616952 0.150801
H26   H     H_    0.931915 0.081862 0.382505 0.145744
H27   H     H_    0.315282 0.345778 0.309641 0.139023
N1    N     N_R   0.573890 0.246290 0.438210 -0.178087
N2    N     N_R   0.426890 0.754320 0.561170 -0.199552
O1    O     O_R   0.536940 0.972510 0.318130 -0.575402
O2    O     O_R   0.487330 0.806530 0.359650 -0.602867
O3    O     O_R   0.705160 0.082990 0.479250 -0.590384
O4    O     O_R   0.655550 0.917010 0.520760 -0.585178
O5    O     O_R   0.512670 0.193470 0.640350 -0.586294
O6    O     O_R   0.463060 0.027490 0.681870 -0.585484
O7    O     O_R   0.344450 0.082990 0.479240 -0.565239
O8    O     O_R   0.294840 0.917010 0.520750 -0.600392
O9    O     O_3   0.127121 0.293341 0.461660 -0.586249
C49   C     C_3   0.074371 0.369625 0.431973 0.040341
H28   H     H_    0.040958 0.318893 0.346752 0.118960
H29   H     H_    0.145999 0.448001 0.431492 0.155855
C50   C     C_3   0.959454 0.420573 0.521514 -0.774349
H30   H     H_    0.885666 0.344470 0.524151 0.255997
H31   H     H_    0.989322 0.474366 0.607488 0.245890
H32   H     H_    0.917352 0.481149 0.499515 0.195003

loop_
_geom_bond_atom_site_label_1
_geom_bond_atom_site_label_2
_ccdc_geom_bond_type
C31   H16   S    
C17   C29   A    
C19   C20   A    
Cu2   N2    S    
C7    C8    A    
C45   C46   A    
C43   N1    A    
C37   N2    A    
C26   C27   A    
C17   C23   S    
C31   C43   A    
Cu1   O5    S    
C36   C37   A    
C38   C42   A    
C9    O9    S    
C5    C6    A    
C1    O2    A    
Cu1   N1    S    
C18   C19   A    
C34   O7    A    
C50   H30   S    
C11   H2    S    
Cu2   O6    S    
C35   C36   A    
C2    C44   A    
Cu2   O4    S    
C18   C30   A    
C49   H29   S    
C3    H25   S    
C9    C10   A    
C32   H18   S    
C21   C22   A    
C45   H22   S    
C37   C41   A    
C10   H27   S    
C43   H14   S    
C13   H3    S    
C7    C12   S    
C4    C34   S    
C23   O5    A    
C48   H24   S    
C24   C25   A    
C47   H23   S    
C3    C8    A    
C2    H1    S    
C39   C40   A    
C29   H5    S    
C2    C48   A    
C16   C29   A    
C50   H32   S    
C12   O4    A    
Cu1   O3    S    
C34   O8    A    
C47   C48   A    
C50   H31   S    
C12   O3    A    
C20   C21   A    
C49   C50   S    
C27   H13   S    
Cu2   O8    S    
C33   H20   S    
C40   C41   A    
C14   H4    S    
C42   N1    A    
C22   C27   A    
C42   H17   S    
C20   H10   S    
C3    C4    A    
C44   C45   A    
C16   C25   A    
C46   C47   A    
C22   C30   A    
C17   C28   A    
Cu1   O7    S    
C24   C28   A    
C4    C5    A    
C26   H6    S    
C6    H26   S    
C6    C7    A    
C28   H8    S    
Cu1   O1    S    
C41   H21   S    
C40   H15   S    
C44   H12   S    
C32   C33   A    
C36   C38   A    
C25   C26   A    
C32   N2    A    
C11   C13   A    
C38   C39   A    
C19   H11   S    
C1    C30   S    
C33   C35   A    
C31   C39   A    
C16   H7    S    
C9    C15   A    
C8    C46   S    
C5    C15   S    
C10   C11   A    
C18   H9    S    
O9    C49   S    
C35   H19   S    
Cu1   Cu2   S    
C23   O6    A    
C21   C24   A    
C1    O1    A    
C14   C15   A    
C49   H28   S    
C13   C14   A    
Cu2   O2    S    
