data_mof_unit_26912.cif
_audit_creation_date              2012-12-11T14:40:53-0500
_audit_creation_method            fapswitch 2.2
_symmetry_space_group_name_H-M    P1
_symmetry_Int_Tables_number       1
_space_group_crystal_system       triclinic
_cell_length_a                    24.76493
_cell_length_b                    17.576579
_cell_length_c                    15.600435
_cell_angle_alpha                 90.048827
_cell_angle_beta                  129.889914
_cell_angle_gamma                 89.951106
_cell_volume                      5210.27623726

loop_
_atom_site_label
_atom_site_type_symbol
_atom_type_description
_atom_site_fract_x
_atom_site_fract_y
_atom_site_fract_z
_atom_type_partial_charge
C1    C     C_R   0.351819 0.358436 0.244520 -0.094910
C2    C     C_R   0.682353 0.624640 0.503292 0.031299
C3    C     C_3   0.588272 0.130831 0.463481 -0.827881
C4    C     C_3   0.150654 0.345700 0.586568 0.309955
C5    C     C_3   0.080165 0.312675 0.542620 -0.883978
C6    C     C_3   0.132449 0.697655 0.453171 0.313179
C7    C     C_3   0.095510 0.635172 0.465679 -0.894656
C8    C     C_R   0.182221 0.880046 0.499261 0.067199
C9    C     C_R   0.162037 0.161313 0.500591 -0.021153
C10   C     C_R   0.319178 0.382454 0.500490 0.067092
C11   C     C_R   0.355104 0.678486 0.500138 0.126698
C12   C     C_R   0.827036 0.863406 0.502825 0.113639
C13   C     C_R   0.850561 0.173669 0.499255 0.115938
C14   C     C_3   0.305716 0.245745 0.508835 0.188023
C15   C     C_3   0.350670 0.813083 0.552810 0.191681
C16   C     C_3   0.831830 0.767899 0.625283 0.109239
C17   C     C_R   0.334094 0.609313 0.198873 -0.113667
C18   C     C_3   0.845375 0.306804 0.551304 0.187040
C19   C     C_3   0.797755 0.693812 0.619329 0.262424
C20   C     C_3   0.796160 0.363177 0.548689 0.249306
C21   C     C_3   0.257892 0.183530 0.497199 0.228093
C22   C     C_3   0.302309 0.869561 0.552994 0.235242
C23   C     C_3   0.276962 0.341327 0.600511 -0.570256
C24   C     C_3   0.289176 0.700455 0.564951 -0.512279
C25   C     C_3   0.716805 0.829473 0.464447 -0.444351
C26   C     C_3   0.783694 0.192353 0.561184 -0.507441
C27   C     C_3   0.197896 0.332620 0.392340 -0.475446
C28   C     C_R   0.851613 0.858666 0.243456 -0.100252
C29   C     C_3   0.243646 0.751600 0.378561 -0.498333
C30   C     C_3   0.776112 0.736966 0.424202 -0.485681
C31   C     C_3   0.738436 0.244958 0.376025 -0.494155
C32   C     C_3   0.276029 0.326992 0.501538 0.157566
C33   C     C_3   0.311573 0.735459 0.500425 0.133444
C34   C     C_3   0.788607 0.801486 0.504787 0.154171
C35   C     C_3   0.806438 0.229017 0.498410 0.127961
C36   C     C_3   0.721778 0.687427 0.503531 0.011252
C37   C     C_3   0.724790 0.322723 0.496031 -0.026080
C38   C     C_3   0.201791 0.221539 0.498746 -0.006072
C39   C     C_R   0.844837 0.133151 0.225650 -0.105282
C40   C     C_3   0.229909 0.830706 0.498567 -0.027473
C41   C     C_3   0.681496 0.764767 0.479716 0.388792
C42   C     C_3   0.740951 0.249962 0.568206 0.400103
C43   C     C_3   0.240759 0.273144 0.606502 0.445348
C44   C     C_3   0.245577 0.758276 0.570625 0.388286
C45   C     C_R   0.666952 0.393984 0.802458 -0.050312
C46   C     C_R   0.666747 0.608910 0.800012 -0.099253
C47   C     C_R   0.149237 0.860491 0.755317 -0.077005
C48   C     C_R   0.167300 0.106570 0.801764 -0.056918
C49   C     C_3   0.727877 0.675385 0.411890 -0.295202
C50   C     C_R   0.645963 0.372710 0.862616 0.094217
C51   C     C_3   0.691318 0.300957 0.374221 -0.371690
C52   C     C_3   0.153553 0.271941 0.392091 -0.367617
C53   C     C_3   0.196970 0.808623 0.377003 -0.365815
C54   C     C_2   0.691696 0.343261 0.976746 -0.191371
C55   C     C_2   0.693153 0.657174 0.976955 -0.193059
C56   C     C_2   0.142626 0.747547 0.849611 -0.183583
C57   C     C_2   0.193449 0.155162 0.978502 -0.170554
C58   C     C_2   0.761524 0.342632 0.037534 -0.098908
C59   C     C_2   0.763163 0.656343 0.038727 -0.104036
C60   C     C_2   0.195292 0.709380 0.865854 -0.094229
C61   C     C_R   0.646725 0.628799 0.861965 0.127099
C62   C     C_2   0.263441 0.155577 0.039922 -0.095664
C63   C     C_2   0.307794 0.658164 0.022207 -0.206563
C64   C     C_2   0.359068 0.244375 0.152149 -0.213426
C65   C     C_2   0.848293 0.243579 0.126244 -0.189940
C66   C     C_2   0.859082 0.744736 0.151175 -0.195374
C67   C     C_2   0.237849 0.658289 0.961065 -0.102675
C68   C     C_2   0.305698 0.207114 0.134766 -0.072440
C69   C     C_2   0.802430 0.285728 0.124101 -0.106554
C70   C     C_2   0.805911 0.707294 0.134165 -0.097143
C71   C     C_R   0.612232 0.393428 0.406181 -0.219157
C72   C     C_R   0.117220 0.819301 0.787770 0.109873
C73   C     C_R   0.614891 0.605264 0.409235 -0.089625
C74   C     C_R   0.114249 0.897303 0.407129 -0.200039
C75   C     C_R   0.102680 0.127440 0.407078 -0.137174
C76   C     C_R   0.387030 0.399981 0.592826 -0.012132
C77   C     C_R   0.409598 0.638237 0.593670 -0.087777
C78   C     C_R   0.891401 0.890149 0.594288 -0.134485
C79   C     C_R   0.907341 0.136137 0.593478 -0.068624
C80   C     C_R   0.687444 0.392354 0.591850 0.497125
C81   C     C_R   0.688941 0.603227 0.594899 0.380146
C82   C     C_R   0.189701 0.899353 0.592110 0.428988
C83   C     C_R   0.147102 0.127103 0.863267 0.098123
C84   C     C_R   0.180112 0.123524 0.593686 0.497669
C85   C     C_R   0.312490 0.397984 0.407719 -0.180133
C86   C     C_R   0.334829 0.639237 0.406577 -0.166978
C87   C     C_R   0.815235 0.889097 0.408650 -0.168437
C88   C     C_R   0.830125 0.134311 0.406433 -0.169936
C89   C     C_R   0.575758 0.391190 0.799765 -0.077620
C90   C     C_R   0.577043 0.608140 0.801167 -0.101607
C91   C     C_R   0.059839 0.860851 0.758428 -0.131555
C92   C     C_R   0.077015 0.107824 0.801326 -0.091906
C93   C     C_R   0.442403 0.357467 0.243388 -0.135463
C94   C     C_R   0.678313 0.371578 0.498136 0.029354
C95   C     C_R   0.424509 0.610537 0.198851 -0.149174
C96   C     C_R   0.942678 0.857563 0.243543 -0.121560
C97   C     C_R   0.936483 0.135751 0.228514 -0.133139
C98   C     C_R   0.384450 0.316382 0.213457 0.142257
C99   C     C_R   0.354235 0.629828 0.137160 0.136119
C100  C     C_R   0.884519 0.816591 0.212862 0.134387
C101  C     C_R   0.875410 0.173144 0.190181 0.136920
C102  C     C_3   0.567630 0.808149 0.390383 0.260570
C103  C     C_3   0.495308 0.816275 0.276137 -0.836203
C104  C     C_3   0.626980 0.191523 0.451985 0.296788
Cl1   Cl    Cl    0.853337 0.614438 0.647256 -0.498049
Cl2   Cl    Cl    0.433566 0.804750 0.691800 -0.653681
Cl3   Cl    Cl    0.837366 0.832299 0.721614 -0.702560
Cl4   Cl    Cl    0.927154 0.299474 0.691868 -0.648815
Cl5   Cl    Cl    0.785304 0.449526 0.477457 -0.608500
Cl6   Cl    Cl    0.220461 0.127870 0.373451 -0.592577
Cl7   Cl    Cl    0.293527 0.957242 0.486588 -0.519632
Cl8   Cl    Cl    0.766267 0.392812 0.730900 -0.650228
Cl9   Cl    Cl    0.765822 0.573099 0.725941 -0.583690
Cl10  Cl    Cl    0.269036 0.917444 0.727337 -0.647131
Cl11  Cl    Cl    0.264971 0.110570 0.722466 -0.629649
Cl12  Cl    Cl    0.394393 0.229725 0.635955 -0.629371
H1    H     H_    0.304558 0.344609 0.231327 0.093997
H2    H     H_    0.328355 0.885428 0.640318 0.195130
H3    H     H_    0.132534 0.587459 0.515542 0.248042
H4    H     H_    0.795298 0.696782 0.687317 0.169496
H5    H     H_    0.821755 0.381376 0.634981 0.211391
H6    H     H_    0.331300 0.345715 0.681545 0.187826
H7    H     H_    0.335853 0.685106 0.651854 0.176126
H8    H     H_    0.722369 0.880892 0.511152 0.183575
H9    H     H_    0.830000 0.175134 0.647475 0.185628
H10   H     H_    0.686926 0.776997 0.555353 0.046320
H11   H     H_    0.778610 0.268666 0.656462 0.150592
H12   H     H_    0.286466 0.239370 0.675041 0.158041
H13   H     H_    0.281249 0.607101 0.170303 0.087339
H14   H     H_    0.281950 0.778099 0.658881 0.129037
H15   H     H_    0.751003 0.758761 0.339195 0.172671
H16   H     H_    0.707636 0.191718 0.335224 0.182192
H17   H     H_    0.176216 0.390166 0.384129 0.182579
H18   H     H_    0.212961 0.698287 0.337777 0.181647
H19   H     H_    0.193268 0.322622 0.317529 0.186666
H20   H     H_    0.257423 0.774576 0.328215 0.187446
H21   H     H_    0.827425 0.711358 0.457573 0.212830
H22   H     H_    0.752203 0.268261 0.325784 0.179226
H23   H     H_    0.748844 0.618019 0.417465 0.248493
H24   H     H_    0.803754 0.845075 0.228413 0.092129
H25   H     H_    0.684247 0.352076 0.325995 0.220435
H26   H     H_    0.127088 0.237996 0.314586 0.211008
H27   H     H_    0.190680 0.859907 0.329609 0.231687
H28   H     H_    0.675225 0.679876 0.327539 0.181220
H29   H     H_    0.637903 0.276465 0.325972 0.139253
H30   H     H_    0.109620 0.297631 0.383726 0.167129
H31   H     H_    0.143362 0.784573 0.328176 0.139018
H32   H     H_    0.251966 0.396813 0.589875 0.167002
H33   H     H_    0.260390 0.646259 0.525301 0.180007
H34   H     H_    0.683425 0.846180 0.374872 0.191776
H35   H     H_    0.792467 0.141199 0.196864 0.094040
H36   H     H_    0.753933 0.139026 0.518928 0.186945
H37   H     H_    0.720228 0.398660 0.835519 0.173937
H38   H     H_    0.719367 0.609691 0.828835 0.167541
H39   H     H_    0.195431 0.844669 0.767083 0.156920
H40   H     H_    0.220354 0.103158 0.832815 0.174623
H41   H     H_    0.213198 0.631397 0.990822 0.136304
H42   H     H_    0.285349 0.224248 0.176134 0.141817
H43   H     H_    0.786934 0.270435 0.173113 0.126704
H44   H     H_    0.785943 0.724082 0.176233 0.126550
H45   H     H_    0.786793 0.372140 0.010639 0.147033
H46   H     H_    0.307926 0.240082 0.440048 0.158921
H47   H     H_    0.787866 0.628621 0.009506 0.146333
H48   H     H_    0.215014 0.725439 0.823233 0.151060
H49   H     H_    0.288378 0.128616 0.010647 0.146482
H50   H     H_    0.331655 0.685788 0.991348 0.149497
H51   H     H_    0.378602 0.226851 0.109543 0.149317
H52   H     H_    0.863339 0.259147 0.076656 0.156767
H53   H     H_    0.878287 0.727565 0.107961 0.152564
H54   H     H_    0.667486 0.312913 0.005175 0.146690
H55   H     H_    0.669294 0.685302 0.007557 0.148162
H56   H     H_    0.123782 0.730978 0.893525 0.147832
H57   H     H_    0.363174 0.836307 0.500991 0.157950
H58   H     H_    0.169413 0.182733 0.009165 0.156206
H59   H     H_    0.589631 0.394135 0.319616 0.126957
H60   H     H_    0.591613 0.610877 0.322612 0.133466
H61   H     H_    0.091452 0.897781 0.320452 0.135459
H62   H     H_    0.080770 0.133464 0.321550 0.151583
H63   H     H_    0.410951 0.398368 0.679947 0.101882
H64   H     H_    0.435516 0.649135 0.680319 0.146386
H65   H     H_    0.915708 0.888679 0.681253 0.166777
H66   H     H_    0.932949 0.146525 0.680125 0.150132
H67   H     H_    0.265455 0.397247 0.321041 0.104573
H68   H     H_    0.886822 0.755982 0.660670 0.148842
H69   H     H_    0.292358 0.651349 0.319613 0.105671
H70   H     H_    0.767228 0.885548 0.322835 0.102554
H71   H     H_    0.783183 0.140692 0.321118 0.099762
H72   H     H_    0.545639 0.391045 0.827934 0.105113
H73   H     H_    0.548656 0.606199 0.832301 0.099977
H74   H     H_    0.024981 0.845053 0.774449 0.117730
H75   H     H_    0.048209 0.106398 0.831754 0.116566
H76   H     H_    0.478274 0.340951 0.229533 0.095921
H77   H     H_    0.453754 0.610007 0.169132 0.110235
H78   H     H_    0.978985 0.841136 0.230511 0.100400
H79   H     H_    0.859066 0.329810 0.500944 0.157424
H80   H     H_    0.968839 0.149247 0.206938 0.103903
H81   H     H_    0.590795 0.866155 0.420036 0.098674
H82   H     H_    0.561413 0.782794 0.448956 0.111310
H83   H     H_    0.469981 0.759747 0.244412 0.253367
H84   H     H_    0.461639 0.853387 0.282368 0.218748
H85   H     H_    0.500197 0.842059 0.216419 0.259985
H86   H     H_    0.642222 0.165865 0.405283 0.082700
H87   H     H_    0.589571 0.238997 0.403037 0.102531
H88   H     H_    0.570265 0.154556 0.507427 0.273628
H89   H     H_    0.541699 0.110820 0.379417 0.205676
H90   H     H_    0.289433 0.142575 0.567745 0.206266
H91   H     H_    0.623709 0.081727 0.511674 0.254432
H92   H     H_    0.144627 0.372983 0.517099 0.069831
H93   H     H_    0.164884 0.391858 0.646497 0.124917
H94   H     H_    0.084488 0.288683 0.612670 0.277523
H95   H     H_    0.039459 0.358017 0.501180 0.226102
H96   H     H_    0.063562 0.266887 0.481084 0.239989
H97   H     H_    0.148951 0.673048 0.407720 0.086501
H98   H     H_    0.093535 0.743626 0.402412 0.100817
H99   H     H_    0.076307 0.657827 0.508391 0.268775
H100  H     H_    0.049905 0.613497 0.382008 0.214521
N1    N     N_R   0.389430 0.421450 0.294590 -0.048414
N2    N     N_R   0.581780 0.577610 0.443390 -0.077749
N3    N     N_R   0.081780 0.922390 0.443390 -0.070311
N4    N     N_R   0.081780 0.077610 0.443390 -0.072698
N5    N     N_R   0.419850 0.423100 0.556610 -0.043516
N6    N     N_R   0.419850 0.576900 0.556610 -0.061020
N7    N     N_R   0.919850 0.923100 0.556610 -0.050311
N8    N     N_R   0.919850 0.076900 0.556610 -0.054575
N9    N     N_R   0.627410 0.423100 0.556610 -0.078353
N10   N     N_R   0.627410 0.576900 0.556610 -0.088131
N11   N     N_R   0.127410 0.923100 0.556610 -0.083947
N12   N     N_R   0.389430 0.578550 0.294590 -0.044919
N13   N     N_R   0.127410 0.076900 0.556610 -0.085736
N14   N     N_R   0.374220 0.422390 0.443390 -0.036655
N15   N     N_R   0.374220 0.577610 0.443390 -0.043013
N16   N     N_R   0.874220 0.922390 0.443390 -0.040146
N17   N     N_R   0.874220 0.077610 0.443390 -0.040604
N18   N     N_R   0.555000 0.424040 0.705410 -0.054782
N19   N     N_R   0.555000 0.575960 0.705410 -0.056025
N20   N     N_R   0.055000 0.924040 0.705410 -0.053916
N21   N     N_R   0.055000 0.075960 0.705410 -0.058719
N22   N     N_R   0.446630 0.421450 0.294590 -0.043221
N23   N     N_R   0.889430 0.921450 0.294590 -0.049298
N24   N     N_R   0.446630 0.578550 0.294590 -0.041856
N25   N     N_R   0.946630 0.921450 0.294590 -0.044678
N26   N     N_R   0.946630 0.078550 0.294590 -0.045147
N27   N     N_R   0.889430 0.078550 0.294590 -0.047169
N28   N     N_R   0.612200 0.424040 0.705410 -0.048275
N29   N     N_R   0.612200 0.575960 0.705410 -0.048842
N30   N     N_R   0.112200 0.924040 0.705410 -0.045456
N31   N     N_R   0.112200 0.075960 0.705410 -0.055285
N32   N     N_R   0.581780 0.422390 0.443390 -0.067920
Ni1   Ni    Ni4+2 0.382890 0.500000 0.370170 0.214819
Ni2   Ni    Ni4+2 0.882890 0.000000 0.370170 0.220216
Ni3   Ni    Ni4+2 0.618740 0.500000 0.629830 0.301313
Ni4   Ni    Ni4+2 0.118740 0.000000 0.629830 0.305415
Ni5   Ni    Ni4+2 0.514090 0.500000 0.370170 0.214006
Ni6   Ni    Ni4+2 0.014090 0.000000 0.370170 0.233962
Ni7   Ni    Ni4+2 0.487550 0.500000 0.629830 0.207656
Ni8   Ni    Ni4+2 0.987550 0.000000 0.629830 0.220609
O1    O     O_3   0.609734 0.760124 0.381658 -0.630698
O2    O     O_3   0.684757 0.217693 0.559628 -0.605026
O3    O     O_3   0.203051 0.288691 0.645271 -0.615946
O4    O     O_3   0.188753 0.726016 0.560311 -0.627710

loop_
_geom_bond_atom_site_label_1
_geom_bond_atom_site_label_2
_ccdc_geom_bond_type
C3    C104  S    
C89   N18   A    
N5    Ni7   S    
C10   C85   A    
N28   Ni3   S    
C55   C59   D    
C9    C84   A    
C54   H54   S    
C66   H53   S    
C28   H24   S    
C65   C101  S    
C76   H63   S    
C69   H43   S    
C13   C79   A    
C21   Cl6   S    
C79   N8    A    
C71   C94   A    
N30   Ni4   S    
N31   Ni4   S    
C61   C90   A    
C5    H94   S    
C6    H97   S    
C65   H52   S    
C26   C42   S    
N24   Ni5   S    
C50   C54   S    
N21   Ni8   S    
C29   C53   S    
N4    N13   A    
C23   H32   S    
C8    C82   A    
C86   N15   A    
C64   C68   D    
C14   C21   S    
N3    Ni6   S    
C13   C35   S    
C64   H51   S    
C19   C36   S    
C102  H82   S    
C28   N23   A    
C27   C52   S    
C37   C51   S    
C17   N12   A    
C95   C99   A    
C38   C52   S    
C51   H29   S    
C11   C86   A    
C44   H14   S    
C30   H15   S    
C49   H28   S    
C29   C33   S    
C53   H31   S    
C23   C43   S    
N21   N31   A    
C6    O4    S    
C66   C100  S    
C37   C42   S    
C75   H62   S    
C3    H91   S    
C63   C99   S    
C11   C77   A    
C16   Cl3   S    
C16   C34   S    
C97   N26   A    
N16   Ni2   S    
C10   C76   A    
N7    Ni8   S    
C14   Cl12  S    
C15   C22   S    
C21   C38   S    
C60   C67   S    
C56   C72   S    
C12   C78   A    
C74   N3    A    
C37   C94   S    
C57   C83   S    
C39   C101  A    
C80   N9    A    
C87   H70   S    
N14   Ni1   S    
C18   C35   S    
C83   C92   A    
C18   C20   S    
C7    H100  S    
C92   H75   S    
C25   C34   S    
C95   N24   A    
C28   C100  A    
N9    N32   A    
C96   H78   S    
C29   H18   S    
N29   Ni3   S    
C85   H67   S    
C30   H21   S    
N1    N22   A    
C56   H56   S    
N23   Ni2   S    
C3    H88   S    
C16   H68   S    
C36   C41   S    
N1    Ni1   S    
C71   N32   A    
C68   H42   S    
C55   H55   S    
N17   Ni2   S    
C4    H92   S    
C23   H6    S    
C39   N27   A    
N2    N10   A    
C51   H25   S    
N10   Ni3   S    
C5    H95   S    
C91   H74   S    
C63   C67   D    
C92   N21   A    
C77   H64   S    
C81   N10   A    
C30   C34   S    
C46   C61   A    
C17   H13   S    
C3    H89   S    
C104  H87   S    
C7    H3    S    
C43   O3    S    
C11   C33   S    
C82   Cl10  S    
N23   N25   A    
C102  H81   S    
C25   C41   S    
C72   C91   A    
C15   H57   S    
N32   Ni5   S    
C104  O2    S    
N22   Ni5   S    
C57   C62   D    
N6    Ni7   S    
C91   N20   A    
C24   H7    S    
C52   H26   S    
C4    H93   S    
C56   C60   D    
N4    Ni6   S    
C25   H34   S    
C53   H27   S    
C26   H9    S    
C27   H17   S    
C21   H90   S    
C14   H46   S    
N8    N17   A    
C103  H85   S    
C31   H16   S    
C88   N17   A    
N20   N30   A    
C44   O4    S    
C77   N6    A    
C50   C89   A    
C6    H98   S    
C97   C101  A    
C93   N22   A    
C22   C40   S    
C80   Cl8   S    
C8    C74   A    
N26   N27   A    
N9    Ni3   S    
C67   H41   S    
C103  H83   S    
N20   Ni8   S    
C31   H22   S    
C41   O1    S    
C84   N13   A    
C17   C99   A    
C45   N28   A    
C20   H5    S    
C2    C73   A    
C42   H11   S    
C63   H50   S    
C19   Cl1   S    
C46   H38   S    
C88   H71   S    
C30   C49   S    
N27   Ni2   S    
N6    N15   A    
C22   Cl7   S    
C84   Cl11  S    
C49   H23   S    
C24   C44   S    
C89   H72   S    
C31   C35   S    
C45   H37   S    
C62   H49   S    
C80   C94   A    
N15   Ni1   S    
N5    N14   A    
N7    N16   A    
N8    Ni8   S    
N12   Ni1   S    
C54   C58   D    
C93   H76   S    
C2    C36   S    
C22   H2    S    
C5    H96   S    
C52   H30   S    
C12   C87   A    
C18   H79   S    
C41   H10   S    
C85   N14   A    
C46   N29   A    
C31   C51   S    
C4    C5    S    
C15   C33   S    
N18   N28   A    
C43   H12   S    
C19   H4    S    
C97   H80   S    
C102  O1    S    
C58   C69   S    
N12   N24   A    
C6    C7    S    
C76   N5    A    
C4    O3    S    
C9    C75   A    
C82   N11   A    
C78   N7    A    
C24   C33   S    
C48   C83   A    
C62   C68   S    
C78   H65   S    
C27   H19   S    
C23   C32   S    
C93   C98   A    
C73   H60   S    
C26   H36   S    
C1    C98   A    
C15   Cl2   S    
C38   C43   S    
C42   O2    S    
C79   H66   S    
N13   Ni4   S    
C48   N31   A    
C45   C50   A    
C20   C37   S    
C39   H35   S    
C66   C70   D    
C74   H61   S    
C47   H39   S    
C75   N4    A    
C16   C19   S    
C65   C69   D    
C55   C61   S    
C13   C88   A    
C64   C98   S    
C9    C38   S    
C60   H48   S    
N2    Ni5   S    
C71   H59   S    
C73   N2    A    
C70   H44   S    
C103  H84   S    
C96   C100  A    
C102  C103  S    
C48   H40   S    
C25   H8    S    
C18   Cl4   S    
C96   N25   A    
N26   Ni6   S    
C59   H47   S    
C24   H33   S    
C27   C32   S    
C59   C70   S    
N19   Ni7   S    
C20   Cl5   S    
C10   C32   S    
C26   C35   S    
C40   C44   S    
C29   H20   S    
C14   C32   S    
C47   C72   A    
C86   H69   S    
C95   H77   S    
C40   C53   S    
C81   Cl9   S    
C90   N19   A    
N11   Ni4   S    
C2    C81   A    
C1    N1    A    
N25   Ni6   S    
C8    C40   S    
N3    N11   A    
C1    H1    S    
C58   H45   S    
C12   C34   S    
N18   Ni7   S    
N19   N29   A    
C47   N30   A    
C7    H99   S    
C36   C49   S    
C87   N16   A    
C104  H86   S    
C57   H58   S    
C90   H73   S    
