data_mof_unit_12749.cif
_audit_creation_date              2013-03-05T15:49:32-0500
_audit_creation_method            fapswitch 2.2
_symmetry_space_group_name_H-M    P1
_symmetry_Int_Tables_number       1
_space_group_crystal_system       triclinic
_cell_length_a                    25.146411
_cell_length_b                    7.225163
_cell_length_c                    21.961992
_cell_angle_alpha                 89.778226
_cell_angle_beta                  110.06852
_cell_angle_gamma                 89.887277
_cell_volume                      3747.88183383

loop_
_atom_site_label
_atom_site_type_symbol
_atom_site_description
_atom_site_fract_x
_atom_site_fract_y
_atom_site_fract_z
_atom_type_partial_charge
O1    O     O_R   0.554350 0.505270 0.581390 -0.576737
O2    O     O_R   0.445650 0.005270 0.418610 -0.558500
O3    O     O_R   0.553380 0.177580 0.454800 -0.573819
O4    O     O_R   0.446620 0.677580 0.545200 -0.597666
C1    C     C_R   0.565353 0.344938 0.437283 0.955526
C2    C     C_R   0.434358 0.845204 0.562375 0.975710
O5    O     O_R   0.560970 0.175640 0.583140 -0.557194
O6    O     O_R   0.439030 0.675640 0.416860 -0.590884
O7    O     O_R   0.453290 0.004120 0.547860 -0.602706
O8    O     O_R   0.546710 0.504120 0.452140 -0.620099
C3    C     C_R   0.576733 0.343685 0.607407 0.992873
C4    C     C_R   0.423612 0.845232 0.392465 1.015470
O9    O     O_3   0.464660 0.338800 0.488280 -0.297130
O10   O     O_3   0.535340 0.838800 0.511720 -0.286875
V1    V     V_3+5 0.506560 0.064420 0.502170 1.220189
V2    V     V_3+5 0.493440 0.564420 0.497830 1.183257
C5    C     C_R   0.140881 0.940576 0.289172 0.407515
C6    C     C_R   0.857497 0.481076 0.711057 0.407778
H1    H     H_    0.057096 0.967444 0.218937 0.144583
H2    H     H_    0.941607 0.495030 0.781200 0.144800
C7    C     C_R   0.119078 0.939523 0.172905 -0.163546
C8    C     C_R   0.880377 0.446043 0.827071 -0.165564
C9    C     C_R   0.395036 0.868269 0.273053 0.281168
C10   C     C_R   0.608199 0.318856 0.727120 0.293251
C11   C     C_R   0.356063 0.909915 0.212367 -0.195528
C12   C     C_R   0.645101 0.367742 0.788172 -0.204240
C13   C     C_R   0.299681 0.948976 0.203607 0.259500
C14   C     C_R   0.699427 0.432660 0.797088 0.262385
C15   C     C_R   0.278365 0.917689 0.255153 -0.051808
C16   C     C_R   0.720914 0.424542 0.745004 -0.053792
C17   C     C_R   0.318567 0.886725 0.319113 0.038096
C18   C     C_R   0.680978 0.402914 0.680577 0.039675
C19   C     C_R   0.218704 0.922130 0.245261 0.078880
C20   C     C_R   0.780395 0.439126 0.755012 0.081047
C21   C     C_R   0.200228 0.930561 0.299746 -0.173749
C22   C     C_R   0.798307 0.468101 0.700782 -0.170671
C23   C     C_R   0.241201 0.928393 0.362894 0.322847
C24   C     C_R   0.756887 0.482608 0.638043 0.322627
C25   C     C_R   0.298705 0.893521 0.372328 -0.119797
C26   C     C_R   0.699893 0.436928 0.627648 -0.117171
C27   C     C_R   0.176515 0.912112 0.182410 -0.073672
C28   C     C_R   0.822931 0.417113 0.817372 -0.078839
C29   C     C_R   0.101873 0.955323 0.226289 -0.274834
C30   C     C_R   0.896957 0.479605 0.773939 -0.272467
C31   C     C_R   0.377793 0.861140 0.327733 -0.319081
C32   C     C_R   0.623278 0.352058 0.671880 -0.307206
H3    H     H_    0.187091 0.880136 0.139995 0.151670
H4    H     H_    0.812570 0.375233 0.859153 0.151236
H5    H     H_    0.371424 0.931682 0.172437 0.219423
H6    H     H_    0.630348 0.361946 0.829045 0.222116
C33   C     C_R   0.098252 0.789419 0.856755 -0.145159
C34   C     C_R   0.902015 0.288007 0.143570 -0.145249
H7    H     H_    0.065583 0.686938 0.851598 0.150542
H8    H     H_    0.934698 0.185003 0.148739 0.150598
C35   C     C_R   0.132515 0.772113 0.818416 0.073842
C36   C     C_R   0.867806 0.270523 0.181995 0.072487
C37   C     C_R   0.175366 0.903086 0.823244 -0.091912
C38   C     C_R   0.824974 0.402203 0.177121 -0.091493
C39   C     C_R   0.182067 0.054153 0.866565 0.212472
C40   C     C_R   0.818134 0.554019 0.133654 0.211892
C41   C     C_R   0.147412 0.069465 0.905497 0.231197
C42   C     C_R   0.852661 0.569337 0.094585 0.232903
C43   C     C_R   0.105001 0.935814 0.900574 -0.313511
C44   C     C_R   0.895137 0.435237 0.099595 -0.312839
N1    N     N_R   0.269135 0.930281 0.809755 0.009667
N2    N     N_R   0.730908 0.426538 0.189803 0.010475
N3    N     N_R   0.302912 0.918137 0.774593 0.003801
N4    N     N_R   0.697006 0.414543 0.224814 0.004218
C45   C     C_R   0.283140 0.851947 0.713127 0.245107
C46   C     C_R   0.716957 0.351494 0.286915 0.243152
N5    N     N_R   0.228430 0.795629 0.688530 -0.019858
N6    N     N_R   0.771990 0.297465 0.312241 -0.023631
N7    N     N_R   0.194518 0.809316 0.723624 -0.034256
N8    N     N_R   0.806021 0.310797 0.277256 -0.035758
C47   C     C_R   0.213891 0.879295 0.784759 0.259283
C48   C     C_R   0.786432 0.378136 0.215523 0.260250
C49   C     C_R   0.328236 0.695780 0.641983 -0.017528
C50   C     C_R   0.674316 0.198139 0.361316 -0.037565
H9    H     H_    0.307155 0.569017 0.646590 0.198864
H10   H     H_    0.697672 0.073455 0.359635 0.191028
C51   C     C_R   0.365714 0.694276 0.607403 -0.111565
C52   C     C_R   0.636971 0.196430 0.396112 -0.072672
H11   H     H_    0.372141 0.565190 0.586162 0.147655
H12   H     H_    0.633190 0.069851 0.420790 0.143278
C53   C     C_R   0.393766 0.856125 0.599317 -0.229235
C54   C     C_R   0.605410 0.354828 0.399674 -0.226407
C55   C     C_R   0.381182 0.024251 0.625938 -0.030584
C56   C     C_R   0.613461 0.518977 0.367443 -0.071115
C57   C     C_R   0.345762 0.022538 0.663902 0.394062
C58   C     C_R   0.650170 0.518736 0.331039 0.394215
C59   C     C_R   0.319285 0.857035 0.672164 -0.109106
C60   C     C_R   0.680394 0.356626 0.327450 -0.100238
O11   O     O_R   0.953220 0.285790 0.047790 -0.588271
O12   O     O_R   0.046780 0.785790 0.952210 -0.587953
O13   O     O_R   0.939020 0.617570 0.916840 -0.568032
O14   O     O_R   0.060980 0.117570 0.083160 -0.566109
C61   C     C_R   0.923780 0.449187 0.892626 0.950156
C62   C     C_R   0.075992 0.948048 0.107393 0.950450
O15   O     O_R   0.946600 0.615450 0.045180 -0.568109
O16   O     O_R   0.053400 0.115450 0.954820 -0.567780
O17   O     O_R   0.054370 0.786770 0.081410 -0.592310
O18   O     O_R   0.945630 0.286770 0.918590 -0.591629
C63   C     C_R   0.933944 0.446791 0.061216 0.989543
C64   C     C_R   0.066088 0.946941 0.938831 0.989562
O19   O     O_3   0.035300 0.454160 0.011680 -0.265495
O20   O     O_3   0.964700 0.954160 0.988320 -0.266608
V3    V     V_3+5 0.993450 0.728620 0.997830 1.260253
V4    V     V_3+5 0.006550 0.228620 0.002170 1.260917
N9    N     N_3   0.124052 0.618070 0.775245 -0.167612
H13   H     H_    0.128035 0.496362 0.802345 0.183725
H14   H     H_    0.082529 0.624590 0.742534 0.147644
N10   N     N_3   0.876218 0.115510 0.225223 -0.168132
H15   H     H_    0.872092 0.994410 0.198131 0.183228
H16   H     H_    0.917773 0.120441 0.257862 0.147813
N11   N     N_R   0.223865 0.193654 0.871151 0.255040
O21   O     O_R   0.223154 0.285575 0.819803 -0.363953
O22   O     O_R   0.261607 0.233414 0.927010 -0.254110
N12   N     N_R   0.776340 0.694250 0.129088 0.254766
O23   O     O_R   0.776729 0.783669 0.180563 -0.363898
O24   O     O_R   0.738855 0.736955 0.073171 -0.252324
N13   N     N_R   0.155967 0.220436 0.950171 0.269690
O25   O     O_R   0.155162 0.390394 0.930110 -0.366574
O26   O     O_R   0.166174 0.188176 0.011448 -0.300740
N14   N     N_R   0.843854 0.720617 0.049579 0.269446
O27   O     O_R   0.845632 0.890607 0.069530 -0.366881
O28   O     O_R   0.832666 0.688682 0.988205 -0.301306
N15   N     N_3   0.400483 0.201136 0.612398 -0.172944
H17   H     H_    0.444546 0.205664 0.630586 0.213652
H18   H     H_    0.385274 0.224571 0.562362 0.122034
N16   N     N_3   0.585875 0.689660 0.371447 -0.139212
H19   H     H_    0.542304 0.667311 0.355427 0.206556
H20   H     H_    0.600362 0.735260 0.419440 0.134919
N17   N     N_R   0.335329 0.192065 0.692112 0.224936
O29   O     O_R   0.283892 0.241482 0.685762 -0.378829
O30   O     O_R   0.377280 0.298662 0.723768 -0.334861
N18   N     N_R   0.658275 0.686739 0.299895 0.228140
O31   O     O_R   0.709105 0.744268 0.307232 -0.380056
O32   O     O_R   0.614988 0.785835 0.265689 -0.307484
N19   N     N_R   0.225964 0.977260 0.418152 0.247164
O33   O     O_R   0.208968 0.144817 0.423275 -0.325962
O34   O     O_R   0.233629 0.860946 0.465829 -0.346630
N20   N     N_R   0.771176 0.558046 0.584976 0.247204
O35   O     O_R   0.789299 0.727474 0.587902 -0.331738
O36   O     O_R   0.762825 0.463264 0.532248 -0.349640
N21   N     N_R   0.118480 0.919541 0.340648 0.260199
O37   O     O_R   0.125746 0.763438 0.372237 -0.297991
O38   O     O_R   0.080318 0.035117 0.345293 -0.326187
N22   N     N_R   0.879245 0.478667 0.658655 0.260888
O39   O     O_R   0.870087 0.335055 0.620925 -0.296072
O40   O     O_R   0.918239 0.595972 0.657971 -0.330182
N23   N     N_R   0.453572 0.855388 0.279149 0.220270
O41   O     O_R   0.468002 0.756708 0.237826 -0.328923
O42   O     O_R   0.489457 0.974996 0.314598 -0.401066
N24   N     N_R   0.554064 0.243372 0.721577 0.223899
O43   O     O_R   0.524313 0.317709 0.753319 -0.330995
O44   O     O_R   0.540609 0.079415 0.696905 -0.393075
N25   N     N_R   0.268314 0.050970 0.146193 0.241314
O45   O     O_R   0.273389 0.009667 0.090803 -0.305449
O46   O     O_R   0.243025 0.204537 0.151258 -0.337204
N26   N     N_R   0.728417 0.530201 0.856028 0.244504
O47   O     O_R   0.723614 0.476757 0.910568 -0.307759
O48   O     O_R   0.751994 0.688918 0.853503 -0.328281
N27   N     N_3   0.337458 0.875167 0.437248 -0.217400
H21   H     H_    0.335233 0.993967 0.463319 0.131349
H22   H     H_    0.326219 0.759199 0.458649 0.150864
N28   N     N_3   0.660886 0.431215 0.562560 -0.211701
H23   H     H_    0.673727 0.326861 0.537795 0.140056
H24   H     H_    0.660954 0.558838 0.539964 0.147929

loop_
_geom_bond_atom_site_label_1
_geom_bond_atom_site_label_2
_geom_bond_distance
_ccdc_geom_bond_type
O17   V3    1.992823 S    
C44   C63   1.494647 S    
O15   C63   1.336189 A    
N25   O45   1.301688 A    
C9    C31   1.410580 A    
C13   C15   1.426506 A    
N7    C47   1.361257 A    
N2    N4    1.332370 A    
N27   H21   1.045617 S    
O1    C3    1.333352 A    
C56   N16   1.431459 S    
O2    C4    1.327826 A    
O11   C63   1.331767 A    
C2    O7    1.322912 A    
C55   N15   1.433832 S    
N21   O37   1.301118 A    
C38   C48   1.497092 S    
O5    C3    1.333133 A    
C2    C53   1.508272 S    
N8    C48   1.361295 A    
C26   N28   1.430222 S    
C41   N13   1.436332 S    
N27   H22   1.044923 S    
N22   O40   1.301299 A    
C6    N22   1.433834 S    
C12   H6    1.083259 S    
O11   V4    1.973829 S    
C54   C56   1.428800 A    
C37   C39   1.422549 A    
O20   V3    1.763766 S    
C38   C40   1.422168 A    
N11   O21   1.301329 A    
C15   C19   1.440509 A    
C14   N26   1.437077 S    
C40   C42   1.418875 A    
C39   C41   1.419322 A    
N17   O30   1.301308 A    
C45   N5    1.357938 A    
N12   O23   1.301378 A    
C42   C44   1.416382 A    
N21   O38   1.301273 A    
C7    C29   1.386969 A    
C55   C57   1.413590 A    
O16   C64   1.336451 A    
C8    C30   1.387930 A    
C34   H8    1.084017 S    
C20   C28   1.427354 A    
N11   O22   1.301158 A    
O14   C62   1.334613 A    
N23   O41   1.301397 A    
O18   V4    1.988553 S    
C57   C59   1.410851 A    
N24   O44   1.300812 A    
C61   O18   1.334681 A    
O5    V1    2.006390 S    
O14   V4    1.998694 S    
O12   C64   1.332383 A    
O6    V2    1.998706 S    
C8    C61   1.478683 S    
C35   N9    1.433034 S    
N28   H24   1.045742 S    
C24   N20   1.437954 S    
N28   H23   1.044665 S    
C42   N14   1.435671 S    
N10   H15   1.045173 S    
C51   H11   1.080803 S    
C10   N24   1.433570 S    
C11   H5    1.083775 S    
C53   C55   1.431263 A    
C23   C25   1.410658 A    
O19   V4    1.767883 S    
O12   V3    1.973310 S    
O16   V4    1.995368 S    
C57   N17   1.438433 S    
C16   C20   1.439391 A    
C33   C43   1.403637 A    
N22   O39   1.301141 A    
N6    N8    1.335285 A    
C34   C44   1.403892 A    
N5    N7    1.335042 A    
C43   C64   1.494773 S    
H1    C29   1.084579 S    
C33   C35   1.401874 A    
N1    N3    1.332609 A    
C52   C54   1.409071 A    
C33   H7    1.084029 S    
N26   O48   1.301685 A    
O4    V2    1.995076 S    
N16   H20   1.044914 S    
N15   H18   1.045174 S    
C6    C30   1.396892 A    
C58   N18   1.439800 S    
C50   C52   1.399452 A    
C58   C60   1.412111 A    
C49   C51   1.398664 A    
O6    C4    1.337639 A    
N2    C48   1.358727 A    
C41   C43   1.416786 A    
C27   H3    1.078536 S    
C49   H9    1.080787 S    
O1    V2    1.989653 S    
C28   H4    1.078736 S    
C40   N12   1.436612 S    
O2    V1    1.993995 S    
N24   O43   1.301300 A    
O13   V3    2.006369 S    
C7    C27   1.400203 A    
C1    C54   1.507571 S    
O4    C2    1.336426 A    
C56   C58   1.413429 A    
H2    C30   1.084542 S    
C52   H12   1.082158 S    
C35   C37   1.412170 A    
C17   C31   1.446796 A    
N17   O29   1.301533 A    
N20   O36   1.301492 A    
C11   C13   1.391995 A    
C25   N27   1.429872 S    
N15   H17   1.041573 S    
C18   C26   1.419700 A    
O3    V1    1.993673 S    
N18   O32   1.301324 A    
N14   O28   1.300645 A    
C9    N23   1.434356 S    
O13   C61   1.332947 A    
C49   C59   1.398150 A    
C21   C23   1.415739 A    
O10   V1    1.764553 S    
C18   C32   1.445401 A    
C46   C60   1.483596 S    
C10   C12   1.390958 A    
C4    C31   1.495300 S    
O3    C1    1.333460 A    
C5    N21   1.433374 S    
N25   O46   1.301764 A    
N19   O33   1.301129 A    
N13   O25   1.300776 A    
C14   C16   1.424207 A    
C13   N25   1.436351 S    
C62   O17   1.331840 A    
O15   V3    1.993969 S    
C12   C14   1.394354 A    
N1    C47   1.359074 A    
C50   C60   1.399976 A    
N26   O47   1.301665 A    
C37   C47   1.498275 S    
N9    H14   1.045632 S    
N16   H19   1.042569 S    
O7    V1    1.978004 S    
C19   C27   1.425540 A    
C1    O8    1.324681 A    
C15   C17   1.437815 A    
O8    V2    1.978556 S    
N9    H13   1.045098 S    
C16   C18   1.436025 A    
C7    C62   1.475451 S    
N19   O34   1.301472 A    
C8    C28   1.402212 A    
C24   C26   1.411750 A    
C22   C24   1.417005 A    
C19   C21   1.425987 A    
C20   C22   1.425407 A    
C36   C38   1.411669 A    
C50   H10   1.082094 S    
N23   O42   1.301286 A    
N12   O24   1.301276 A    
N13   O26   1.300614 A    
N10   H16   1.045624 S    
C9    C11   1.388043 A    
N14   O27   1.301308 A    
C39   N11   1.436331 S    
C23   N19   1.437415 S    
O9    V2    1.768679 S    
C5    C29   1.396259 A    
C17   C25   1.420806 A    
N4    C46   1.357949 A    
N20   O35   1.301173 A    
N18   O31   1.301461 A    
C3    C32   1.497360 S    
C46   N6    1.358244 A    
C5    C21   1.431050 A    
N3    C45   1.357768 A    
C45   C59   1.482499 S    
C6    C22   1.430137 A    
C36   N10   1.432993 S    
C51   C53   1.408620 A    
C34   C36   1.402117 A    
C10   C32   1.409591 A    
