data_mof_unit_30206.cif
_audit_creation_date              2013-03-05T15:52:27-0500
_audit_creation_method            fapswitch 2.2
_symmetry_space_group_name_H-M    P1
_symmetry_Int_Tables_number       1
_space_group_crystal_system       triclinic
_cell_length_a                    27.803115
_cell_length_b                    10.770616
_cell_length_c                    9.602198
_cell_angle_alpha                 90.043966
_cell_angle_beta                  89.888161
_cell_angle_gamma                 92.522124
_cell_volume                      2872.65071816

loop_
_atom_site_label
_atom_site_type_symbol
_atom_site_description
_atom_site_fract_x
_atom_site_fract_y
_atom_site_fract_z
_atom_type_partial_charge
O1    O     O_R   0.500000 0.319640 0.618810 -0.576303
O2    O     O_R   0.500000 0.319660 0.381240 -0.572673
C1    C     C_R   0.498332 0.262601 0.499999 0.796221
O3    O     O_R   0.430260 0.500010 0.618770 -0.595090
O4    O     O_R   0.430270 0.500030 0.381200 -0.575440
C2    C     C_R   0.407541 0.499854 0.500200 0.800453
Cu1   Cu    Cu3+1 0.500000 0.499990 0.640660 0.932701
Cu2   Cu    Cu3+1 0.500000 0.500010 0.359340 0.941487
O5    O     O_R   0.500000 0.680340 0.618760 -0.601372
O6    O     O_R   0.500000 0.680360 0.381190 -0.587854
O7    O     O_R   0.569730 0.499970 0.618800 -0.595147
O8    O     O_R   0.569740 0.499990 0.381230 -0.601056
C3    C     C_R   0.498524 0.737089 0.500065 0.768802
C4    C     C_R   0.592469 0.500812 0.499864 0.780977
C5    C     C_R   0.176310 0.397179 0.497258 0.602986
O9    O     O_2   0.199420 0.289569 0.496602 -0.516614
N1    N     N_R   0.202211 0.507995 0.500866 -0.448804
C6    C     C_R   0.180045 0.618801 0.499632 0.601146
C7    C     C_R   0.279318 0.525449 0.379941 -0.142338
C8    C     C_R   0.329286 0.522056 0.377995 -0.187311
C9    C     C_R   0.329047 0.483492 0.626615 -0.294661
C10   C     C_R   0.278646 0.486789 0.630277 0.382694
C11   C     C_R   0.253755 0.508008 0.504684 0.243286
C12   C     C_R   0.102057 0.507917 0.495351 -0.039430
C13   C     C_R   0.125799 0.395050 0.494327 -0.022194
C14   C     C_R   0.098771 0.282771 0.491699 -0.130404
C15   C     C_R   0.129595 0.620847 0.497714 -0.022555
C16   C     C_R   0.354598 0.501368 0.501326 -0.103706
H1    H     H_    0.348429 0.467706 0.722259 0.192752
H2    H     H_    0.116154 0.194681 0.492621 0.187318
C17   C     C_R   0.645466 0.502952 0.499256 -0.038935
C18   C     C_R   0.972662 0.393515 0.480536 0.043977
C19   C     C_R   0.976468 0.621953 0.507165 0.044575
C20   C     C_R   0.949305 0.507663 0.494125 0.068724
C21   C     C_R   0.943864 0.283336 0.460023 -0.201880
C22   C     C_R   0.893942 0.284639 0.458678 -0.142857
C23   C     C_R   0.870647 0.395637 0.477309 -0.021702
C24   C     C_R   0.898150 0.507489 0.494856 -0.043871
C25   C     C_R   0.874362 0.619139 0.513274 -0.019826
C26   C     C_R   0.823820 0.616768 0.514433 0.534129
N2    N     N_R   0.797937 0.507024 0.496869 -0.469940
C27   C     C_R   0.820188 0.397531 0.478231 0.536010
C28   C     C_R   0.721507 0.517813 0.623554 -0.103462
C29   C     C_R   0.671312 0.515716 0.624569 -0.219402
C30   C     C_R   0.670763 0.492758 0.373083 -0.219970
C31   C     C_R   0.720927 0.494214 0.372514 -0.105218
C32   C     C_R   0.746403 0.506660 0.497644 0.361891
O10   O     O_2   0.793529 0.290794 0.461537 -0.531879
C33   C     C_R   0.023734 0.393140 0.487160 0.044185
C34   C     C_R   0.050908 0.507852 0.494233 0.072402
C35   C     C_R   0.027565 0.622498 0.500533 0.043876
C36   C     C_R   0.048818 0.281539 0.488353 -0.197037
H3    H     H_    0.652829 0.524327 0.723261 0.162878
H4    H     H_    0.741105 0.527423 0.720584 0.139096
H5    H     H_    0.873621 0.197612 0.442933 0.188890
H6    H     H_    0.958699 0.194092 0.441909 0.138038
H7    H     H_    0.030968 0.190814 0.489835 0.135531
O11   O     O_2   0.206782 0.726459 0.501728 -0.519508
C37   C     C_R   0.106335 0.733075 0.498016 -0.130064
H8    H     H_    0.348073 0.536269 0.279996 0.178647
H9    H     H_    0.260193 0.541004 0.283801 0.177699
H10   H     H_    0.126693 0.821210 0.497665 0.190488
C38   C     C_R   0.951344 0.732021 0.527914 -0.202015
C39   C     C_R   0.901369 0.730372 0.530728 -0.145185
O12   O     O_2   0.800690 0.723250 0.532074 -0.535049
C40   C     C_R   0.056401 0.734175 0.499219 -0.196483
H11   H     H_    0.969174 0.821398 0.545420 0.137598
H12   H     H_    0.651856 0.483104 0.274893 0.164726
H13   H     H_    0.883951 0.817283 0.546879 0.186457
H14   H     H_    0.740073 0.485771 0.274888 0.139076
H15   H     H_    0.041587 0.824814 0.496488 0.136528
H16   H     H_    0.556513 0.119330 0.362602 0.156322
C41   C     C_R   0.421433 0.120701 0.645627 -0.185593
H17   H     H_    0.418914 0.220556 0.644561 0.141122
C42   C     C_R   0.385595 0.051686 0.716627 -0.113417
H18   H     H_    0.357281 0.098605 0.770131 0.162697
C43   C     C_R   0.385665 0.922557 0.716851 -0.108812
H19   H     H_    0.357400 0.869245 0.770525 0.159452
C44   C     C_R   0.421581 0.861630 0.646118 -0.170552
H20   H     H_    0.419180 0.761245 0.645601 0.156788
C45   C     C_R   0.458784 0.929692 0.575223 0.097612
C46   C     C_R   0.458708 0.061006 0.575021 0.095417
C47   C     C_R   0.495044 0.128433 0.499825 -0.099783
C48   C     C_R   0.529116 0.067355 0.421578 -0.184457
H21   H     H_    0.556647 0.893661 0.362849 0.140277
C49   C     C_R   0.529191 0.939317 0.421725 -0.199289
C50   C     C_R   0.495188 0.870500 0.500113 -0.086955
H22   H     H_    0.445367 0.359872 0.129182 0.146019
C51   C     C_R   0.564145 0.664713 0.143766 -0.148742
H23   H     H_    0.567165 0.672526 0.253489 0.193570
C52   C     C_R   0.595508 0.745211 0.071530 -0.208033
H24   H     H_    0.620019 0.808039 0.127656 0.157343
C53   C     C_R   0.595458 0.745420 0.928035 -0.200245
H25   H     H_    0.619950 0.808374 0.871848 0.162000
C54   C     C_R   0.564044 0.665137 0.855884 -0.146533
H26   H     H_    0.567003 0.673288 0.746120 0.198174
C55   C     C_R   0.531483 0.581117 0.925118 0.209298
C56   C     C_R   0.531506 0.580981 0.074673 0.211225
N3    N     N_R   0.500460 0.501210 0.147910 -0.201709
C57   C     C_R   0.469982 0.423016 0.073967 -0.050149
H27   H     H_    0.445390 0.359910 0.870991 0.137178
C58   C     C_R   0.469998 0.423032 0.926098 -0.049605
N4    N     N_R   0.500480 0.501290 0.852040 -0.200571
N5    N     N_R   0.253680 0.468449 0.760985 0.134233
O13   O     O_R   0.274622 0.414578 0.864406 -0.361211
O14   O     O_R   0.211400 0.512395 0.781412 -0.342079

loop_
_geom_bond_atom_site_label_1
_geom_bond_atom_site_label_2
_geom_bond_distance
_ccdc_geom_bond_type
C43   H19   1.082612 S    
C53   H25   1.083070 S    
C54   H26   1.060430 S    
N2    C27   1.367108 A    
C7    C8    1.391445 A    
C12   C15   1.408626 A    
C4    C17   1.472636 S    
C42   H18   1.082617 S    
N5    O14   1.300886 A    
C55   C56   1.436054 A    
Cu1   Cu2   2.701291 S    
H21   C49   1.084012 S    
Cu1   O7    1.949643 S    
C25   C39   1.395793 A    
N1    C11   1.433616 S    
C22   C23   1.395745 A    
Cu2   N3    2.030256 S    
C48   C49   1.379142 A    
C37   C40   1.388918 A    
O4    C2    1.304645 A    
O7    C4    1.304126 A    
C5    C13   1.403867 A    
C52   C53   1.377870 A    
C5    O9    1.349734 S    
C56   N3    1.382424 A    
C10   N5    1.442555 S    
N1    C6    1.367130 A    
C41   H17   1.080910 S    
C23   C27   1.403968 A    
O5    C3    1.295267 A    
O1    Cu1   1.953618 S    
C29   H3    1.083007 S    
C6    O11   1.349714 S    
C2    C16   1.472798 S    
C40   H15   1.076503 S    
C8    H8    1.083067 S    
C19   C38   1.415996 A    
C53   C54   1.387629 A    
Cu1   N4    2.029817 S    
C9    C10   1.403701 A    
C41   C42   1.393951 A    
O3    Cu1   1.950769 S    
N5    O13   1.301816 A    
H27   C58   1.081774 S    
C45   C46   1.414434 A    
C43   C44   1.394075 A    
C12   C34   1.422121 A    
C38   H11   1.076462 S    
H16   C48   1.084227 S    
C17   C29   1.406285 A    
C18   C21   1.415890 A    
C12   C13   1.408623 A    
O3    C2    1.303058 A    
C52   H24   1.083094 S    
C44   C45   1.414917 A    
C49   C50   1.395013 A    
C27   O10   1.349790 S    
C8    C16   1.401722 A    
C34   C35   1.421227 A    
C13   C14   1.395635 A    
C30   C31   1.394102 A    
C9    H1    1.083028 S    
C44   H20   1.080335 S    
O1    C1    1.295271 A    
C21   C22   1.388775 A    
C18   C20   1.421263 A    
C7    C11   1.400154 A    
C28   C29   1.394764 A    
C23   C24   1.408388 A    
C14   C36   1.388787 A    
C55   N4    1.382334 A    
C28   H4    1.082842 S    
C47   C48   1.394976 A    
Cu2   O8    1.950763 S    
C33   C36   1.416036 A    
C3    C50   1.443978 S    
C30   H12   1.083084 S    
C57   C58   1.419862 A    
C19   C20   1.421151 A    
N2    C32   1.432652 S    
C45   C50   1.415733 A    
C39   H13   1.083601 S    
C42   C43   1.390893 A    
H22   C57   1.081743 S    
C26   N2    1.367031 A    
C9    C16   1.405018 A    
O8    C4    1.303604 A    
C33   C34   1.421225 A    
C26   O12   1.349726 S    
C1    C47   1.443944 S    
C51   C52   1.387521 A    
C41   C46   1.415015 A    
C25   C26   1.404344 A    
Cu1   O5    1.953990 S    
C31   C32   1.399293 A    
C37   H10   1.083600 S    
C21   H6    1.076415 S    
C20   C24   1.422191 A    
O2    Cu2   1.953991 S    
C6    C15   1.403964 A    
O6    C3    1.295725 A    
O4    Cu2   1.949646 S    
C54   C55   1.416661 A    
C14   H2    1.083624 S    
C19   C35   1.421702 A    
N3    C57   1.367527 A    
C51   C56   1.416463 A    
O2    C1    1.295599 A    
C22   H5    1.083593 S    
C15   C37   1.395743 A    
C24   C25   1.408549 A    
C7    H9    1.083058 S    
C58   N4    1.367509 A    
C18   C33   1.421678 A    
C31   H14   1.082857 S    
C36   H7    1.076401 S    
C38   C39   1.389006 A    
Cu2   O6    1.953618 S    
C46   C47   1.415203 A    
C17   C30   1.406363 A    
C10   C11   1.415315 A    
C51   H23   1.060079 S    
C5    N1    1.367029 A    
C28   C32   1.399674 A    
C35   C40   1.415939 A    
