data_mof_unit_51744.cif
_audit_creation_date              2013-03-05T15:58:58-0500
_audit_creation_method            fapswitch 2.2
_symmetry_space_group_name_H-M    P1
_symmetry_Int_Tables_number       1
_space_group_crystal_system       triclinic
_cell_length_a                    7.294069
_cell_length_b                    21.373619
_cell_length_c                    23.46155
_cell_angle_alpha                 90.0
_cell_angle_beta                  89.999463
_cell_angle_gamma                 89.999513
_cell_volume                      3657.67093614

loop_
_atom_site_label
_atom_site_type_symbol
_atom_site_description
_atom_site_fract_x
_atom_site_fract_y
_atom_site_fract_z
_atom_type_partial_charge
O1    O     O_R   0.365470 0.806380 0.442440 -0.577166
O2    O     O_R   0.134530 0.193620 0.942440 -0.577167
O3    O     O_R   0.865470 0.693620 0.557560 -0.577165
O4    O     O_R   0.634530 0.306380 0.057560 -0.577165
O5    O     O_R   0.035730 0.813790 0.557160 -0.567031
O6    O     O_R   0.464270 0.186210 0.057160 -0.567027
O7    O     O_R   0.535730 0.686210 0.442840 -0.567025
O8    O     O_R   0.964270 0.313790 0.942840 -0.567027
C1    C     C_R   0.204380 0.828606 0.575728 0.947398
C2    C     C_R   0.295619 0.171394 0.075728 0.947400
C3    C     C_R   0.704382 0.671394 0.424272 0.947396
C4    C     C_R   0.795619 0.328606 0.924272 0.947394
O9    O     O_R   0.035760 0.813790 0.442850 -0.577057
O10   O     O_R   0.464240 0.186210 0.942850 -0.577064
O11   O     O_R   0.535760 0.686210 0.557150 -0.577056
O12   O     O_R   0.964240 0.313790 0.057150 -0.577054
O13   O     O_R   0.865450 0.693620 0.442430 -0.581227
O14   O     O_R   0.634550 0.306380 0.942430 -0.581228
O15   O     O_R   0.365450 0.806380 0.557570 -0.581229
O16   O     O_R   0.134550 0.193620 0.057570 -0.581228
C5    C     C_R   0.204434 0.828616 0.424293 0.946762
C6    C     C_R   0.295567 0.171384 0.924293 0.946764
C7    C     C_R   0.704434 0.671384 0.575707 0.946756
C8    C     C_R   0.795565 0.328616 0.075707 0.946758
O17   O     O_3   0.198970 0.710570 0.500000 -0.278813
O18   O     O_3   0.301030 0.289430 0.000000 -0.278813
O19   O     O_3   0.698970 0.789430 0.500000 -0.278817
O20   O     O_3   0.801030 0.210570 0.000000 -0.278818
V1    V     V_3+5 0.924120 0.757310 0.500000 1.246191
V2    V     V_3+5 0.575880 0.242690 0.000000 1.246189
V3    V     V_3+5 0.424120 0.742690 0.500000 1.246193
V4    V     V_3+5 0.075880 0.257310 0.000000 1.246193
C9    C     C_3   0.927677 0.549380 0.740983 0.029590
C10   C     C_3   0.572316 0.450623 0.240982 0.029589
C11   C     C_3   0.427671 0.950616 0.259014 0.029591
C12   C     C_3   0.072355 0.049396 0.759007 0.029598
C13   C     C_3   0.578789 0.548325 0.749213 -0.281913
C14   C     C_3   0.921203 0.451672 0.249213 -0.281916
C15   C     C_3   0.078784 0.951678 0.250789 -0.281912
C16   C     C_3   0.421245 0.048310 0.750794 -0.281906
C17   C     C_3   0.588483 0.498626 0.797543 -0.389441
C18   C     C_3   0.911514 0.501372 0.297543 -0.389448
C19   C     C_3   0.088483 0.001376 0.202458 -0.389432
C20   C     C_3   0.411525 0.998617 0.702460 -0.389407
H1    H     H_    0.910063 0.534618 0.833528 0.151346
H2    H     H_    0.589927 0.465384 0.333527 0.151346
H3    H     H_    0.410067 0.965383 0.166470 0.151346
H4    H     H_    0.089949 0.034617 0.666463 0.151344
H5    H     H_    0.446160 0.544169 0.726349 0.227196
H6    H     H_    0.053835 0.455825 0.226349 0.227197
H7    H     H_    0.946157 0.955839 0.273655 0.227192
H8    H     H_    0.553859 0.044136 0.773665 0.227181
H9    H     H_    0.576494 0.595826 0.768152 0.226474
H10   H     H_    0.923489 0.404171 0.268153 0.226475
H11   H     H_    0.076477 0.904176 0.231851 0.226473
H12   H     H_    0.423598 0.095814 0.731859 0.226470
H13   H     H_    0.581483 0.522133 0.839816 0.206937
H14   H     H_    0.918508 0.477864 0.339817 0.206935
H15   H     H_    0.081487 0.977867 0.160185 0.206941
H16   H     H_    0.418530 0.022129 0.660189 0.206947
H17   H     H_    0.469619 0.467019 0.794335 0.276715
H18   H     H_    0.030383 0.532976 0.294334 0.276715
H19   H     H_    0.969620 0.032984 0.205665 0.276712
H20   H     H_    0.530375 0.967003 0.705664 0.276707
C21   C     C_1   0.785147 0.374429 0.878678 -0.184489
C22   C     C_1   0.714857 0.625571 0.378678 -0.184488
C23   C     C_1   0.285147 0.125572 0.121322 -0.184491
C24   C     C_1   0.214848 0.874428 0.621323 -0.184494
C25   C     C_3   0.743108 0.541291 0.707171 -0.046765
C26   C     C_3   0.756889 0.458709 0.207171 -0.046763
C27   C     C_3   0.243107 0.958709 0.292828 -0.046762
C28   C     C_3   0.256899 0.041291 0.792828 -0.046757
C29   C     C_3   0.928723 0.505366 0.794627 0.129534
C30   C     C_3   0.571272 0.494636 0.294627 0.129527
C31   C     C_3   0.428724 0.994633 0.205372 0.129538
C32   C     C_3   0.071287 0.005373 0.705369 0.129554
C33   C     C_3   0.764294 0.458695 0.792579 0.044444
C34   C     C_3   0.735708 0.541304 0.292579 0.044454
C35   C     C_3   0.264295 0.041304 0.207421 0.044442
C36   C     C_3   0.235699 0.958696 0.707422 0.044420
C37   C     C_3   0.754653 0.424641 0.733861 -0.417447
C38   C     C_3   0.745357 0.575359 0.233861 -0.417454
C39   C     C_3   0.254654 0.075359 0.266139 -0.417444
C40   C     C_3   0.245317 0.924642 0.766139 -0.417416
C41   C     C_3   0.745955 0.472675 0.683640 0.181922
C42   C     C_3   0.754054 0.527325 0.183640 0.181924
C43   C     C_3   0.245964 0.027325 0.316360 0.181923
C44   C     C_3   0.253994 0.972676 0.816360 0.181919
C45   C     C_1   0.774669 0.412371 0.840180 0.120929
C46   C     C_1   0.725335 0.587629 0.340180 0.120931
C47   C     C_1   0.274670 0.087629 0.159820 0.120922
C48   C     C_1   0.225322 0.912370 0.659821 0.120902
C49   C     C_1   0.727899 0.587583 0.659683 0.108458
C50   C     C_1   0.772097 0.412417 0.159683 0.108460
C51   C     C_1   0.227898 0.912417 0.340316 0.108450
C52   C     C_1   0.272110 0.087583 0.840316 0.108430
C53   C     C_1   0.715377 0.625525 0.621252 -0.181620
C54   C     C_1   0.784620 0.374475 0.121252 -0.181619
C55   C     C_1   0.215377 0.874475 0.378748 -0.181622
C56   C     C_1   0.284629 0.125525 0.878747 -0.181626
H21   H     H_    0.874126 0.466851 0.658286 0.120741
H22   H     H_    0.625887 0.533151 0.158286 0.120740
H23   H     H_    0.374140 0.033146 0.341710 0.120746
H24   H     H_    0.125796 0.966862 0.841702 0.120758
H25   H     H_    0.873951 0.393078 0.728073 0.222197
H26   H     H_    0.626062 0.606923 0.228073 0.222193
H27   H     H_    0.373950 0.106922 0.271926 0.222194
H28   H     H_    0.126017 0.893079 0.771924 0.222197
H29   H     H_    0.040974 0.534755 0.712027 0.137668
H30   H     H_    0.459024 0.465251 0.212026 0.137674
H31   H     H_    0.540973 0.965237 0.287969 0.137660
H32   H     H_    0.959030 0.034791 0.787961 0.137634
H33   H     H_    0.632608 0.393419 0.733252 0.227123
H34   H     H_    0.867405 0.606579 0.233253 0.227124
H35   H     H_    0.132607 0.106580 0.266749 0.227120
H36   H     H_    0.367362 0.893420 0.766753 0.227113
N1    N     N_R   0.103325 0.472369 0.800877 0.226221
O21   O     O_R   0.164514 0.436186 0.760545 -0.398642
O22   O     O_R   0.185084 0.472412 0.850184 -0.400662
N2    N     N_R   0.396675 0.527636 0.300878 0.226221
O23   O     O_R   0.335490 0.563820 0.260546 -0.398635
O24   O     O_R   0.314914 0.527595 0.350185 -0.400662
N3    N     N_R   0.603326 0.027629 0.199124 0.226218
O25   O     O_R   0.664515 0.063808 0.239459 -0.398657
O26   O     O_R   0.685088 0.027591 0.149817 -0.400663
N4    N     N_R   0.896675 0.972382 0.699127 0.226213
O27   O     O_R   0.835472 0.936215 0.739469 -0.398697
O28   O     O_R   0.814914 0.972413 0.649820 -0.400668
N5    N     N_R   0.963722 0.614754 0.756915 0.254735
O29   O     O_R   0.102735 0.644015 0.734606 -0.370837
O30   O     O_R   0.864927 0.643232 0.795118 -0.357299
N6    N     N_R   0.536259 0.385249 0.256914 0.254735
O31   O     O_R   0.397244 0.355991 0.234604 -0.370840
O32   O     O_R   0.635046 0.356769 0.295117 -0.357300
N7    N     N_R   0.463701 0.885242 0.243078 0.254736
O33   O     O_R   0.602707 0.855974 0.265386 -0.370827
O34   O     O_R   0.364902 0.856770 0.204874 -0.357295
N8    N     N_R   0.036384 0.114772 0.743063 0.254735
O35   O     O_R   0.897402 0.144057 0.765367 -0.370805
O36   O     O_R   0.135213 0.143229 0.704855 -0.357291
N9    N     N_R   0.591446 0.459545 0.645249 0.259012
O37   O     O_R   0.621823 0.450904 0.591172 -0.337458
O38   O     O_R   0.425552 0.452757 0.664660 -0.343707
N10   N     N_R   0.908570 0.540452 0.145249 0.259012
O39   O     O_R   0.878200 0.549094 0.091173 -0.337459
O40   O     O_R   0.074462 0.547238 0.164662 -0.343712
N11   N     N_R   0.091463 0.040456 0.354755 0.259010
O41   O     O_R   0.121851 0.049097 0.408831 -0.337457
O42   O     O_R   0.925565 0.047247 0.335348 -0.343705
N12   N     N_R   0.408461 0.959537 0.854765 0.259006
O43   O     O_R   0.378030 0.950898 0.908840 -0.337455
O44   O     O_R   0.574370 0.952736 0.835368 -0.343690

loop_
_geom_bond_atom_site_label_1
_geom_bond_atom_site_label_2
_geom_bond_distance
_ccdc_geom_bond_type
O17   V3    1.779984 S    
C15   H7    1.109746 S    
C14   C26   1.559496 S    
O1    C5    1.336728 A    
N4    O27   1.301029 A    
C13   C25   1.559495 S    
O19   V1    1.779973 S    
O13   V1    1.964843 S    
H4    C32   1.114621 S    
O3    C7    1.336728 A    
N11   O41   1.301098 A    
C17   H17   1.101696 S    
C36   C40   1.559646 S    
O15   V3    1.964831 S    
C18   H14   1.112976 S    
C19   H19   1.101695 S    
N3    O25   1.301027 A    
C22   C46   1.216262 T    
C2    C23   1.452351 S    
C20   H20   1.101692 S    
O7    C3    1.342885 A    
C11   C31   1.571326 S    
O5    C1    1.342883 A    
C43   N11   1.469767 S    
C8    C54   1.452221 S    
O2    V4    1.964639 S    
O9    V1    1.979446 S    
C26   C50   1.494180 S    
O7    V3    1.979506 S    
C14   C18   1.555343 S    
C25   C49   1.494182 S    
N9    O38   1.301025 A    
C17   C33   1.544806 S    
O4    C8    1.336728 A    
C51   C55   1.216138 T    
N3    O26   1.301497 A    
C27   C51   1.494182 S    
C50   C54   1.216138 T    
C19   C35   1.544805 S    
O1    V3    1.964645 S    
C32   N4    1.463157 S    
H1    C29   1.114619 S    
O3    V1    1.964643 S    
C41   H21   1.115048 S    
C12   C32   1.571328 S    
C44   H24   1.115050 S    
C1    O15   1.336950 A    
C15   H11   1.108386 S    
C2    O16   1.336948 A    
N6    O31   1.301250 A    
C16   H12   1.108388 S    
C12   H32   1.114520 S    
C32   C36   1.560710 S    
O14   V2    1.964838 S    
N7    O33   1.301251 A    
C18   H18   1.101696 S    
C16   C20   1.555345 S    
C35   C47   1.494430 S    
C3    C22   1.452349 S    
C19   H15   1.112975 S    
C13   H9    1.108384 S    
O11   C7    1.342999 A    
C27   C43   1.567175 S    
C11   C27   1.572130 S    
O12   C8    1.342998 A    
C15   C27   1.559494 S    
O10   V2    1.979456 S    
C28   C44   1.567177 S    
N2    O24   1.301499 A    
O5    V1    1.979523 S    
C37   H25   1.109387 S    
N11   O42   1.301026 A    
C29   N1    1.463160 S    
C42   N10   1.469766 S    
O8    V4    1.979516 S    
C39   H35   1.112653 S    
C20   C36   1.544801 S    
C6    C56   1.452223 S    
C38   H34   1.112653 S    
N10   O40   1.301024 A    
C11   N7    1.470132 S    
O18   V4    1.779984 S    
C15   C19   1.555344 S    
C16   H8    1.109748 S    
C34   C46   1.494431 S    
C28   C52   1.494183 S    
C36   C48   1.494435 S    
C21   C45   1.216265 T    
O2    C6    1.336730 A    
C25   C41   1.567176 S    
C13   H5    1.109745 S    
C34   C38   1.559649 S    
C14   H10   1.108383 S    
C33   C37   1.559650 S    
O8    C4    1.342885 A    
C33   C45   1.494431 S    
C23   C47   1.216264 T    
O9    C5    1.342998 A    
N8    O36   1.301195 A    
C10   C30   1.571324 S    
N6    O32   1.301190 A    
C43   H23   1.115048 S    
C9    C29   1.571324 S    
C7    C53   1.452223 S    
C18   C34   1.544807 S    
C10   H30   1.114515 S    
C31   N3    1.463159 S    
C9    H29   1.114514 S    
C41   N9    1.469766 S    
C26   C42   1.567176 S    
C49   C53   1.216139 T    
H2    C30   1.114621 S    
C11   H31   1.114516 S    
N2    O23   1.301024 A    
N5    O29   1.301249 A    
O16   V4    1.964836 S    
C9    N5    1.470131 S    
N7    O34   1.301189 A    
C10   C26   1.572132 S    
C3    O13   1.336950 A    
N4    O28   1.301497 A    
C16   C28   1.559493 S    
O6    V2    1.979513 S    
C44   N12   1.469767 S    
C40   C44   1.564078 S    
N10   O39   1.301098 A    
C39   C43   1.564083 S    
O6    C2    1.342884 A    
O11   V3    1.979446 S    
C14   H6    1.109746 S    
C9    C25   1.572132 S    
O12   V4    1.979436 S    
C30   N2    1.463161 S    
C4    C21   1.452351 S    
O10   C6    1.342997 A    
N1    O22   1.301498 A    
C1    C24   1.452354 S    
H3    C31   1.114619 S    
C37   H33   1.112653 S    
C38   C42   1.564083 S    
N9    O37   1.301099 A    
C35   C39   1.559648 S    
C31   C35   1.560715 S    
C20   H16   1.112976 S    
C5    C55   1.452221 S    
C52   C56   1.216138 T    
O20   V2    1.779973 S    
C24   C48   1.216263 T    
C39   H27   1.109388 S    
N12   O44   1.301028 A    
C38   H26   1.109389 S    
C13   C17   1.555343 S    
C37   C41   1.564084 S    
N8    O35   1.301256 A    
C17   H13   1.112974 S    
C10   N6    1.470130 S    
C40   H28   1.109388 S    
C40   H36   1.112653 S    
C30   C34   1.560718 S    
C4    O14   1.336949 A    
C29   C33   1.560717 S    
N12   O43   1.301102 A    
N1    O21   1.301024 A    
C12   N8    1.470133 S    
O4    V2    1.964648 S    
C12   C28   1.572127 S    
N5    O30   1.301189 A    
C42   H22   1.115046 S    
