data_mof_unit_25949.cif
_audit_creation_date              2012-10-26T21:14:54-0400
_audit_creation_method            fapswitch 2.2
_symmetry_space_group_name_H-M    P1
_symmetry_Int_Tables_number       1
_space_group_crystal_system       triclinic
_cell_length_a                    15.06543
_cell_length_b                    10.805477
_cell_length_c                    13.69344
_cell_angle_alpha                 89.998895
_cell_angle_beta                  89.641267
_cell_angle_gamma                 90.053377
_cell_volume                      2229.09889874

loop_
_atom_site_label
_atom_site_type_symbol
_atom_type_description
_atom_site_fract_x
_atom_site_fract_y
_atom_site_fract_z
_atom_type_partial_charge
C1    C     C_R   0.499445 0.262358 0.499979 0.588681
C2    C     C_R   0.624929 0.870103 0.622675 0.029410
C3    C     C_R   0.393214 0.153313 0.278311 -0.067987
C4    C     C_R   0.606812 0.846663 0.721668 -0.067966
C5    C     C_R   0.331095 0.216215 0.221006 0.020503
C6    C     C_R   0.668952 0.783777 0.778958 0.020504
C7    C     C_R   0.250557 0.254959 0.262519 -0.097674
C8    C     C_R   0.749496 0.745085 0.737430 -0.097687
C9    C     C_R   0.441558 0.934265 0.438678 0.057672
C10   C     C_R   0.558435 0.065737 0.561324 0.057674
C11   C     C_R   0.500872 0.871507 0.500048 0.021341
C12   C     C_R   0.500551 0.737642 0.500021 0.588682
C13   C     C_R   0.499122 0.128494 0.499953 0.021340
C14   C     C_R   0.559379 0.936352 0.561668 -0.054149
C15   C     C_R   0.440617 0.063650 0.438331 -0.054151
C16   C     C_R   0.328505 0.500986 0.500254 0.557019
C17   C     C_R   0.671494 0.499019 0.499746 0.557030
C18   C     C_R   0.556637 0.423530 0.792523 0.040692
C19   C     C_R   0.443360 0.576465 0.207477 0.040689
C20   C     C_R   0.443665 0.576335 0.793660 0.036515
C21   C     C_R   0.556334 0.423663 0.206340 0.036518
C22   C     C_R   0.442434 0.578025 0.896561 -0.016844
C23   C     C_R   0.047407 0.551732 0.326782 -0.131763
C24   C     C_R   0.557562 0.421968 0.103439 -0.016838
C25   C     C_R   0.500171 0.499596 0.948148 0.067559
C26   C     C_R   0.499825 0.500396 0.051852 0.067550
C27   C     C_R   0.558362 0.420794 0.895983 -0.016136
C28   C     C_R   0.441632 0.579197 0.104017 -0.016156
C29   C     C_R   0.384912 0.656529 0.948472 -0.132246
C30   C     C_R   0.615081 0.343459 0.051529 -0.132231
C31   C     C_R   0.383987 0.657726 0.051196 -0.011992
C32   C     C_R   0.616004 0.342259 0.948804 -0.011978
C33   C     C_R   0.814032 0.471377 0.585839 -0.138046
C34   C     C_R   0.952592 0.448358 0.673224 -0.131764
C35   C     C_R   0.185969 0.528687 0.414165 -0.138056
C36   C     C_R   0.768268 0.497267 0.499335 -0.012591
C37   C     C_R   0.231731 0.502754 0.500663 -0.012604
C38   C     C_R   0.815105 0.522616 0.412809 -0.143710
C39   C     C_R   0.184893 0.477386 0.587183 -0.143716
C40   C     C_R   0.907578 0.523872 0.412453 0.008803
C41   C     C_R   0.092420 0.476162 0.587545 0.008811
C42   C     C_R   0.953486 0.499103 0.499802 0.059132
C43   C     C_R   0.046511 0.500945 0.500198 0.059135
C44   C     C_R   0.906460 0.472595 0.586768 0.002915
C45   C     C_R   0.232134 0.230638 0.360840 -0.117841
C46   C     C_R   0.093540 0.527471 0.413235 0.002917
C47   C     C_R   0.954870 0.549991 0.326402 -0.129591
C48   C     C_R   0.045128 0.450070 0.673600 -0.129587
C49   C     C_1   0.323243 0.740735 0.100296 0.167771
C50   C     C_1   0.676742 0.259241 0.899705 0.167776
C51   C     C_1   0.349452 0.239552 0.119372 0.187213
C52   C     C_1   0.650609 0.760403 0.880590 0.187215
C53   C     C_R   0.767904 0.769435 0.639109 -0.117856
C54   C     C_R   0.294397 0.169204 0.418377 -0.097447
C55   C     C_R   0.705619 0.830850 0.581587 -0.097473
C56   C     C_R   0.375082 0.129903 0.377306 0.029414
Cu1   Cu    Cu3+1 0.500010 0.499980 0.597420 0.958516
Cu2   Cu    Cu3+1 0.499990 0.500020 0.402580 0.958518
H1    H     H_    0.777788 0.451147 0.652654 0.135981
H2    H     H_    0.220314 0.457248 0.654017 0.131190
H3    H     H_    0.920295 0.569113 0.258912 0.118187
H4    H     H_    0.079704 0.430957 0.741091 0.118184
H5    H     H_    0.082893 0.571962 0.259558 0.122312
H6    H     H_    0.917108 0.428166 0.740456 0.122297
H7    H     H_    0.201941 0.303412 0.218876 0.112076
H8    H     H_    0.798130 0.696649 0.781059 0.112078
H9    H     H_    0.169565 0.259629 0.392588 0.125595
H10   H     H_    0.830476 0.740482 0.607348 0.125602
H11   H     H_    0.279669 0.151630 0.494648 0.108569
H12   H     H_    0.222216 0.548947 0.347357 0.135982
H13   H     H_    0.720336 0.848450 0.505318 0.108579
H14   H     H_    0.455558 0.123039 0.246397 0.108556
H15   H     H_    0.544464 0.876901 0.753593 0.108563
H16   H     H_    0.315646 0.890503 0.398789 0.239354
H17   H     H_    0.391341 0.888201 0.306306 0.248956
H18   H     H_    0.684347 0.109505 0.601213 0.239356
H19   H     H_    0.608652 0.111797 0.693697 0.248962
H20   H     H_    0.600328 0.364735 0.750159 0.150466
H21   H     H_    0.399669 0.635259 0.249841 0.150464
H22   H     H_    0.399741 0.636249 0.753018 0.122248
H23   H     H_    0.600257 0.363749 0.246982 0.122247
H24   H     H_    0.340506 0.717173 0.908840 0.111765
H25   H     H_    0.659484 0.282812 0.091160 0.111759
H26   H     H_    0.779685 0.542720 0.345968 0.131191
N1    N     N_R   0.499960 0.499900 0.743810 -0.245120
N2    N     N_R   0.500040 0.500100 0.256190 -0.245118
N3    N     N_3   0.380411 0.865275 0.379557 -0.610630
N4    N     N_3   0.619581 0.134727 0.620446 -0.610623
N5    N     N_1   0.274596 0.807226 0.139631 -0.313455
N6    N     N_1   0.725384 0.192742 0.860371 -0.313445
N7    N     N_1   0.364061 0.258048 0.037596 -0.299752
N8    N     N_1   0.636012 0.741875 0.962364 -0.299753
O1    O     O_R   0.500000 0.319630 0.582270 -0.475733
O2    O     O_R   0.500000 0.680370 0.417730 -0.475737
O3    O     O_R   0.499990 0.319660 0.417730 -0.510335
O4    O     O_R   0.500010 0.680340 0.582270 -0.510341
O5    O     O_R   0.370260 0.499960 0.582280 -0.514613
O6    O     O_R   0.629740 0.500040 0.417720 -0.514614
O7    O     O_R   0.370250 0.499990 0.417740 -0.501341
O8    O     O_R   0.629750 0.500010 0.582260 -0.501343

loop_
_geom_bond_atom_site_label_1
_geom_bond_atom_site_label_2
_ccdc_geom_bond_type
C40   C47   A    
C38   C40   A    
C8    H8    S    
C22   C29   A    
Cu2   O6    S    
C19   N2    A    
C39   C41   A    
C10   N4    S    
C7    C45   A    
C35   C37   A    
C24   C26   A    
C2    C55   A    
C11   C14   A    
C16   O5    A    
C33   C36   A    
C30   H25   S    
C53   H10   S    
C51   N7    T    
C50   N6    T    
C35   H12   S    
C22   C25   A    
C45   H9    S    
C17   C36   S    
H16   N3    S    
C17   O6    A    
H18   N4    S    
C18   H20   S    
C16   C37   S    
C40   C42   A    
C33   H1    S    
C23   C46   A    
Cu1   O1    S    
C41   C43   A    
C12   O2    A    
C42   C44   A    
C31   C49   S    
Cu2   N2    S    
C43   C46   A    
C53   C55   A    
C54   C56   A    
C18   N1    A    
C23   C47   A    
C20   H22   S    
C34   C44   A    
H19   N4    S    
C4    C6    A    
C10   C14   A    
C49   N5    T    
C5    C7    A    
C6    C8    A    
C25   C26   A    
Cu1   O8    S    
Cu1   O4    S    
C1    O1    A    
C2    C4    A    
Cu2   O3    S    
C7    H7    S    
C3    C56   A    
C48   H4    S    
C1    O3    A    
Cu1   O5    S    
C20   N1    A    
C34   H6    S    
C19   H21   S    
C19   C28   A    
C9    C11   A    
C32   C50   S    
C4    H15   S    
H17   N3    S    
C20   C22   A    
C45   C54   A    
C13   C15   A    
C52   N8    T    
C1    C13   S    
C42   C43   A    
C21   N2    A    
C38   H26   S    
C27   C32   A    
C33   C44   A    
C28   C31   A    
C5    C51   S    
Cu2   O7    S    
C21   H23   S    
C3    C5    A    
C10   C13   A    
C8    C53   A    
C47   H3    S    
C11   C12   S    
C16   O7    A    
C25   C27   A    
C26   C28   A    
C18   C27   A    
C15   C56   S    
C36   C38   A    
C3    H14   S    
C9    C15   A    
C29   H24   S    
C29   C31   A    
C9    N3    S    
C30   C32   A    
Cu1   Cu2   S    
C54   H11   S    
C39   H2    S    
C23   H5    S    
C41   C48   A    
Cu1   N1    S    
Cu2   O2    S    
C2    C14   S    
C17   O8    A    
C24   C30   A    
C34   C48   A    
C37   C39   A    
C21   C24   A    
C12   O4    A    
C6    C52   S    
C35   C46   A    
C55   H13   S    
