data_mof_unit_43731.cif
_audit_creation_date              2012-12-10T17:31:13-0500
_audit_creation_method            fapswitch 2.2
_symmetry_space_group_name_H-M    P1
_symmetry_Int_Tables_number       1
_space_group_crystal_system       triclinic
_cell_length_a                    12.117605
_cell_length_b                    12.772506
_cell_length_c                    15.475948
_cell_angle_alpha                 86.568174
_cell_angle_beta                  116.985808
_cell_angle_gamma                 94.648187
_cell_volume                      2126.71035407

loop_
_atom_site_label
_atom_site_type_symbol
_atom_type_description
_atom_site_fract_x
_atom_site_fract_y
_atom_site_fract_z
_atom_type_partial_charge
C1    C     C_R   0.476373 0.299760 0.498336 0.867416
C2    C     C_R   0.655377 0.964740 0.597053 -0.219472
C3    C     C_R   0.353096 0.142463 0.417626 -0.228572
C4    C     C_R   0.648553 0.857995 0.582189 -0.224517
C5    C     C_R   0.558668 0.129762 0.553540 -0.304277
C6    C     C_R   0.441773 0.870690 0.448135 -0.293499
C7    C     C_R   0.554270 0.023935 0.538322 0.195202
C8    C     C_R   0.446958 0.976636 0.462652 0.193414
C9    C     C_R   0.112487 0.605272 0.569918 -0.359372
C10   C     C_R   0.887425 0.394284 0.429857 -0.356998
C11   C     C_R   0.207568 0.594865 0.544441 0.034163
C12   C     C_R   0.523886 0.700322 0.502102 0.861483
C13   C     C_R   0.793432 0.403795 0.457008 0.025619
C14   C     C_R   0.097626 0.451122 0.444427 0.242220
C15   C     C_R   0.901071 0.550602 0.552708 0.243028
C16   C     C_R   0.577554 0.491902 0.681290 0.885470
C17   C     C_R   0.421409 0.503115 0.318977 0.922098
C18   C     C_R   0.996081 0.460609 0.467706 0.059237
C19   C     C_R   0.003664 0.539268 0.531284 0.073118
C20   C     C_R   0.625947 0.476171 0.787457 -0.239116
C21   C     C_R   0.367972 0.499882 0.212809 -0.217724
C22   C     C_R   0.786139 0.479708 0.955223 -0.249719
C23   C     C_R   0.636581 0.458972 0.117246 -0.164968
C24   C     C_R   0.222276 0.548192 0.048274 -0.248780
C25   C     C_R   0.752927 0.492702 0.855885 0.121032
C26   C     C_R   0.255907 0.546202 0.147663 0.101176
C27   C     C_R   0.538132 0.446507 0.821805 0.352951
C28   C     C_R   0.436662 0.451325 0.175696 0.357717
C29   C     C_R   0.568525 0.460690 0.919115 -0.023954
C30   C     C_R   0.417252 0.475215 0.080481 -0.035239
C31   C     C_R   0.694811 0.466128 0.987185 0.076959
C32   C     C_R   0.303190 0.516094 0.014744 0.088389
C33   C     C_R   0.476729 0.472264 0.949844 0.087137
C34   C     C_R   0.358011 0.505928 0.884506 -0.157592
C35   C     C_R   0.509635 0.463986 0.050073 0.073134
C36   C     C_3   0.459235 0.276783 0.209482 0.093678
C37   C     C_3   0.546171 0.194851 0.274890 -0.830738
C38   C     C_3   0.428716 0.294427 0.754540 0.139812
C39   C     C_3   0.298071 0.242836 0.711895 -0.820055
C40   C     C_3   0.171058 0.595623 0.179414 -0.366314
C41   C     C_3   0.224607 0.703430 0.222035 -0.833957
C42   C     C_3   0.854566 0.528076 0.827978 -0.374911
C43   C     C_3   0.908017 0.435003 0.805480 -0.825715
C44   C     C_3   0.899898 0.642640 0.608892 -0.417987
C45   C     C_R   0.727845 0.462795 0.086020 -0.239291
C46   C     C_3   0.884869 0.745998 0.550119 -0.852602
C47   C     C_3   0.093509 0.366786 0.378392 -0.416279
C48   C     C_3   0.105181 0.256869 0.426001 -0.872936
C49   C     C_R   0.273630 0.529144 0.916953 -0.242278
C50   C     C_R   0.541567 0.811835 0.508117 -0.030169
C51   C     C_R   0.459016 0.188426 0.492723 -0.043278
C52   C     C_R   0.346254 0.035790 0.403187 -0.218775
H1    H     H_    0.824588 0.465910 0.139396 0.137343
H2    H     H_    0.332735 0.525388 0.809257 0.200726
H3    H     H_    0.358410 0.833196 0.392454 0.145134
H4    H     H_    0.641019 0.167560 0.610416 0.140455
H5    H     H_    0.723049 0.810610 0.631460 0.145623
H6    H     H_    0.279406 0.189919 0.367396 0.150735
H7    H     H_    0.264415 0.000269 0.344383 0.138022
H8    H     H_    0.737640 0.000294 0.655442 0.137240
H9    H     H_    0.433132 0.258798 0.132791 0.147261
H10   H     H_    0.374461 0.270322 0.220982 0.127001
H11   H     H_    0.567574 0.206182 0.351537 0.257682
H12   H     H_    0.186586 0.560720 0.865743 0.141909
H13   H     H_    0.501254 0.114921 0.253896 0.214342
H14   H     H_    0.633829 0.201453 0.268002 0.250127
H15   H     H_    0.483433 0.256605 0.827143 0.121910
H16   H     H_    0.471223 0.280356 0.706186 0.135356
H17   H     H_    0.237846 0.284099 0.643259 0.271358
H18   H     H_    0.300017 0.159120 0.697268 0.203218
H19   H     H_    0.258584 0.247196 0.763736 0.246262
H20   H     H_    0.228647 0.758615 0.165132 0.246328
H21   H     H_    0.319515 0.698582 0.282278 0.255606
H22   H     H_    0.164511 0.734924 0.249962 0.236554
H23   H     H_    0.710612 0.353099 0.423382 0.200061
H24   H     H_    0.078828 0.606679 0.116619 0.180570
H25   H     H_    0.151241 0.543049 0.230950 0.210805
H26   H     H_    0.956536 0.386302 0.872369 0.247413
H27   H     H_    0.834094 0.384967 0.749485 0.271961
H28   H     H_    0.975797 0.464187 0.778460 0.232213
H29   H     H_    0.820730 0.585849 0.767044 0.194340
H30   H     H_    0.930912 0.571793 0.888072 0.176481
H31   H     H_    0.957271 0.760746 0.525145 0.252845
H32   H     H_    0.793041 0.744847 0.485277 0.281888
H33   H     H_    0.892608 0.812492 0.595849 0.239892
H34   H     H_    0.291201 0.644744 0.579365 0.162554
H35   H     H_    0.822267 0.630593 0.627678 0.242547
H36   H     H_    0.985555 0.647754 0.678915 0.170518
H37   H     H_    0.084781 0.197027 0.370782 0.240815
H38   H     H_    0.040228 0.239899 0.458037 0.254182
H39   H     H_    0.200323 0.248176 0.484594 0.283054
H40   H     H_    0.005917 0.369206 0.309774 0.171568
H41   H     H_    0.169582 0.382566 0.357475 0.235448
H42   H     H_    0.127392 0.664480 0.621745 0.162980
H43   H     H_    0.871761 0.335469 0.377512 0.175472
H44   H     H_    0.883106 0.487466 0.007942 0.140714
H45   H     H_    0.137154 0.582517 0.997510 0.141401
H46   H     H_    0.668958 0.463062 0.194503 0.205374
N1    N     N_R   0.799120 0.480200 0.517090 -0.128708
N2    N     N_R   0.200880 0.519800 0.482910 -0.120253
O1    O     O_R   0.580150 0.341050 0.504560 -0.633395
O2    O     O_3   0.421672 0.403285 0.760444 -0.605591
O3    O     O_R   0.419850 0.658950 0.495440 -0.633456
O4    O     O_R   0.388090 0.353760 0.493600 -0.617547
O5    O     O_R   0.611910 0.646240 0.506400 -0.624534
O6    O     O_R   0.650890 0.490020 0.640860 -0.626518
O7    O     O_R   0.349110 0.509980 0.359140 -0.637112
O8    O     O_R   0.458830 0.502730 0.629890 -0.558692
O9    O     O_R   0.541170 0.497270 0.370110 -0.562631
O10   O     O_3   0.519867 0.377792 0.232494 -0.624211
Zn1   Zn    Zn3+2 0.628240 0.491510 0.507320 0.929312
Zn2   Zn    Zn3+2 0.371760 0.508490 0.492680 0.932679

loop_
_geom_bond_atom_site_label_1
_geom_bond_atom_site_label_2
_ccdc_geom_bond_type
C21   C26   A    
C23   C45   A    
C27   C29   A    
C47   H40   S    
C14   C18   A    
C5    H4    S    
C2    C7    A    
C42   H30   S    
C6    H3    S    
C7    C8    A    
C43   H26   S    
C15   C19   A    
C30   C35   A    
C36   C37   S    
C24   C26   A    
C15   C44   S    
O9    Zn1   S    
C38   C39   S    
C2    H8    S    
C20   C25   A    
C11   H34   S    
C43   H27   S    
C29   C33   A    
C18   C19   A    
O7    Zn2   S    
C41   H22   S    
C9    C19   A    
C13   H23   S    
C22   C25   A    
C37   H13   S    
C4    H5    S    
C44   H35   S    
C8    C52   A    
C16   O6    A    
C46   H33   S    
O5    Zn1   S    
C45   H1    S    
C49   H12   S    
C48   H38   S    
C42   H29   S    
C36   H10   S    
C37   H11   S    
C44   C46   S    
O6    Zn1   S    
C47   H41   S    
C22   C31   A    
C24   H45   S    
C12   O3    A    
C5    C7    A    
C3    C51   A    
C6    C8    A    
C28   O10   S    
C43   H28   S    
C48   H39   S    
C17   C21   S    
O8    Zn2   S    
C4    C50   A    
C11   N2    A    
C13   N1    A    
C2    C4    A    
C24   C32   A    
C52   H7    S    
C9    C11   A    
C47   C48   S    
C16   C20   S    
N1    Zn1   S    
C37   H14   S    
C33   C34   A    
C39   H17   S    
C6    C50   A    
C14   N2    A    
C1    C51   S    
C1    O4    A    
C41   H20   S    
C46   H32   S    
C40   C41   S    
C21   C28   A    
C38   H16   S    
C34   H2    S    
C23   C35   A    
C48   H37   S    
C36   O10   S    
C42   C43   S    
C36   H9    S    
C1    O1    A    
O4    Zn2   S    
C34   C49   A    
C22   H44   S    
C5    C51   A    
C15   N1    A    
C10   C13   A    
C17   O9    A    
C25   C42   S    
C12   C50   S    
C3    C52   A    
N2    Zn2   S    
C14   C47   S    
C20   C27   A    
O1    Zn1   S    
C27   O2    S    
C17   O7    A    
C38   O2    S    
C30   C32   A    
C26   C40   S    
C12   O5    A    
C10   H43   S    
C10   C18   A    
C28   C30   A    
C33   C35   A    
C39   H18   S    
C32   C49   A    
C16   O8    A    
C41   H21   S    
C46   H31   S    
C3    H6    S    
C40   H24   S    
C23   H46   S    
C38   H15   S    
C29   C31   A    
C31   C45   A    
C39   H19   S    
C40   H25   S    
O3    Zn2   S    
C44   H36   S    
C9    H42   S    
