data_mof_unit_36504.cif
_audit_creation_date              2012-10-26T19:18:51-0400
_audit_creation_method            fapswitch 2.2
_symmetry_space_group_name_H-M    P1
_symmetry_Int_Tables_number       1
_space_group_crystal_system       triclinic
_cell_length_a                    9.691768
_cell_length_b                    10.935815
_cell_length_c                    15.522042
_cell_angle_alpha                 90.085391
_cell_angle_beta                  74.065894
_cell_angle_gamma                 90.015382
_cell_volume                      1581.92932866

loop_
_atom_site_label
_atom_site_type_symbol
_atom_type_description
_atom_site_fract_x
_atom_site_fract_y
_atom_site_fract_z
_atom_type_partial_charge
C1    C     C_R   0.999545 0.265359 0.501153 0.552269
C2    C     C_R   0.231379 0.553082 0.045691 0.040985
C3    C     C_R   0.328149 0.512618 0.093518 0.033056
C4    C     C_R   0.917229 0.498826 0.672313 0.565183
C5    C     C_R   0.086110 0.572673 0.090251 -0.145209
C6    C     C_R   0.035045 0.552005 0.181989 -0.140893
C7    C     C_R   0.272299 0.487451 0.185287 -0.129131
C8    C     C_2   0.885828 0.933021 0.502257 -0.159522
C9    C     C_2   0.004836 0.866631 0.494445 -0.115096
C10   C     C_2   0.887535 0.066951 0.498280 -0.160053
C11   C     C_2   0.999804 0.133417 0.505829 -0.119067
C12   C     C_R   0.672928 0.500618 0.908456 0.020075
C13   C     C_2   0.448080 0.444715 0.441287 -0.027168
C14   C     C_2   0.604518 0.449763 0.438999 -0.026220
C15   C     C_R   0.000586 0.734655 0.498916 0.559059
C16   C     C_R   0.082831 0.500986 0.327959 0.545710
C17   C     C_R   0.872048 0.493423 0.771100 0.008693
C18   C     C_R   0.128647 0.510616 0.230000 -0.001260
C19   C     C_R   0.918195 0.459598 0.914876 -0.134237
C20   C     C_R   0.969788 0.469419 0.821545 0.249990
C21   C     C_R   0.725781 0.507411 0.814777 -0.184848
C22   C     C_3   0.170482 0.347768 0.791232 -0.007955
C23   C     C_R   0.771792 0.473476 0.958054 0.009129
C24   C     C_3   0.318039 0.333228 0.725243 -0.356909
C25   C     C_R   0.524854 0.518550 0.954026 0.039750
C26   C     C_R   0.476969 0.499934 0.048434 0.035847
C27   C     C_R   0.580089 0.473353 0.095087 -0.132437
C28   C     C_R   0.724317 0.461178 0.050623 -0.136872
C29   C     C_R   0.423843 0.557629 0.908918 -0.136776
C30   C     C_R   0.280560 0.575289 0.954199 -0.136879
Cu1   Cu    Cu3+1 0.138640 0.500020 0.499980 0.954649
Cu2   Cu    Cu3+1 0.861360 0.499980 0.500020 0.926212
H1    H     H_    0.799365 0.441386 0.089268 0.106376
H2    H     H_    0.580863 0.532712 0.557362 0.204806
H3    H     H_    0.338050 0.449344 0.224180 0.111475
H4    H     H_    0.923594 0.571203 0.215578 0.127381
H5    H     H_    0.207617 0.607021 0.917118 0.143819
H6    H     H_    0.992885 0.441720 0.953900 0.103207
H7    H     H_    0.654408 0.521371 0.773594 0.126162
H8    H     H_    0.554291 0.464825 0.166802 0.096519
H9    H     H_    0.452124 0.579783 0.838739 0.110022
H10   H     H_    0.100273 0.273188 0.778091 0.125712
H11   H     H_    0.182628 0.338032 0.860066 0.129965
H12   H     H_    0.012564 0.606765 0.054478 0.110980
H13   H     H_    0.391173 0.406284 0.736079 0.147263
H14   H     H_    0.363905 0.242886 0.734847 0.096822
H15   H     H_    0.309330 0.339021 0.655511 0.176379
H16   H     H_    0.782905 0.888328 0.510466 0.151513
H17   H     H_    0.109946 0.907630 0.482673 0.102869
H18   H     H_    0.791730 0.111572 0.490197 0.149806
H19   H     H_    0.094647 0.092513 0.517522 0.100202
H20   H     H_    0.420367 0.393896 0.388344 0.134332
H21   H     H_    0.372016 0.550671 0.549453 0.211482
H22   H     H_    0.680744 0.408384 0.381871 0.134408
N1    N     N_2   0.346430 0.498660 0.500980 -0.350751
N2    N     N_2   0.652550 0.498630 0.501000 -0.349108
O1    O     O_R   0.117050 0.321960 0.499980 -0.501047
O2    O     O_R   0.882890 0.321920 0.500020 -0.491270
O3    O     O_R   0.052910 0.500040 0.629810 -0.439631
O4    O     O_R   0.818750 0.499990 0.629840 -0.521048
O5    O     O_R   0.117110 0.678080 0.499980 -0.492382
O6    O     O_R   0.882950 0.678040 0.500020 -0.490841
O7    O     O_R   0.181250 0.500010 0.370160 -0.504131
O8    O     O_R   0.947090 0.499960 0.370190 -0.502003
O9    O     O_3   0.115870 0.464605 0.779883 -0.549361

loop_
_geom_bond_atom_site_label_1
_geom_bond_atom_site_label_2
_ccdc_geom_bond_type
C14   N2    D    
C8    H16   S    
C22   O9    S    
H2    N2    S    
C29   C30   A    
C16   O7    A    
C1    O1    A    
C13   H20   S    
Cu1   O5    S    
C19   C23   A    
Cu1   Cu2   S    
C21   H7    S    
Cu2   O2    S    
C12   C25   A    
C2    C30   A    
C7    C18   A    
C24   H14   S    
Cu1   O1    S    
C19   C20   A    
C2    C3    A    
C15   O5    A    
Cu2   O6    S    
C14   H22   S    
C30   H5    S    
C23   C28   A    
Cu2   N2    S    
C12   C23   A    
C4    O4    A    
C26   C27   A    
C22   H10   S    
C1    O2    A    
C24   H13   S    
C4    O3    A    
C8    C10   S    
C19   H6    S    
C15   O6    A    
C6    H4    S    
C28   H1    S    
C3    C7    A    
H21   N1    S    
C25   C29   A    
C5    C6    A    
C6    C18   A    
C22   C24   S    
C2    C5    A    
C11   H19   S    
C10   C11   D    
C4    C17   S    
C10   H18   S    
Cu1   O7    S    
C20   O9    S    
C17   C20   A    
C9    H17   S    
Cu2   O8    S    
C16   C18   S    
Cu1   O3    S    
C27   C28   A    
Cu2   O4    S    
C29   H9    S    
C16   O8    A    
C27   H8    S    
Cu1   N1    S    
C25   C26   A    
C13   C14   S    
C24   H15   S    
C7    H3    S    
C12   C21   A    
C5    H12   S    
C3    C26   A    
C17   C21   A    
C22   H11   S    
C9    C15   S    
C8    C9    D    
C13   N1    D    
C1    C11   S    
