data_mof_unit_51823.cif
_audit_creation_date              2012-12-10T20:49:44-0500
_audit_creation_method            fapswitch 2.2
_symmetry_space_group_name_H-M    P1
_symmetry_Int_Tables_number       1
_space_group_crystal_system       triclinic
_cell_length_a                    8.111101
_cell_length_b                    8.917507
_cell_length_c                    16.825917
_cell_angle_alpha                 89.9575
_cell_angle_beta                  86.384439
_cell_angle_gamma                 90.009407
_cell_volume                      1214.60934119

loop_
_atom_site_label
_atom_site_type_symbol
_atom_type_description
_atom_site_fract_x
_atom_site_fract_y
_atom_site_fract_z
_atom_type_partial_charge
C1    C     C_R   0.499997 0.781973 0.500086 0.988017
C2    C     C_R   0.499989 0.218023 0.500016 0.962385
C3    C     C_1   0.499997 0.934781 0.500094 -0.055843
C4    C     C_1   0.499976 0.065224 0.500065 -0.073833
C5    C     C_R   0.479360 0.500769 0.653041 1.023524
C6    C     C_R   0.520640 0.500708 0.346978 1.025460
C7    C     C_R   0.474869 0.527969 0.737546 -0.339488
C8    C     C_R   0.525200 0.527550 0.262457 -0.340891
C9    C     C_R   0.548489 0.422611 0.786054 0.308482
C10   C     C_R   0.560260 0.673432 0.234248 0.277022
C11   C     C_R   0.584101 0.462522 0.863129 0.356156
C12   C     C_R   0.522211 0.712533 0.157240 0.406636
C13   C     C_R   0.546418 0.608079 0.890963 -0.317941
C14   C     C_R   0.452665 0.604540 0.108703 -0.319561
C15   C     C_R   0.471238 0.713224 0.842728 0.406192
C16   C     C_R   0.421412 0.457619 0.136398 0.356338
C17   C     C_R   0.433968 0.672609 0.765837 0.277037
C18   C     C_R   0.457105 0.419396 0.213735 0.305866
C19   C     C_2   0.566519 0.641353 0.974857 0.538841
C20   C     C_2   0.430845 0.637563 0.024886 0.536779
N1    N     N_1   0.926360 0.500000 0.499990 0.002393
N2    N     N_1   0.073640 0.500000 0.500010 0.002531
O1    O     O_R   0.363150 0.714660 0.500000 -0.605804
O2    O     O_R   0.636850 0.285340 0.500000 -0.610488
O3    O     O_R   0.636850 0.714660 0.500000 -0.607099
O4    O     O_R   0.363150 0.285340 0.500000 -0.610971
O5    O     O_R   0.346950 0.500000 0.615800 -0.582986
O6    O     O_R   0.653050 0.500000 0.384200 -0.584248
O7    O     O_R   0.620700 0.500000 0.615800 -0.610239
O8    O     O_R   0.379300 0.500000 0.384200 -0.610969
Zn1   Zn    Zn3+2 0.317220 0.500000 0.500010 1.090993
Zn2   Zn    Zn3+2 0.682780 0.500000 0.499990 1.090605
Cl1   Cl    Cl    0.427950 0.896820 0.878088 -0.304822
Cl2   Cl    Cl    0.339184 0.320151 0.074121 -0.323988
Cl3   Cl    Cl    0.557043 0.897776 0.122208 -0.300872
Cl4   Cl    Cl    0.674189 0.328720 0.924991 -0.328352
Cl5   Cl    Cl    0.598156 0.240885 0.749547 -0.413946
Cl6   Cl    Cl    0.641976 0.810499 0.296784 -0.480609
Cl7   Cl    Cl    0.414000 0.236444 0.250393 -0.411496
Cl8   Cl    Cl    0.345761 0.806604 0.703567 -0.480940
O9    O     O_3   0.275218 0.632614 0.995522 -0.702238
H1    H     H_    0.192533 0.628095 0.041502 0.381692
O10   O     O_3   0.722245 0.643762 0.004152 -0.701586
H2    H     H_    0.804958 0.644016 0.958123 0.382261

loop_
_geom_bond_atom_site_label_1
_geom_bond_atom_site_label_2
_ccdc_geom_bond_type
C2    C4    S    
C18   Cl7   S    
O2    Zn2   S    
C15   C17   A    
C14   C20   S    
C8    C18   A    
C11   C13   A    
O9    H1    S    
C19   C20   D    
C10   Cl6   S    
O3    Zn2   S    
C9    Cl5   S    
C20   O9    S    
O4    Zn1   S    
C2    O4    A    
N1    N2    T    
C12   Cl3   S    
C1    O3    A    
C9    C11   A    
C10   C12   A    
C8    C10   A    
C11   Cl4   S    
C6    O8    A    
C12   C14   A    
C1    O1    A    
O7    Zn2   S    
C5    O7    A    
C13   C15   A    
O10   H2    S    
C2    O2    A    
O8    Zn1   S    
N1    Zn2   S    
C14   C16   A    
N2    Zn1   S    
C13   C19   S    
O5    Zn1   S    
C3    C4    T    
C7    C9    A    
O6    Zn2   S    
C16   C18   A    
C1    C3    S    
C5    C7    S    
C6    C8    S    
C16   Cl2   S    
C5    O5    A    
C15   Cl1   S    
C6    O6    A    
C19   O10   S    
C7    C17   A    
C17   Cl8   S    
O1    Zn1   S    
