data_mof_unit_17359.cif
_audit_creation_date              2012-12-10T17:31:58-0500
_audit_creation_method            fapswitch 2.2
_symmetry_space_group_name_H-M    P1
_symmetry_Int_Tables_number       1
_space_group_crystal_system       triclinic
_cell_length_a                    11.975812
_cell_length_b                    11.539829
_cell_length_c                    12.866694
_cell_angle_alpha                 90.285227
_cell_angle_beta                  94.028892
_cell_angle_gamma                 86.614405
_cell_volume                      1770.67131742

loop_
_atom_site_label
_atom_site_type_symbol
_atom_type_description
_atom_site_fract_x
_atom_site_fract_y
_atom_site_fract_z
_atom_type_partial_charge
C1    C     C_R   0.477027 0.503998 0.299554 0.882984
C2    C     C_R   0.975925 0.542906 0.532041 0.082780
C3    C     C_R   0.499604 0.281880 0.500101 0.901337
C4    C     C_R   0.500395 0.718119 0.499893 0.901588
C5    C     C_1   0.499006 0.161518 0.500214 -0.208618
C6    C     C_1   0.500991 0.838482 0.499771 -0.208525
C7    C     C_1   0.499496 0.059335 0.500113 -0.017822
C8    C     C_1   0.500498 0.940665 0.499867 -0.017884
C9    C     C_R   0.538592 0.488826 0.812125 -0.119581
C10   C     C_R   0.461416 0.511089 0.187878 -0.119581
C11   C     C_R   0.364419 0.582000 0.027454 -0.046713
C12   C     C_R   0.522975 0.495966 0.700447 0.882842
C13   C     C_R   0.635719 0.418104 0.972580 -0.046598
C14   C     C_R   0.369179 0.573674 0.136291 -0.073242
C15   C     C_R   0.630948 0.426425 0.863724 -0.073195
C16   C     C_R   0.545813 0.456956 0.133271 -0.285374
C17   C     C_R   0.454151 0.542871 0.866733 -0.285193
C18   C     C_R   0.545879 0.468585 0.026681 0.101250
C19   C     C_R   0.454184 0.531388 0.973340 0.101249
C20   C     C_R   0.720547 0.367605 0.804860 0.161852
C21   C     C_R   0.826388 0.413869 0.804809 -0.123923
C22   C     C_R   0.909528 0.360349 0.746864 -0.143357
C23   C     C_R   0.046020 0.616806 0.589197 -0.359315
C24   C     C_R   0.887335 0.260861 0.688416 -0.105228
C25   C     C_R   0.782293 0.214072 0.688547 -0.116118
C26   C     C_R   0.699128 0.266923 0.746845 -0.127942
C27   C     C_R   0.279848 0.632918 0.195181 0.162305
C28   C     C_R   0.301573 0.733890 0.252673 -0.128550
C29   C     C_R   0.218689 0.787156 0.311050 -0.116180
C30   C     C_R   0.113643 0.740454 0.311814 -0.104944
C31   C     C_R   0.091161 0.640641 0.253917 -0.143032
C32   C     C_R   0.174009 0.586733 0.195864 -0.123678
C33   C     C_R   0.266282 0.644639 0.971585 0.109733
C34   C     C_R   0.953994 0.383108 0.410907 -0.359720
C35   C     C_R   0.181463 0.582176 0.920553 -0.159913
C36   C     C_R   0.088423 0.641153 0.869138 -0.144907
C37   C     C_R   0.079725 0.762457 0.868138 -0.124938
C38   C     C_R   0.164016 0.825048 0.918777 -0.132611
C39   C     C_R   0.257136 0.766424 0.970493 -0.144688
C40   C     C_R   0.734117 0.355911 0.028489 0.109393
C41   C     C_R   0.744728 0.234138 0.028273 -0.143915
C42   C     C_R   0.838275 0.176009 0.079756 -0.132338
C43   C     C_R   0.921532 0.239075 0.131487 -0.124951
C44   C     C_R   0.911374 0.360357 0.131806 -0.145256
C45   C     C_R   0.162318 0.604042 0.581871 0.043704
C46   C     C_R   0.817910 0.418837 0.080622 -0.160500
C47   C     C_R   0.837692 0.395909 0.418182 0.043645
C48   C     C_R   0.141444 0.447862 0.462783 -0.038892
C49   C     C_R   0.858556 0.552117 0.537245 -0.038457
C50   C     C_R   0.024081 0.457047 0.468022 0.082510
H1    H     H_    0.386888 0.593542 0.824382 0.176754
H2    H     H_    0.990878 0.396442 0.746508 0.131493
H3    H     H_    0.951464 0.220193 0.642869 0.125994
H4    H     H_    0.765123 0.137149 0.643114 0.127286
H5    H     H_    0.617782 0.230444 0.745930 0.104456
H6    H     H_    0.382936 0.770288 0.253114 0.104628
H7    H     H_    0.236085 0.864333 0.356055 0.127293
H8    H     H_    0.049735 0.781436 0.357431 0.125768
H9    H     H_    0.009814 0.604606 0.254788 0.131215
H10   H     H_    0.156332 0.508652 0.152236 0.113135
H11   H     H_    0.187354 0.488167 0.921053 0.129883
H12   H     H_    0.612965 0.406125 0.175614 0.176646
H13   H     H_    0.023090 0.592942 0.829997 0.123271
H14   H     H_    0.007669 0.807921 0.828152 0.118472
H15   H     H_    0.157127 0.918973 0.918043 0.127678
H16   H     H_    0.321928 0.815580 0.009736 0.123146
H17   H     H_    0.680779 0.184612 0.988137 0.123040
H18   H     H_    0.846314 0.082101 0.079440 0.127656
H19   H     H_    0.993926 0.193997 0.171284 0.118486
H20   H     H_    0.975921 0.408945 0.171761 0.123588
H21   H     H_    0.810923 0.512841 0.081112 0.130266
H22   H     H_    0.819948 0.616744 0.586791 0.122206
H23   H     H_    0.180048 0.383239 0.413234 0.122215
H24   H     H_    0.783543 0.338788 0.374208 0.137243
H25   H     H_    0.216473 0.661143 0.625859 0.137221
H26   H     H_    0.011299 0.683873 0.638746 0.144634
H27   H     H_    0.988728 0.315980 0.361425 0.144714
H28   H     H_    0.843855 0.491696 0.848877 0.113417
N1    N     N_R   0.792200 0.479100 0.480660 -0.096254
N2    N     N_R   0.207800 0.520900 0.519340 -0.096215
O1    O     O_R   0.578300 0.494420 0.341180 -0.625474
O2    O     O_R   0.421700 0.505580 0.658820 -0.625480
O3    O     O_R   0.390690 0.507830 0.353590 -0.609064
O4    O     O_R   0.609310 0.492170 0.646410 -0.609032
O5    O     O_R   0.593810 0.327740 0.493800 -0.615864
O6    O     O_R   0.406190 0.672260 0.506200 -0.615671
O7    O     O_R   0.406190 0.341150 0.506220 -0.617542
O8    O     O_R   0.593810 0.658850 0.493780 -0.617596
Zn1   Zn    Zn3+2 0.625270 0.491050 0.491710 0.947401
Zn2   Zn    Zn3+2 0.374730 0.508950 0.508290 0.947493

loop_
_geom_bond_atom_site_label_1
_geom_bond_atom_site_label_2
_ccdc_geom_bond_type
C23   C45   A    
C3    O5    A    
C41   C42   A    
C35   C36   A    
N2    Zn2   S    
C47   N1    A    
C23   H26   S    
C26   H5    S    
C17   H1    S    
C28   H6    S    
C7    C8    S    
C41   H17   S    
C40   C46   A    
C11   C19   A    
C33   C39   A    
C13   C18   A    
C36   C37   A    
C34   H27   S    
C30   C31   A    
C11   C14   A    
C4    O6    A    
C1    O1    A    
C12   O4    A    
C18   C19   A    
C31   H9    S    
C13   C40   S    
C2    C50   A    
C17   C19   A    
C49   H22   S    
C21   H28   S    
C44   H20   S    
C14   C27   S    
C36   H13   S    
O1    Zn1   S    
O8    Zn1   S    
C48   C50   A    
C43   H19   S    
C21   C22   A    
C42   H18   S    
C16   H12   S    
C44   C46   A    
C15   C20   S    
C34   C50   A    
C3    O7    A    
C11   C33   S    
C25   H4    S    
C4    C6    S    
C10   C14   A    
C5    C7    T    
O5    Zn1   S    
C6    C8    T    
C25   C26   A    
C49   N1    A    
C43   C44   A    
C37   C38   A    
C2    C49   A    
C31   C32   A    
C38   H15   S    
C12   O2    A    
C35   H11   S    
C24   C25   A    
C46   H21   S    
C9    C17   A    
C40   C41   A    
C29   H7    S    
C13   C15   A    
O6    Zn2   S    
C39   H16   S    
C22   C24   A    
O4    Zn1   S    
C32   H10   S    
C2    C23   A    
C37   H14   S    
C22   H2    S    
O3    Zn2   S    
C28   C29   A    
C27   C32   A    
C48   H23   S    
C1    C10   S    
C47   H24   S    
C3    C5    S    
C4    O8    A    
C1    O3    A    
O2    Zn2   S    
C45   H25   S    
C48   N2    A    
C24   H3    S    
C10   C16   A    
C38   C39   A    
C20   C26   A    
C30   H8    S    
C33   C35   A    
C45   N2    A    
C9    C15   A    
C9    C12   S    
N1    Zn1   S    
C29   C30   A    
C20   C21   A    
C16   C18   A    
C42   C43   A    
O7    Zn2   S    
C27   C28   A    
C34   C47   A    
