data_mof_unit_61549.cif
_audit_creation_date              2012-12-10T16:41:37-0500
_audit_creation_method            fapswitch 2.2
_symmetry_space_group_name_H-M    P1
_symmetry_Int_Tables_number       1
_space_group_crystal_system       triclinic
_cell_length_a                    26.191333
_cell_length_b                    26.194449
_cell_length_c                    18.501685
_cell_angle_alpha                 90.003036
_cell_angle_beta                  134.935901
_cell_angle_gamma                 89.995563
_cell_volume                      8985.62876603

loop_
_atom_site_label
_atom_site_type_symbol
_atom_type_description
_atom_site_fract_x
_atom_site_fract_y
_atom_site_fract_z
_atom_type_partial_charge
C1    C     C_R   0.610568 0.749023 0.498537 0.733339
C2    C     C_2   0.006862 0.283728 0.457547 -0.276262
C3    C     C_2   0.494400 0.228778 0.432557 -0.276798
C4    C     C_2   0.506854 0.783724 0.457533 -0.276163
C5    C     C_2   0.062335 0.744492 0.513273 0.408072
C6    C     C_2   0.050251 0.243383 0.489053 0.408011
C7    C     C_2   0.562338 0.244497 0.513279 0.408028
C8    C     C_2   0.550250 0.743381 0.489051 0.407980
C9    C     C_2   0.940756 0.723060 0.436862 -0.120783
C10   C     C_2   0.945341 0.281544 0.446069 -0.118990
C11   C     C_2   0.440776 0.223035 0.436906 -0.120555
C12   C     C_R   0.612298 0.249245 0.502005 0.733091
C13   C     C_2   0.445335 0.781539 0.446057 -0.119271
C14   C     C_2   0.939701 0.755135 0.492170 -0.234993
C15   C     C_2   0.948746 0.253940 0.510306 -0.235840
C16   C     C_2   0.439695 0.255133 0.492159 -0.235121
C17   C     C_2   0.448745 0.753939 0.510303 -0.235716
C18   C     C_2   0.748784 0.471916 0.439821 -0.160514
C19   C     C_2   0.751185 0.528080 0.442221 -0.158687
C20   C     C_2   0.251174 0.971916 0.442212 -0.160348
C21   C     C_2   0.248793 0.028081 0.439830 -0.158650
C22   C     C_2   0.752735 0.443877 0.504302 -0.295479
C23   C     C_R   0.110568 0.249023 0.498537 0.733333
C24   C     C_2   0.747220 0.556125 0.498784 -0.294820
C25   C     C_2   0.247266 0.943875 0.498836 -0.295311
C26   C     C_2   0.252693 0.056125 0.504261 -0.295042
C27   C     C_2   0.808867 0.028076 0.557669 -0.160180
C28   C     C_2   0.808863 0.971919 0.560111 -0.162008
C29   C     C_2   0.308865 0.528076 0.560121 -0.159987
C30   C     C_2   0.308864 0.471919 0.557674 -0.161944
C31   C     C_2   0.748464 0.056113 0.501288 -0.292421
C32   C     C_2   0.748459 0.943888 0.495676 -0.293344
C33   C     C_2   0.248464 0.556112 0.495684 -0.292239
C34   C     C_R   0.112298 0.749244 0.502004 0.733069
C35   C     C_2   0.248458 0.443887 0.501278 -0.293287
C36   C     C_R   0.887899 0.750645 0.498703 0.833343
C37   C     C_R   0.889196 0.250654 0.501304 0.833355
C38   C     C_R   0.387898 0.250645 0.498703 0.833364
C39   C     C_R   0.389195 0.750653 0.501303 0.833367
C40   C     C_R   0.749965 0.888559 0.499657 0.849731
C41   C     C_R   0.749968 0.111441 0.500278 0.857797
C42   C     C_R   0.249965 0.388559 0.500273 0.849740
C43   C     C_R   0.249968 0.611441 0.499661 0.857765
C44   C     C_R   0.749700 0.611457 0.499739 0.859780
C45   C     C_2   0.944441 0.747837 0.887769 -0.295503
C46   C     C_R   0.750306 0.388543 0.500347 0.852501
C47   C     C_R   0.250295 0.111458 0.500334 0.859767
C48   C     C_R   0.249713 0.888543 0.499753 0.852553
C49   C     C_R   0.611308 0.749875 0.222911 0.854691
C50   C     C_R   0.611310 0.250125 0.222912 0.854184
C51   C     C_R   0.111308 0.249874 0.222911 0.854800
C52   C     C_R   0.111310 0.750125 0.222912 0.854069
C53   C     C_R   0.888668 0.749831 0.777102 0.855062
C54   C     C_R   0.888662 0.250163 0.777103 0.855719
C55   C     C_R   0.388668 0.249831 0.777102 0.854976
C56   C     C_2   0.944417 0.252146 0.887769 -0.293793
C57   C     C_R   0.388662 0.750163 0.777103 0.855806
C58   C     C_2   0.058128 0.778829 0.056038 -0.158976
C59   C     C_2   0.058112 0.221152 0.056037 -0.163114
C60   C     C_2   0.558128 0.278829 0.056038 -0.159225
C61   C     C_2   0.558112 0.721152 0.056037 -0.162860
C62   C     C_2   0.054002 0.750630 0.112265 -0.295437
C63   C     C_2   0.054000 0.249372 0.112265 -0.291336
C64   C     C_2   0.554001 0.250630 0.112264 -0.295442
C65   C     C_2   0.554000 0.749372 0.112265 -0.291337
C66   C     C_2   0.000732 0.780012 0.943721 -0.158724
C67   C     C_2   0.444441 0.247837 0.887769 -0.295517
C68   C     C_2   0.000720 0.219976 0.943720 -0.160387
C69   C     C_2   0.500732 0.280012 0.943721 -0.158479
C70   C     C_2   0.500720 0.719976 0.943720 -0.160621
C71   C     C_3   0.122477 0.792389 0.660229 -0.287780
C72   C     C_3   0.085024 0.170037 0.585227 -0.291411
C73   C     C_3   0.622400 0.292482 0.660112 -0.287745
C74   C     C_3   0.585035 0.670042 0.585245 -0.291468
C75   C     C_2   0.444417 0.752146 0.887769 -0.293793
C76   C     C_2   0.994383 0.728810 0.432520 -0.276645
H1    H     H_    0.105038 0.802710 0.093215 0.175085
H2    H     H_    0.861006 0.953260 0.616675 0.174331
H3    H     H_    0.361009 0.546730 0.616688 0.174602
H4    H     H_    0.361009 0.453261 0.605399 0.174269
H5    H     H_    0.695704 0.039163 0.454976 0.150759
H6    H     H_    0.695700 0.960844 0.436484 0.150808
H7    H     H_    0.195705 0.539161 0.436491 0.150571
H8    H     H_    0.195697 0.460842 0.454953 0.150713
H9    H     H_    0.007497 0.727430 0.078489 0.149158
H10   H     H_    0.007511 0.272594 0.078494 0.151166
H11   H     H_    0.507497 0.227430 0.078489 0.149189
H12   H     H_    0.105011 0.197255 0.093214 0.173733
H13   H     H_    0.507511 0.772595 0.078494 0.151130
H14   H     H_    0.005984 0.808247 0.906289 0.174926
H15   H     H_    0.005986 0.191750 0.906288 0.174081
H16   H     H_    0.505984 0.308247 0.906289 0.175049
H17   H     H_    0.505986 0.691750 0.906288 0.173961
H18   H     H_    0.938142 0.718290 0.921756 0.149385
H19   H     H_    0.938092 0.281678 0.921749 0.149246
H20   H     H_    0.438142 0.218290 0.921756 0.149347
H21   H     H_    0.438092 0.781678 0.921749 0.149280
H22   H     H_    0.976818 0.720218 0.360259 0.137112
H23   H     H_    0.605038 0.302710 0.093215 0.174997
H24   H     H_    0.016698 0.319842 0.440213 0.138244
H25   H     H_    0.476844 0.220147 0.360314 0.137153
H26   H     H_    0.516684 0.819837 0.440188 0.138350
H27   H     H_    0.899878 0.693644 0.390221 0.168005
H28   H     H_    0.898333 0.304810 0.387150 0.168692
H29   H     H_    0.399923 0.193599 0.390314 0.168123
H30   H     H_    0.398323 0.804801 0.387133 0.168588
H31   H     H_    0.976529 0.787189 0.531803 0.176576
H32   H     H_    0.997820 0.234179 0.574487 0.176349
H33   H     H_    0.476495 0.287204 0.531739 0.176471
H34   H     H_    0.605011 0.697255 0.093214 0.173825
H35   H     H_    0.497821 0.734182 0.574487 0.176385
H36   H     H_    0.744455 0.453255 0.383234 0.174421
H37   H     H_    0.755553 0.546737 0.394331 0.174543
H38   H     H_    0.255484 0.953255 0.394260 0.174380
H39   H     H_    0.244514 0.046739 0.383288 0.174452
H40   H     H_    0.098620 0.825526 0.607043 0.140791
H41   H     H_    0.181225 0.789385 0.708182 0.204907
H42   H     H_    0.116159 0.800092 0.712529 0.180165
H43   H     H_    0.120702 0.196724 0.651348 0.141343
H44   H     H_    0.116922 0.146025 0.579400 0.204488
H45   H     H_    0.759043 0.460828 0.563497 0.149292
H46   H     H_    0.060335 0.143936 0.600753 0.179078
H47   H     H_    0.598505 0.325585 0.606840 0.140819
H48   H     H_    0.681156 0.289517 0.708103 0.204935
H49   H     H_    0.616045 0.300215 0.712365 0.180099
H50   H     H_    0.620711 0.696733 0.651360 0.141394
H51   H     H_    0.616934 0.646027 0.579424 0.204173
H52   H     H_    0.560352 0.643942 0.600783 0.179255
H53   H     H_    0.740867 0.539182 0.545316 0.148203
H54   H     H_    0.240995 0.960820 0.545460 0.148891
H55   H     H_    0.258927 0.039183 0.563393 0.148503
H56   H     H_    0.861012 0.046728 0.605383 0.174797
O1    O     O_3   0.750030 0.750030 0.500000 -0.482909
O2    O     O_R   0.750010 0.364550 0.560050 -0.648197
O3    O     O_R   0.250010 0.135450 0.560050 -0.647810
O4    O     O_R   0.250010 0.864550 0.560050 -0.648170
O5    O     O_R   0.605390 0.780070 0.439910 -0.653583
O6    O     O_R   0.605390 0.219930 0.439910 -0.654538
O7    O     O_R   0.105390 0.280070 0.439910 -0.653844
O8    O     O_R   0.105390 0.719930 0.439910 -0.654219
O9    O     O_R   0.834580 0.719970 0.439940 -0.645537
O10   O     O_R   0.834580 0.280030 0.439940 -0.644308
O11   O     O_R   0.334580 0.219970 0.439940 -0.645260
O12   O     O_3   0.750030 0.249970 0.500000 -0.482874
O13   O     O_R   0.334580 0.780030 0.439940 -0.644601
O14   O     O_R   0.665460 0.720000 0.560050 -0.649561
O15   O     O_R   0.665460 0.280000 0.560050 -0.648899
O16   O     O_R   0.165460 0.220000 0.560050 -0.649356
O17   O     O_R   0.165460 0.780000 0.560050 -0.649217
O18   O     O_R   0.894670 0.780060 0.560110 -0.643739
O19   O     O_R   0.894670 0.219940 0.560110 -0.644995
O20   O     O_R   0.394670 0.280060 0.560110 -0.644024
O21   O     O_R   0.394670 0.719940 0.560110 -0.644691
O22   O     O_R   0.689950 0.864610 0.439940 -0.644773
O23   O     O_3   0.250030 0.250030 0.500000 -0.482904
O24   O     O_R   0.689950 0.135390 0.439940 -0.641275
O25   O     O_R   0.189950 0.364610 0.439940 -0.644764
O26   O     O_R   0.189950 0.635390 0.439940 -0.641257
O27   O     O_R   0.750020 0.635440 0.439910 -0.641980
O28   O     O_R   0.750020 0.364560 0.439910 -0.644270
O29   O     O_R   0.250020 0.135440 0.439910 -0.641949
O30   O     O_R   0.250020 0.864560 0.439910 -0.644307
O31   O     O_R   0.605400 0.780060 0.270840 -0.641425
O32   O     O_R   0.605400 0.219940 0.270840 -0.644956
O33   O     O_R   0.105400 0.280060 0.270840 -0.641106
O34   O     O_3   0.250030 0.749970 0.500000 -0.482879
O35   O     O_R   0.105400 0.719940 0.270840 -0.645275
O36   O     O_R   0.834560 0.720000 0.729150 -0.648132
O37   O     O_R   0.834560 0.280000 0.729150 -0.647612
O38   O     O_R   0.334560 0.220000 0.729150 -0.648434
O39   O     O_R   0.334560 0.780000 0.729150 -0.647322
O40   O     O_R   0.665490 0.719970 0.270840 -0.645270
O41   O     O_R   0.665490 0.280030 0.270840 -0.643122
O42   O     O_R   0.165490 0.219970 0.270840 -0.645524
O43   O     O_R   0.165490 0.780030 0.270840 -0.642870
O44   O     O_R   0.894650 0.780070 0.729170 -0.641135
O45   O     O_R   0.810120 0.864610 0.560110 -0.645239
O46   O     O_R   0.894650 0.219930 0.729170 -0.644217
O47   O     O_R   0.394650 0.280070 0.729170 -0.640885
O48   O     O_R   0.394650 0.719930 0.729170 -0.644459
O49   O     O_3   0.087982 0.745651 0.609792 -0.598980
O50   O     O_3   0.029013 0.195124 0.491588 -0.598996
O51   O     O_3   0.587985 0.245707 0.609797 -0.598969
O52   O     O_3   0.529020 0.695123 0.491601 -0.598974
O53   O     O_R   0.810120 0.135390 0.560110 -0.642256
O54   O     O_R   0.310120 0.364610 0.560110 -0.645245
O55   O     O_R   0.310120 0.635390 0.560110 -0.642252
O56   O     O_R   0.750010 0.635450 0.560050 -0.647776
Zn1   Zn    Zn3+2 0.835880 0.792950 0.585850 0.966820
Zn2   Zn    Zn3+2 0.750030 0.292900 0.414160 0.964850
Zn3   Zn    Zn3+2 0.250030 0.207100 0.414160 0.967814
Zn4   Zn    Zn3+2 0.250030 0.792900 0.414160 0.964757
Zn5   Zn    Zn3+2 0.750010 0.707110 0.585820 0.963658
Zn6   Zn    Zn3+2 0.750010 0.292890 0.585820 0.961278
Zn7   Zn    Zn3+2 0.250010 0.207110 0.585820 0.963531
Zn8   Zn    Zn3+2 0.250010 0.792890 0.585820 0.961350
Zn9   Zn    Zn3+2 0.835880 0.207050 0.585850 0.969660
Zn10  Zn    Zn3+2 0.335880 0.292950 0.585850 0.966744
Zn11  Zn    Zn3+2 0.335880 0.707050 0.585850 0.969750
Zn12  Zn    Zn3+2 0.664180 0.792950 0.414160 0.971811
Zn13  Zn    Zn3+2 0.664180 0.207050 0.414160 0.973992
Zn14  Zn    Zn3+2 0.164180 0.292950 0.414160 0.971901
Zn15  Zn    Zn3+2 0.164180 0.707050 0.414160 0.973936
Zn16  Zn    Zn3+2 0.750030 0.707100 0.414160 0.967733

loop_
_geom_bond_atom_site_label_1
_geom_bond_atom_site_label_2
_ccdc_geom_bond_type
C61   C70   S    
C58   C62   D    
C56   H19   S    
C72   H46   S    
C21   C26   D    
C27   H56   S    
C1    C8    S    
C50   C64   S    
C38   O11   A    
C71   O49   S    
O9    Zn16  S    
O29   Zn3   S    
C43   O26   A    
C36   O18   A    
O30   Zn4   S    
O44   Zn1   S    
O1    Zn1   S    
C66   H14   S    
C65   H13   S    
C4    C13   S    
C49   C65   S    
C30   C35   D    
C6    O50   S    
C50   O41   A    
C12   O15   A    
C23   O7    A    
C40   O45   A    
C18   H36   S    
O4    Zn8   S    
C3    C7    D    
C10   C15   D    
C52   O35   A    
C14   C36   S    
O38   Zn7   S    
C73   O51   S    
O6    Zn13  S    
C48   O30   A    
C20   C25   D    
C19   H37   S    
C76   H22   S    
O10   Zn2   S    
C29   C33   D    
O41   Zn2   S    
C75   H21   S    
C68   H15   S    
O15   Zn6   S    
C18   C19   S    
C17   C39   S    
C38   O20   A    
C4    C8    D    
O40   Zn16  S    
C35   C42   S    
O19   Zn9   S    
C59   H12   S    
C15   C37   S    
O3    Zn7   S    
C53   O36   A    
C58   H1    S    
O34   Zn11  S    
C24   H53   S    
C58   C66   S    
C74   H52   S    
O12   Zn9   S    
C73   H47   S    
C4    H26   S    
C11   H29   S    
C9    C76   S    
O35   Zn15  S    
C69   H16   S    
C28   H2    S    
C55   O38   A    
C21   H39   S    
O42   Zn3   S    
C41   O24   A    
C30   H4    S    
C8    O52   S    
O1    Zn16  S    
C45   C53   S    
O26   Zn15  S    
C54   O37   A    
C40   O22   A    
C1    O14   A    
C2    C6    D    
C37   O19   A    
C45   H18   S    
C17   H35   S    
C5    O49   S    
O28   Zn2   S    
C34   O17   A    
C16   H33   S    
O12   Zn6   S    
C7    C12   S    
C62   H9    S    
C54   C56   S    
O45   Zn1   S    
C37   O10   A    
C71   H41   S    
C50   O32   A    
C33   C43   S    
C28   C32   D    
C70   H17   S    
C51   C63   S    
O8    Zn15  S    
O43   Zn4   S    
C9    C14   D    
C13   H30   S    
C56   C68   D    
C27   C31   D    
C54   O46   A    
O55   Zn11  S    
C67   C69   D    
C15   H32   S    
C51   O42   A    
O33   Zn14  S    
C29   C30   S    
C59   C68   S    
C46   O2    A    
O22   Zn12  S    
C11   C16   D    
O16   Zn7   S    
C74   H51   S    
C29   H3    S    
O5    Zn12  S    
C43   O55   A    
O36   Zn5   S    
C9    H27   S    
C73   H48   S    
C46   O28   A    
C5    C34   S    
C39   O13   A    
C41   O53   A    
O14   Zn5   S    
C25   H54   S    
C33   H7    S    
C52   O43   A    
O23   Zn10  S    
O23   Zn3   S    
C61   H34   S    
C44   O56   A    
C26   C47   S    
O1    Zn5   S    
C14   H31   S    
C22   C46   S    
O46   Zn9   S    
C39   O21   A    
O56   Zn5   S    
O1    Zn12  S    
C72   H44   S    
C63   H10   S    
C67   H20   S    
C24   C44   S    
C12   O6    A    
C51   O33   A    
C42   O25   A    
C2    C10   S    
C45   C66   D    
C1    O5    A    
C22   H45   S    
C36   O9    A    
C57   O48   A    
O24   Zn13  S    
C31   C41   S    
C71   H42   S    
C47   O3    A    
C18   C22   D    
C55   O47   A    
C48   O4    A    
O34   Zn8   S    
O39   Zn8   S    
O7    Zn14  S    
O31   Zn12  S    
C60   H23   S    
C55   C67   S    
C35   H8    S    
O37   Zn6   S    
O21   Zn11  S    
O47   Zn10  S    
C7    O51   S    
C32   H6    S    
C23   O16   A    
C59   C63   D    
C31   H5    S    
C13   C17   D    
C60   C64   D    
O23   Zn7   S    
C57   C75   S    
C5    C76   D    
C10   H28   S    
C19   C24   D    
C72   O50   S    
O17   Zn8   S    
O48   Zn11  S    
C52   C62   S    
O18   Zn1   S    
C20   H38   S    
C3    H25   S    
O27   Zn16  S    
C74   H50   S    
O12   Zn2   S    
C60   C69   S    
C73   H49   S    
C6    C23   S    
C72   H43   S    
C34   O8    A    
C71   H40   S    
O34   Zn4   S    
O34   Zn15  S    
C32   C40   S    
C49   O31   A    
C3    C11   S    
O32   Zn13  S    
C2    H24   S    
O13   Zn4   S    
C47   O29   A    
C61   C65   D    
O2    Zn6   S    
C74   O52   S    
C20   C21   S    
C70   C75   D    
C49   O40   A    
C42   O54   A    
C27   C28   S    
C44   O27   A    
O11   Zn3   S    
O54   Zn10  S    
O25   Zn14  S    
O23   Zn14  S    
O53   Zn9   S    
O20   Zn10  S    
C25   C48   S    
C64   H11   S    
C26   H55   S    
C53   O44   A    
C16   C38   S    
O12   Zn13  S    
C57   O39   A    
