data_mof_unit_63270.cif
_audit_creation_date              2012-12-10T17:28:52-0500
_audit_creation_method            fapswitch 2.2
_symmetry_space_group_name_H-M    P1
_symmetry_Int_Tables_number       1
_space_group_crystal_system       triclinic
_cell_length_a                    18.785137
_cell_length_b                    18.597602
_cell_length_c                    18.718094
_cell_angle_alpha                 109.331831
_cell_angle_beta                  109.786258
_cell_angle_gamma                 109.545298
_cell_volume                      5018.34135991

loop_
_atom_site_label
_atom_site_type_symbol
_atom_type_description
_atom_site_fract_x
_atom_site_fract_y
_atom_site_fract_z
_atom_type_partial_charge
C1    C     C_R   0.619045 0.499172 0.619989 0.774911
C2    C     C_R   0.380959 0.500832 0.380011 0.774912
C3    C     C_3   0.329786 0.233721 0.494031 -0.379669
C4    C     C_3   0.670233 0.766296 0.506003 -0.379647
C5    C     C_3   0.312187 0.311014 0.500824 0.144423
C6    C     C_3   0.687812 0.688985 0.499175 0.144427
C7    C     C_3   0.190632 0.190039 0.501849 0.117375
C8    C     C_3   0.809367 0.809957 0.498147 0.117384
C9    C     C_3   0.149672 0.209486 0.427654 -0.402585
C10   C     C_3   0.850329 0.790492 0.572326 -0.402576
C11   C     C_3   0.252633 0.158201 0.483734 -0.392510
C12   C     C_3   0.747383 0.841807 0.516286 -0.392512
C13   C     C_3   0.715451 0.564778 0.782014 -0.371909
C14   C     C_3   0.284610 0.435278 0.217986 -0.371875
C15   C     C_3   0.785481 0.561162 0.850820 -0.418374
C16   C     C_3   0.214589 0.438900 0.149178 -0.418401
C17   C     C_3   0.655025 0.405030 0.676196 -0.404113
C18   C     C_3   0.344948 0.594990 0.323848 -0.404071
C19   C     C_3   0.769315 0.525227 0.676785 -0.398779
C20   C     C_3   0.230663 0.474696 0.323164 -0.398850
C21   C     C_3   0.688248 0.498716 0.687939 0.099186
C22   C     C_3   0.311757 0.501286 0.312059 0.099200
C23   C     C_R   0.380892 0.379815 0.500626 0.763972
C24   C     C_R   0.619107 0.620185 0.499373 0.763958
C25   C     C_3   0.812407 0.496939 0.805994 0.092878
C26   C     C_3   0.187593 0.503050 0.193997 0.092886
C27   C     C_3   0.727048 0.402773 0.746045 -0.023005
C28   C     C_3   0.272919 0.597241 0.253997 -0.023033
C29   C     C_3   0.842757 0.522652 0.743959 0.042465
C30   C     C_3   0.157211 0.477250 0.255978 0.042527
C31   C     C_3   0.992537 0.308519 0.805602 0.092782
C32   C     C_3   0.007461 0.691481 0.194397 0.092774
C33   C     C_R   0.000222 0.120126 0.620049 0.766013
C34   C     C_R   0.999777 0.879874 0.379951 0.765999
C35   C     C_R   0.120258 0.120385 0.500317 0.762527
C36   C     C_R   0.879742 0.879612 0.499679 0.762524
C37   C     C_R   0.004279 0.620687 0.123537 0.739356
C38   C     C_R   0.995720 0.379313 0.876462 0.739333
C39   C     C_R   0.880442 0.497265 0.876799 0.741307
C40   C     C_R   0.119558 0.502725 0.123192 0.741331
C41   C     C_3   0.904933 0.151599 0.673640 -0.392955
C42   C     C_3   0.095064 0.848402 0.326357 -0.392971
C43   C     C_3   0.062565 0.213661 0.782125 -0.376652
C44   C     C_3   0.937431 0.786337 0.217875 -0.376655
C45   C     C_3   0.021490 0.344051 0.748451 -0.020707
C46   C     C_3   0.978508 0.655948 0.251548 -0.020715
C47   C     C_3   0.061908 0.286679 0.850743 -0.413827
C48   C     C_3   0.938089 0.713320 0.149256 -0.413826
C49   C     C_3   0.898896 0.221690 0.740767 0.039250
C50   C     C_3   0.101102 0.778311 0.259233 0.039224
C51   C     C_3   0.998614 0.188329 0.687928 0.099401
C52   C     C_3   0.001384 0.811670 0.312072 0.099418
C53   C     C_3   0.023793 0.271898 0.678997 -0.409531
C54   C     C_3   0.976206 0.728102 0.321004 -0.409531
C55   C     C_3   0.309808 0.351044 0.586661 -0.384538
C56   C     C_3   0.690162 0.648961 0.413320 -0.384541
C57   C     C_3   0.245022 0.278423 0.592513 0.004676
C58   C     C_3   0.754960 0.721578 0.407474 0.004666
C59   C     C_3   0.221701 0.274691 0.422500 -0.411023
C60   C     C_3   0.778302 0.725281 0.577477 -0.411030
Cu1   Cu    Cu3+1 0.499950 0.562450 0.562440 0.901875
Cu2   Cu    Cu3+1 0.500050 0.437550 0.437560 0.901871
Cu3   Cu    Cu3+1 0.062480 0.999960 0.562430 0.902957
Cu4   Cu    Cu3+1 0.937520 0.000040 0.437570 0.902954
Cu5   Cu    Cu3+1 0.062470 0.562430 0.999950 0.895238
Cu6   Cu    Cu3+1 0.937530 0.437570 0.000050 0.895242
H1    H     H_    0.089846 0.400797 0.792987 0.179166
H2    H     H_    0.910152 0.599203 0.207013 0.179165
H3    H     H_    0.338469 0.207571 0.436785 0.176772
H4    H     H_    0.661578 0.792449 0.563268 0.176775
H5    H     H_    0.391240 0.257667 0.554024 0.147130
H6    H     H_    0.608771 0.742367 0.446029 0.147126
H7    H     H_    0.278266 0.134094 0.527737 0.160262
H8    H     H_    0.721745 0.865918 0.472289 0.160260
H9    H     H_    0.215559 0.101292 0.415728 0.152186
H10   H     H_    0.784471 0.898716 0.584294 0.152178
H11   H     H_    0.219464 0.240669 0.359725 0.171857
H12   H     H_    0.780556 0.759292 0.640265 0.171837
H13   H     H_    0.106331 0.147454 0.362940 0.175692
H14   H     H_    0.893677 0.852517 0.637046 0.175703
H15   H     H_    0.657427 0.548754 0.790761 0.166429
H16   H     H_    0.342658 0.451351 0.209278 0.166393
H17   H     H_    0.842081 0.628274 0.899672 0.173955
H18   H     H_    0.158020 0.371782 0.100279 0.173912
H19   H     H_    0.758446 0.538444 0.888777 0.149250
H20   H     H_    0.241657 0.461690 0.111276 0.149280
H21   H     H_    0.090605 0.298338 0.687854 0.136639
H22   H     H_    0.909395 0.701661 0.312147 0.136633
H23   H     H_    0.595728 0.384901 0.682760 0.130283
H24   H     H_    0.404263 0.615175 0.317318 0.130275
H25   H     H_    0.702040 0.388069 0.788649 0.177996
H26   H     H_    0.297949 0.612008 0.211431 0.177993
H27   H     H_    0.751448 0.479597 0.609308 0.148311
H28   H     H_    0.248489 0.520291 0.390637 0.148293
H29   H     H_    0.791755 0.591846 0.683560 0.157012
H30   H     H_    0.208249 0.408067 0.316362 0.157013
H31   H     H_    0.978615 0.253812 0.611274 0.186529
H32   H     H_    0.021386 0.746188 0.388726 0.186529
H33   H     H_    0.857079 0.131629 0.606097 0.148277
H34   H     H_    0.142921 0.868376 0.393902 0.148278
H35   H     H_    0.856573 0.240097 0.702127 0.089306
H36   H     H_    0.143424 0.759906 0.297877 0.089363
H37   H     H_    0.130301 0.237220 0.793859 0.175112
H38   H     H_    0.869694 0.762775 0.206141 0.175113
H39   H     H_    0.043588 0.154878 0.790532 0.171715
H40   H     H_    0.956404 0.845120 0.209467 0.171717
H41   H     H_    0.288322 0.400284 0.587884 0.159063
H42   H     H_    0.711620 0.599697 0.412061 0.159075
H43   H     H_    0.377355 0.388753 0.643808 0.149466
H44   H     H_    0.622610 0.611280 0.356187 0.149438
H45   H     H_    0.209586 0.329457 0.422961 0.148573
H46   H     H_    0.790405 0.670501 0.576986 0.148587
H47   H     H_    0.108676 0.237765 0.440429 0.165774
H48   H     H_    0.891319 0.762211 0.559536 0.165765
O1    O     O_R   0.591120 0.552750 0.643890 -0.594271
O2    O     O_R   0.408880 0.447250 0.356110 -0.594274
O3    O     O_R   0.947240 0.538460 0.091150 -0.593952
O4    O     O_R   0.052760 0.461540 0.908850 -0.593959
O5    O     O_R   0.961590 0.552710 0.908800 -0.585005
O6    O     O_R   0.038410 0.447290 0.091200 -0.585012
O7    O     O_R   0.856080 0.447270 0.908890 -0.594136
O8    O     O_R   0.143920 0.552730 0.091110 -0.594143
O9    O     O_R   0.591210 0.447270 0.538420 -0.594629
O10   O     O_R   0.408790 0.552730 0.461580 -0.594627
O11   O     O_R   0.408810 0.461590 0.552740 -0.595493
O12   O     O_R   0.591190 0.538410 0.447260 -0.595496
O13   O     O_R   0.408900 0.356100 0.447280 -0.593785
O14   O     O_R   0.591100 0.643900 0.552720 -0.593789
O15   O     O_R   0.052750 0.091090 0.643890 -0.595560
O16   O     O_R   0.947250 0.908910 0.356110 -0.595567
O17   O     O_R   0.947230 0.091150 0.538450 -0.593050
O18   O     O_R   0.052770 0.908850 0.461550 -0.593050
O19   O     O_R   0.143910 0.091120 0.552710 -0.587407
O20   O     O_R   0.856090 0.908880 0.447290 -0.587398
O21   O     O_R   0.038380 0.091180 0.447270 -0.595242
O22   O     O_R   0.961620 0.908820 0.552730 -0.595244
O23   O     O_R   0.052740 0.643910 0.091070 -0.584350
O24   O     O_R   0.947260 0.356090 0.908930 -0.584359
H49   H     H_    0.741593 0.632973 0.792703 0.172944
H50   H     H_    0.258480 0.367068 0.207259 0.172972
C61   C     C_3   0.933652 0.604012 0.782500 -0.346147
C62   C     C_3   0.954058 0.692527 0.850574 -0.815403
H51   H     H_    0.897884 0.703595 0.829508 0.239857
H52   H     H_    0.973281 0.697028 0.915443 0.253339
H53   H     H_    0.010655 0.746462 0.858824 0.222383
H54   H     H_    0.987625 0.591221 0.809098 0.218059
H55   H     H_    0.936935 0.611600 0.726973 0.175697
C63   C     C_3   0.066335 0.395831 0.217375 -0.346118
C64   C     C_3   0.045993 0.307372 0.149264 -0.815405
H56   H     H_    0.026818 0.302942 0.084427 0.253310
H57   H     H_    0.102184 0.296330 0.170346 0.239861
H58   H     H_    0.989383 0.253379 0.140933 0.222383
H59   H     H_    0.063037 0.388172 0.272868 0.175682
H60   H     H_    0.012338 0.408594 0.190786 0.218037
H61   H     H_    0.848311 0.467160 0.705168 0.088476
H62   H     H_    0.151598 0.532695 0.294765 0.088494
H63   H     H_    0.634391 0.357026 0.608537 0.187027
H64   H     H_    0.365544 0.642957 0.391506 0.187052
C65   C     C_3   0.742520 0.326709 0.702476 -0.423254
C66   C     C_3   0.668337 0.236524 0.671479 -0.876501
H65   H     H_    0.663581 0.233449 0.728060 0.248485
H66   H     H_    0.604901 0.223304 0.622730 0.254042
H67   H     H_    0.681726 0.184383 0.640202 0.234574
H68   H     H_    0.748730 0.325744 0.645269 0.199824
H69   H     H_    0.804010 0.335501 0.749554 0.192331
C67   C     C_3   0.257382 0.673247 0.297570 -0.423302
C68   C     C_3   0.331553 0.763474 0.328646 -0.876537
H70   H     H_    0.394983 0.776703 0.377415 0.254053
H71   H     H_    0.336352 0.766615 0.272104 0.248477
H72   H     H_    0.318117 0.815572 0.359923 0.234575
H73   H     H_    0.195898 0.664445 0.250468 0.192307
H74   H     H_    0.251125 0.674145 0.354737 0.199848
C69   C     C_3   0.843475 0.178554 0.776384 -0.348341
C70   C     C_3   0.887389 0.154454 0.842574 -0.815603
H75   H     H_    0.921737 0.121287 0.821608 0.239362
H76   H     H_    0.933315 0.213580 0.908722 0.254112
H77   H     H_    0.836563 0.108289 0.847967 0.221952
H78   H     H_    0.817862 0.219631 0.803692 0.219098
H79   H     H_    0.783506 0.116700 0.719268 0.176536
C71   C     C_3   0.156526 0.821446 0.223616 -0.348319
C72   C     C_3   0.112612 0.845543 0.157423 -0.815599
H80   H     H_    0.066685 0.786416 0.091274 0.254110
H81   H     H_    0.078265 0.878713 0.178387 0.239356
H82   H     H_    0.163439 0.891706 0.152029 0.221945
H83   H     H_    0.216494 0.883300 0.280732 0.176536
H84   H     H_    0.182139 0.780367 0.196312 0.219095
H85   H     H_    0.886284 0.090500 0.678172 0.155094
H86   H     H_    0.113711 0.909500 0.321823 0.155098
C73   C     C_3   0.964787 0.378499 0.704809 -0.421576
C74   C     C_3   0.011778 0.439611 0.677859 -0.873777
H87   H     H_    0.073053 0.498557 0.736386 0.249261
H88   H     H_    0.027724 0.404760 0.630238 0.253102
H89   H     H_    0.968785 0.461959 0.646570 0.234524
H90   H     H_    0.901640 0.322952 0.645643 0.199389
H91   H     H_    0.948901 0.416078 0.750571 0.194100
C75   C     C_3   0.035211 0.621498 0.295189 -0.421571
C76   C     C_3   0.988217 0.560380 0.322133 -0.873738
H92   H     H_    0.972276 0.595230 0.369759 0.253092
H93   H     H_    0.926940 0.501439 0.263605 0.249260
H94   H     H_    0.031208 0.538027 0.353415 0.234524
H95   H     H_    0.051099 0.583921 0.249427 0.194117
H96   H     H_    0.098357 0.677044 0.354357 0.199395
H97   H     H_    0.051719 0.267634 0.898040 0.174242
H98   H     H_    0.948280 0.732369 0.101961 0.174250
H99   H     H_    0.128068 0.346756 0.890528 0.149244
H100  H     H_    0.871929 0.653243 0.109468 0.149240
C77   C     C_3   0.294152 0.272119 0.674727 -0.356326
C78   C     C_3   0.256262 0.284913 0.735143 -0.898797
H101  H     H_    0.264474 0.351942 0.761675 0.240900
H102  H     H_    0.185921 0.235257 0.698123 0.267978
H103  H     H_    0.290311 0.276761 0.790720 0.243645
H104  H     H_    0.292944 0.208647 0.656665 0.222381
H105  H     H_    0.364833 0.322455 0.715377 0.192148
C79   C     C_3   0.705840 0.727899 0.325269 -0.356335
C80   C     C_3   0.743742 0.715128 0.264862 -0.898763
H106  H     H_    0.814088 0.764773 0.301897 0.267990
H107  H     H_    0.735518 0.648094 0.238305 0.240882
H108  H     H_    0.709712 0.723310 0.209303 0.243644
H109  H     H_    0.635161 0.677557 0.284605 0.192149
H110  H     H_    0.707043 0.791369 0.343343 0.222377
H111  H     H_    0.197724 0.299037 0.600975 0.131366
H112  H     H_    0.802246 0.700949 0.399000 0.131368

loop_
_geom_bond_atom_site_label_1
_geom_bond_atom_site_label_2
_ccdc_geom_bond_type
C42   H86   S    
C24   O12   A    
C1    C21   S    
C74   H87   S    
C47   H97   S    
C12   H8    S    
C3    H5    S    
C3    C11   S    
C16   H18   S    
C26   C40   S    
C59   H11   S    
C4    H4    S    
C58   H112  S    
C64   H56   S    
C68   H71   S    
C57   H111  S    
C69   C70   S    
C46   H2    S    
C60   H12   S    
Cu1   O10   S    
C60   H46   S    
Cu3   O19   S    
C3    H3    S    
C79   H109  S    
C80   H107  S    
C8    C36   S    
Cu2   O13   S    
C15   C25   S    
C69   H79   S    
C27   C65   S    
C13   H15   S    
C77   H105  S    
C41   H85   S    
C25   C29   S    
C48   H98   S    
C9    H13   S    
C56   H44   S    
C76   H93   S    
C70   H75   S    
C56   H42   S    
C34   C52   S    
C74   H89   S    
C8    C58   S    
C2    O2    A    
C73   H90   S    
C62   H51   S    
C56   C58   S    
C78   H101  S    
Cu6   O3    S    
Cu6   O24   S    
Cu1   O1    S    
C59   H45   S    
Cu5   O4    S    
C41   H33   S    
C27   H25   S    
C4    C12   S    
C18   C22   S    
C17   H63   S    
C19   H27   S    
C28   C67   S    
C6    C24   S    
C23   O11   A    
Cu5   O23   S    
C33   O17   A    
C30   H62   S    
C20   H30   S    
Cu4   O21   S    
C34   O18   A    
C67   H73   S    
C37   O23   A    
C67   H74   S    
C55   H43   S    
C16   H20   S    
C32   C48   S    
C62   H53   S    
C35   O19   A    
Cu1   Cu2   S    
C63   H60   S    
C31   C49   S    
C29   H61   S    
C36   O22   A    
C41   C49   S    
Cu2   O9    S    
C52   C54   S    
C7    C11   S    
C68   H72   S    
C43   H37   S    
C72   H81   S    
C44   H38   S    
Cu4   O20   S    
C32   C37   S    
C5    C59   S    
C17   H23   S    
C77   C78   S    
C17   C27   S    
C66   H67   S    
C6    C60   S    
C18   C28   S    
C63   C64   S    
C4    C6    S    
C11   H7    S    
C80   H108  S    
C35   O21   A    
C68   H70   S    
Cu2   O12   S    
C10   H14   S    
C49   C69   S    
C15   H17   S    
C53   H31   S    
C72   H80   S    
C17   C21   S    
C65   H69   S    
C55   H41   S    
C51   C53   S    
C79   H110  S    
C18   H24   S    
C76   H94   S    
C50   C71   S    
C80   H106  S    
C1    O9    A    
Cu2   O2    S    
C18   H64   S    
C42   C52   S    
C42   H34   S    
C73   H91   S    
C65   C66   S    
C5    C23   S    
Cu4   O17   S    
C43   H39   S    
C8    C12   S    
C29   C61   S    
C46   C54   S    
C38   O24   A    
Cu6   O7    S    
C13   C21   S    
C53   H21   S    
Cu5   O8    S    
C46   C75   S    
C13   C15   S    
C70   H77   S    
C32   C50   S    
C71   H84   S    
C61   H54   S    
C42   C50   S    
C58   C79   S    
C45   C73   S    
C40   O6    A    
C41   C51   S    
C14   H50   S    
C50   H36   S    
C44   H40   S    
C55   C57   S    
C12   H10   S    
C67   C68   S    
C47   H99   S    
C62   H52   S    
C64   H58   S    
C33   C51   S    
C63   H59   S    
C20   C22   S    
C75   H96   S    
C19   C29   S    
C13   H49   S    
C4    H6    S    
C19   H29   S    
C71   C72   S    
C23   O13   A    
C72   H82   S    
C33   O15   A    
C73   C74   S    
C7    C9    S    
C20   H28   S    
C10   C60   S    
C74   H88   S    
C19   C21   S    
C79   C80   S    
C32   C46   S    
C5    C55   S    
C8    C10   S    
Cu4   O16   S    
C75   C76   S    
C3    C5    S    
C16   C26   S    
C10   H48   S    
C44   C52   S    
Cu1   O11   S    
C30   C63   S    
C45   H1    S    
C2    O10   A    
C25   C27   S    
C40   O8    A    
C57   C77   S    
C26   C28   S    
C39   O7    A    
C31   C38   S    
C15   H19   S    
C9    H47   S    
Cu3   O22   S    
C14   C22   S    
C64   H57   S    
C11   H9    S    
C2    C22   S    
C20   C30   S    
C54   H22   S    
C43   C51   S    
C77   H104  S    
C69   H78   S    
C78   H103  S    
C39   O5    A    
C7    C35   S    
Cu3   O18   S    
Cu1   O14   S    
C14   C16   S    
Cu3   O15   S    
C76   H92   S    
C66   H65   S    
C70   H76   S    
Cu5   O5    S    
C36   O20   A    
C71   H83   S    
C61   H55   S    
C45   C53   S    
Cu3   Cu4   S    
C28   H26   S    
C31   C47   S    
C37   O3    A    
C6    C56   S    
C34   O16   A    
C78   H102  S    
Cu5   Cu6   S    
C31   C45   S    
C48   H100  S    
C24   O14   A    
C14   H16   S    
C65   H68   S    
C54   H32   S    
C38   O4    A    
Cu6   O6    S    
C1    O1    A    
C9    C59   S    
C75   H95   S    
C61   C62   S    
C43   C47   S    
C7    C57   S    
C25   C39   S    
C44   C48   S    
C49   H35   S    
C66   H66   S    
C26   C30   S    
