data_mof_unit_47535.cif
_audit_creation_date              2012-12-11T16:36:15-0500
_audit_creation_method            fapswitch 2.2
_symmetry_space_group_name_H-M    P1
_symmetry_Int_Tables_number       1
_space_group_crystal_system       triclinic
_cell_length_a                    25.575589
_cell_length_b                    7.247645
_cell_length_c                    23.59428
_cell_angle_alpha                 90.118901
_cell_angle_beta                  104.23086
_cell_angle_gamma                 89.88406
_cell_volume                      4239.27799502

loop_
_atom_site_label
_atom_site_type_symbol
_atom_type_description
_atom_site_fract_x
_atom_site_fract_y
_atom_site_fract_z
_atom_type_partial_charge
O1    O     O_R   0.438720 0.630760 0.439780 -0.530722
O2    O     O_R   0.061280 0.869240 0.060220 -0.543202
O3    O     O_R   0.561280 0.130760 0.560220 -0.528370
O4    O     O_R   0.938720 0.369240 0.939780 -0.543448
O5    O     O_R   0.546380 0.956770 0.446270 -0.523912
O6    O     O_R   0.953620 0.543230 0.053730 -0.533799
O7    O     O_R   0.453620 0.456770 0.553730 -0.526394
O8    O     O_R   0.046380 0.043230 0.946270 -0.535446
C1    C     C_R   0.562787 0.791764 0.434974 0.777699
C2    C     C_R   0.939116 0.708754 0.067354 0.750691
C3    C     C_R   0.436871 0.292304 0.565106 0.759257
C4    C     C_R   0.061030 0.208115 0.932566 0.742975
O9    O     O_R   0.438210 0.960230 0.432810 -0.530963
O10   O     O_R   0.061790 0.539770 0.067190 -0.521934
O11   O     O_R   0.561790 0.460230 0.567190 -0.531092
O12   O     O_R   0.938210 0.039770 0.932810 -0.521077
O13   O     O_R   0.452340 0.134240 0.546660 -0.543431
O14   O     O_R   0.047660 0.365760 0.953340 -0.529070
O15   O     O_R   0.547660 0.634240 0.453340 -0.543507
O16   O     O_R   0.952340 0.865760 0.046660 -0.528821
C5    C     C_R   0.419700 0.791752 0.415458 0.704337
C6    C     C_R   0.081863 0.707732 0.082603 0.732473
C7    C     C_R   0.580339 0.291861 0.584498 0.724884
C8    C     C_R   0.918190 0.207701 0.917272 0.730866
O17   O     O_3   0.504760 0.798440 0.537370 -0.379432
O18   O     O_3   0.995240 0.701560 0.962630 -0.379408
O19   O     O_3   0.495240 0.298440 0.462630 -0.379140
O20   O     O_3   0.004760 0.201560 0.037370 -0.377404
V1    V     V_3+5 0.499120 0.071860 0.493070 1.508050
V2    V     V_3+5 0.000880 0.428140 0.006930 1.501378
V3    V     V_3+5 0.500880 0.571860 0.506930 1.499705
V4    V     V_3+5 0.999120 0.928140 0.993070 1.500079
C9    C     C_R   0.710774 0.115890 0.684042 -0.107816
C10   C     C_R   0.814016 0.390173 0.785301 -0.089411
C11   C     C_R   0.289422 0.615057 0.315661 -0.098196
C12   C     C_R   0.186324 0.888777 0.214564 -0.093528
H1    H     H_    0.735452 0.992991 0.686839 0.126795
H2    H     H_    0.808174 0.514756 0.759203 0.127120
H3    H     H_    0.264610 0.492843 0.312978 0.124423
H4    H     H_    0.192152 0.012836 0.241041 0.124969
C13   C     C_R   0.662759 0.126585 0.640496 -0.087049
C14   C     C_R   0.859537 0.374847 0.832268 -0.100655
C15   C     C_R   0.337189 0.626544 0.359612 -0.113655
C16   C     C_R   0.140688 0.874264 0.167722 -0.098916
H5    H     H_    0.652174 0.011004 0.610888 0.189080
H6    H     H_    0.888032 0.487962 0.840526 0.147463
H7    H     H_    0.347335 0.512634 0.389960 0.169785
H8    H     H_    0.112093 0.987411 0.159907 0.146592
C17   C     C_R   0.629049 0.282850 0.634974 -0.134432
C18   C     C_R   0.868504 0.216535 0.868004 -0.125746
C19   C     C_R   0.371038 0.782161 0.364907 -0.131845
C20   C     C_R   0.131758 0.716632 0.131544 -0.124331
C21   C     C_R   0.644227 0.428332 0.676549 -0.020407
C22   C     C_R   0.830091 0.070575 0.854721 -0.014014
C23   C     C_R   0.356100 0.926349 0.322971 -0.017031
C24   C     C_R   0.170485 0.571241 0.143890 -0.017194
C25   C     C_R   0.693856 0.418128 0.718869 -0.179175
C26   C     C_R   0.785648 0.085898 0.806073 -0.180194
C27   C     C_R   0.306671 0.915607 0.280370 -0.179949
C28   C     C_R   0.214958 0.585181 0.192607 -0.180565
H9    H     H_    0.705203 0.527870 0.750815 0.149187
H10   H     H_    0.756027 0.976016 0.796707 0.148296
H11   H     H_    0.295471 0.024576 0.248221 0.148795
H12   H     H_    0.244741 0.475453 0.201435 0.148796
C29   C     C_R   0.727139 0.262060 0.723286 0.057753
C30   C     C_R   0.776740 0.245517 0.771664 0.055588
C31   C     C_R   0.273341 0.760110 0.276026 0.059129
C32   C     C_R   0.223719 0.743922 0.227650 0.055185
C33   C     C_R   0.400692 0.128531 0.640553 -0.217372
C34   C     C_R   0.133116 0.368052 0.896295 -0.227240
C35   C     C_R   0.590588 0.658640 0.349870 -0.219656
C36   C     C_R   0.863786 0.862131 0.098727 -0.211431
H13   H     H_    0.428441 0.018172 0.637685 0.141404
H14   H     H_    0.129306 0.481273 0.924883 0.168726
H15   H     H_    0.555505 0.569794 0.342455 0.141690
H16   H     H_    0.863468 0.967666 0.066271 0.178650
C37   C     C_R   0.366930 0.114013 0.679940 0.527653
C38   C     C_R   0.173013 0.375184 0.863982 0.513655
C39   C     C_R   0.623543 0.652193 0.310325 0.487507
C40   C     C_R   0.823689 0.868234 0.129795 0.489501
C41   C     C_R   0.329645 0.256221 0.681134 -0.037236
C42   C     C_R   0.175977 0.230278 0.825076 -0.030826
C43   C     C_R   0.669881 0.765120 0.319399 -0.026230
C44   C     C_R   0.823513 0.736557 0.173766 -0.027116
C45   C     C_R   0.327686 0.410850 0.645252 -0.247065
C46   C     C_R   0.139993 0.081966 0.819287 -0.246152
C47   C     C_R   0.680515 0.888346 0.366917 -0.236204
C48   C     C_R   0.862995 0.597019 0.183857 -0.227827
H17   H     H_    0.298404 0.518418 0.646400 0.178417
H18   H     H_    0.141993 0.973365 0.788190 0.176269
H19   H     H_    0.716540 0.972691 0.375095 0.164638
H20   H     H_    0.864271 0.498543 0.218679 0.159803
C49   C     C_R   0.361165 0.426182 0.606429 -0.019665
C50   C     C_R   0.100637 0.073764 0.851599 -0.018738
C51   C     C_R   0.646897 0.899226 0.405722 -0.006967
C52   C     C_R   0.902469 0.586995 0.151582 -0.010421
C53   C     C_R   0.398799 0.283516 0.604075 -0.172378
C54   C     C_R   0.098005 0.216336 0.892309 -0.181161
C55   C     C_R   0.601093 0.782720 0.397048 -0.170935
C56   C     C_R   0.902196 0.719427 0.107231 -0.184783
C57   C     C_R   0.308671 0.241040 0.779681 -0.106833
C58   C     C_R   0.197922 0.233938 0.727319 -0.142865
C59   C     C_R   0.730598 0.919776 0.264750 -0.192202
C60   C     C_R   0.759898 0.581080 0.224967 -0.194012
H21   H     H_    0.351429 0.244498 0.800436 0.115368
H22   H     H_    0.155181 0.231311 0.706439 0.128705
H23   H     H_    0.719567 0.053057 0.279148 0.127857
H24   H     H_    0.770247 0.448259 0.209602 0.134142
C61   C     C_R   0.271423 0.238118 0.814495 -0.104325
C62   C     C_R   0.235066 0.240330 0.692598 -0.141075
C63   C     C_R   0.768369 0.913213 0.230910 -0.085527
C64   C     C_R   0.723277 0.587200 0.260328 -0.090569
H25   H     H_    0.285982 0.237659 0.861656 0.115262
H26   H     H_    0.220421 0.242403 0.645447 0.128964
H27   H     H_    0.786658 0.041058 0.222087 0.155354
H28   H     H_    0.707956 0.458446 0.272850 0.154069
C65   C     C_R   0.215725 0.234534 0.788552 0.139853
C66   C     C_R   0.290728 0.243471 0.718440 0.141544
C67   C     C_R   0.783083 0.744033 0.209899 0.111033
C68   C     C_R   0.707756 0.756886 0.280299 0.111527
C69   C     C_2   0.607893 0.584993 0.680704 0.760554
O21   O     O_2   0.626609 0.739259 0.692962 -0.574610
O22   O     O_R   0.552635 0.554841 0.673528 -0.664797
H29   H     H_    0.532254 0.672092 0.677850 0.281982
C70   C     C_2   0.832017 0.905621 0.892140 0.746471
O23   O     O_2   0.819236 0.754943 0.869657 -0.578451
O24   O     O_R   0.845050 0.923132 0.952891 -0.670570
H30   H     H_    0.843050 0.800667 0.972919 0.271488
C71   C     C_2   0.392446 0.082400 0.318887 0.760026
O25   O     O_2   0.373731 0.236698 0.306473 -0.572420
O26   O     O_R   0.447737 0.051609 0.326368 -0.661640
H31   H     H_    0.468133 0.168517 0.322106 0.293760
C72   C     C_2   0.168921 0.409710 0.104936 0.744464
O27   O     O_2   0.181667 0.257190 0.125944 -0.576207
O28   O     O_R   0.156063 0.432975 0.044346 -0.674980
H32   H     H_    0.158563 0.313055 0.022990 0.271702
O29   O     O_3   0.364994 0.957329 0.713572 -0.541893
C73   C     C_3   0.416033 0.873914 0.734198 -0.233367
H33   H     H_    0.448619 0.977268 0.749730 0.114917
H34   H     H_    0.425384 0.782421 0.700140 0.157434
H35   H     H_    0.414599 0.785382 0.772076 0.166208
O30   O     O_3   0.206293 0.527688 0.864717 -0.545490
C74   C     C_3   0.224048 0.605223 0.921103 -0.233444
H36   H     H_    0.234922 0.498166 0.955870 0.127269
H37   H     H_    0.193269 0.702005 0.930003 0.160074
H38   H     H_    0.260946 0.687047 0.922489 0.164378
O31   O     O_3   0.610407 0.532275 0.263411 -0.561143
C75   C     C_3   0.575421 0.624397 0.216466 -0.251759
H39   H     H_    0.595059 0.748004 0.202862 0.142599
H40   H     H_    0.537012 0.663988 0.227513 0.145276
H41   H     H_    0.565236 0.529142 0.178500 0.169261
O32   O     O_3   0.785208 0.006124 0.117246 -0.559275
C76   C     C_3   0.742954 0.946563 0.070446 -0.254983
H42   H     H_    0.723840 0.818490 0.081843 0.139242
H43   H     H_    0.757248 0.925076 0.029994 0.151280
H44   H     H_    0.711480 0.055456 0.061074 0.171468
C77   C     C_2   0.352344 0.586888 0.566456 0.770811
O33   O     O_2   0.344175 0.739476 0.584813 -0.557895
O34   O     O_R   0.350396 0.562902 0.507235 -0.669691
H45   H     H_    0.342314 0.682445 0.484525 0.275564
C78   C     C_2   0.060980 0.920827 0.838404 0.781825
O35   O     O_2   0.075882 0.765242 0.829592 -0.557955
O36   O     O_R   0.006249 0.955820 0.833550 -0.662055
H46   H     H_    0.983288 0.840629 0.824199 0.290181
C79   C     C_2   0.662754 0.027516 0.456122 0.748751
O37   O     O_2   0.654171 0.987646 0.503287 -0.585432
O38   O     O_R   0.689278 0.192199 0.450098 -0.663483
H47   H     H_    0.698264 0.267692 0.487463 0.294115
C80   C     C_2   0.945080 0.443861 0.168126 0.781798
O39   O     O_2   0.933687 0.290549 0.183034 -0.557795
O40   O     O_R   0.998586 0.485887 0.168806 -0.665471
H48   H     H_    0.023795 0.377061 0.180963 0.290458

loop_
_geom_bond_atom_site_label_1
_geom_bond_atom_site_label_2
_ccdc_geom_bond_type
C26   H10   S    
C74   H38   S    
C43   C47   A    
O40   H48   S    
C48   C52   A    
O1    C5    A    
C79   O37   D    
C47   H19   S    
O19   V1    S    
O13   V1    S    
C80   O39   D    
O3    C7    A    
C59   C68   A    
C10   C14   A    
C75   H41   S    
C64   H28   S    
C40   C44   A    
O15   V3    S    
C10   C30   A    
C35   C39   A    
C24   C72   S    
C9    C29   A    
O28   H32   S    
O7    C3    A    
C18   C22   A    
O22   H29   S    
C57   C66   A    
O2    V4    S    
C37   O29   S    
C23   C27   A    
C38   O30   S    
O16   V4    S    
O4    C8    A    
C51   C55   A    
C7    C17   S    
C34   C38   A    
C50   C54   A    
C57   C61   A    
C74   H36   S    
C74   H37   S    
O1    V3    S    
O11   V3    S    
C59   C63   A    
C14   H6    S    
O3    V1    S    
C34   H14   S    
C46   C50   A    
C27   C31   A    
C45   C49   A    
C26   C30   A    
C77   O33   D    
O31   C75   S    
C2    O16   A    
C23   C71   S    
C47   C51   A    
O2    C6    A    
C33   H13   S    
O14   V2    S    
C11   C31   A    
C76   H43   S    
C11   C15   A    
C62   H26   S    
C4    C54   S    
C61   H25   S    
C60   C67   A    
C16   C20   A    
C60   H24   S    
O11   C7    A    
O12   C8    A    
C57   H21   S    
C80   O40   S    
C62   C66   A    
O10   V2    S    
C51   C79   S    
C13   C17   A    
C78   O36   S    
C1    O15   A    
C78   O35   D    
O5    V1    S    
C8    C18   S    
C49   C77   S    
C22   C70   S    
O7    V3    S    
C61   C65   A    
C31   C32   S    
O8    V4    S    
C48   H20   S    
C12   H4    S    
C75   H39   S    
C46   H18   S    
C25   C29   A    
O38   H47   S    
C64   C68   A    
C21   C25   A    
O18   V4    S    
C39   O31   S    
C42   C46   A    
C35   C55   A    
C41   C66   S    
C9    H1    S    
C24   C28   A    
C43   C68   S    
C77   O34   S    
C11   H3    S    
O5    C1    A    
C70   O24   S    
C38   C42   A    
O34   H45   S    
C37   C41   A    
O8    C4    A    
O9    C5    A    
C36   H16   S    
C76   H44   S    
C2    C56   S    
C50   C78   S    
C69   O21   D    
C58   C65   A    
C73   H34   S    
C14   C18   A    
C63   C67   A    
O6    V2    S    
C52   C80   S    
C72   O27   D    
C12   C16   A    
O26   H31   S    
C49   C53   A    
C5    C19   S    
C60   C64   A    
C71   O25   D    
C22   C26   A    
O9    V1    S    
C40   O32   S    
C3    O13   A    
C45   H17   S    
C10   H2    S    
O17   V3    S    
C44   C48   A    
C75   H40   S    
C73   H35   S    
O6    C2    A    
C63   H27   S    
C12   C32   A    
C25   H9    S    
O24   H30   S    
O12   V4    S    
O29   C73   S    
C1    C55   S    
C27   H11   S    
C33   C37   A    
C28   H12   S    
C3    C53   S    
C9    C13   A    
O10   C6    A    
O20   V2    S    
C36   C40   A    
C21   C69   S    
C35   H15   S    
C15   C19   A    
C70   O23   D    
C20   C24   A    
C44   C67   S    
C17   C21   A    
C52   C56   A    
C58   H22   S    
C6    C20   S    
C19   C23   A    
O4    V2    S    
C69   O22   S    
O36   H46   S    
C58   C62   A    
C73   H33   S    
C39   C43   A    
C34   C54   A    
O32   C76   S    
C28   C32   A    
C79   O38   S    
C29   C30   S    
C4    O14   A    
C72   O28   S    
C13   H5    S    
O30   C74   S    
C59   H23   S    
C36   C56   A    
C42   C65   S    
C76   H42   S    
C15   H7    S    
C41   C45   A    
C16   H8    S    
C71   O26   S    
C33   C53   A    
