data_mof_unit_8388.cif
_audit_creation_date              2012-12-10T19:58:54-0500
_audit_creation_method            fapswitch 2.2
_symmetry_space_group_name_H-M    P1
_symmetry_Int_Tables_number       1
_space_group_crystal_system       triclinic
_cell_length_a                    18.556698
_cell_length_b                    18.522268
_cell_length_c                    22.306501
_cell_angle_alpha                 90.029049
_cell_angle_beta                  89.997536
_cell_angle_gamma                 89.982647
_cell_volume                      7667.01370658

loop_
_atom_site_label
_atom_site_type_symbol
_atom_type_description
_atom_site_fract_x
_atom_site_fract_y
_atom_site_fract_z
_atom_type_partial_charge
C1    C     C_R   0.500000 0.999989 0.340194 0.827221
C2    C     C_R   0.860583 0.640678 0.499138 0.798978
C3    C     C_3   0.409562 0.661157 0.441667 0.038854
C4    C     C_3   0.461831 0.697407 0.485426 -0.287262
C5    C     C_3   0.497890 0.642743 0.526784 -1.021436
C6    C     C_3   0.338247 0.409877 0.442085 0.040818
C7    C     C_3   0.302182 0.462085 0.486067 -0.288082
C8    C     C_3   0.356861 0.497643 0.527673 -1.022656
C9    C     C_3   0.590525 0.338738 0.441568 0.038755
C10   C     C_3   0.538245 0.302576 0.485345 -0.287574
C11   C     C_3   0.502165 0.357317 0.526669 -1.020804
C12   C     C_3   0.306221 0.577568 0.337300 0.122684
C13   C     C_R   0.359387 0.860509 0.499132 0.798767
C14   C     C_3   0.247273 0.532560 0.306909 -0.247249
C15   C     C_3   0.277755 0.486222 0.256343 -0.952868
C16   C     C_3   0.577859 0.693034 0.337605 0.121206
C17   C     C_3   0.532630 0.751954 0.307344 -0.247442
C18   C     C_3   0.486456 0.721288 0.256801 -0.951823
C19   C     C_3   0.694071 0.422084 0.337181 0.122643
C20   C     C_3   0.753082 0.467088 0.306906 -0.247746
C21   C     C_3   0.722733 0.513305 0.256249 -0.952068
C22   C     C_3   0.422185 0.306731 0.337661 0.120984
C23   C     C_3   0.467431 0.247770 0.307420 -0.247203
C24   C     C_R   0.139430 0.359341 0.499145 0.798661
C25   C     C_3   0.513624 0.278363 0.256881 -0.951776
C26   C     C_3   0.164471 0.086087 0.946232 0.045283
C27   C     C_3   0.199765 0.033759 0.990433 -0.284839
C28   C     C_3   0.144379 0.000680 0.032778 -1.028256
C29   C     C_3   0.905922 0.160011 0.939627 0.043359
C30   C     C_3   0.957855 0.195898 0.983926 -0.285224
C31   C     C_3   0.995642 0.140740 0.023775 -1.008059
C32   C     C_3   0.838296 0.907758 0.933521 0.031078
C33   C     C_3   0.802640 0.960664 0.977112 -0.292437
C34   C     C_3   0.857494 0.996808 0.018186 -1.025629
C35   C     C_R   0.359438 0.139386 0.499208 0.811720
C36   C     C_3   0.090086 0.838684 0.939358 0.036322
C37   C     C_3   0.036979 0.802477 0.982401 -0.287619
C38   C     C_3   0.999810 0.857077 0.023129 -1.024878
C39   C     C_3   0.795496 0.082194 0.832450 0.114970
C40   C     C_3   0.734759 0.036075 0.806049 -0.253424
C41   C     C_3   0.759961 0.993908 0.751166 -0.952952
C42   C     C_3   0.078488 0.176339 0.842923 0.113591
C43   C     C_3   0.033710 0.227774 0.804139 -0.249846
C44   C     C_3   0.990341 0.186111 0.757353 -0.968261
C45   C     C_3   0.195248 0.920895 0.835445 0.130761
C46   C     C_R   0.139365 0.640600 0.499244 0.811584
C47   C     C_3   0.254757 0.964964 0.804888 -0.251432
C48   C     C_3   0.225353 0.009112 0.752619 -0.961419
C49   C     C_3   0.918269 0.796373 0.832651 0.118178
C50   C     C_3   0.964941 0.736082 0.806079 -0.251048
C51   C     C_3   0.008409 0.762486 0.752350 -0.953874
C52   C     C_3   0.846793 0.654682 0.339664 0.123179
C53   C     C_3   0.903702 0.709360 0.360377 -0.436760
C54   C     C_3   0.974273 0.673674 0.378053 -0.876872
C55   C     C_3   0.345123 0.846697 0.339753 0.123320
C56   C     C_3   0.290806 0.903904 0.360632 -0.436400
C57   C     C_R   0.640564 0.860606 0.499194 0.811998
C58   C     C_3   0.326685 0.974452 0.378362 -0.876112
C59   C     C_3   0.153280 0.345231 0.339665 0.123319
C60   C     C_3   0.096321 0.290620 0.360361 -0.437039
C61   C     C_3   0.025776 0.326386 0.378037 -0.875807
C62   C     C_3   0.654999 0.152970 0.339819 0.123232
C63   C     C_3   0.709234 0.095770 0.360810 -0.436541
C64   C     C_3   0.673271 0.025296 0.378574 -0.875754
C65   C     C_3   0.158576 0.745024 0.348711 0.090776
C66   C     C_3   0.121766 0.760642 0.288856 -0.301397
C67   C     C_3   0.071802 0.825924 0.293291 -0.987014
C68   C     C_R   0.860602 0.359444 0.499284 0.810055
C69   C     C_3   0.744719 0.841172 0.348340 0.090696
C70   C     C_3   0.760028 0.877928 0.288397 -0.301401
C71   C     C_3   0.825147 0.928026 0.292600 -0.987225
C72   C     C_3   0.841583 0.254551 0.348885 0.090847
C73   C     C_3   0.878522 0.238798 0.289094 -0.301426
C74   C     C_3   0.928496 0.173542 0.293655 -0.987051
C75   C     C_3   0.255273 0.158673 0.348306 0.090551
C76   C     C_3   0.240024 0.121856 0.288346 -0.300969
C77   C     C_3   0.174911 0.071748 0.292490 -0.987214
C78   C     C_3   0.344872 0.152452 0.838881 0.125677
C79   C     C_R   0.140562 0.639516 0.999155 0.797982
C80   C     C_3   0.401576 0.208350 0.857497 -0.438434
C81   C     C_3   0.473402 0.173603 0.872724 -0.874791
C82   C     C_3   0.846895 0.349515 0.845157 0.154170
C83   C     C_3   0.836599 0.393783 0.787975 -0.388643
C84   C     C_3   0.872179 0.358320 0.733747 -0.763952
C85   C     C_3   0.650006 0.837868 0.840532 0.119859
C86   C     C_3   0.592465 0.785752 0.864091 -0.435923
C87   C     C_3   0.523654 0.824325 0.882723 -0.872846
C88   C     C_3   0.156327 0.651781 0.840082 0.123221
C89   C     C_3   0.210465 0.594828 0.861639 -0.434978
C90   C     C_R   0.360729 0.140781 0.999024 0.796453
C91   C     C_3   0.174523 0.523993 0.878377 -0.882757
C92   C     C_3   0.657841 0.257507 0.851419 0.089982
C93   C     C_3   0.617520 0.274822 0.793482 -0.306585
C94   C     C_3   0.568927 0.340749 0.800870 -0.985436
C95   C     C_3   0.237194 0.336598 0.845976 0.093331
C96   C     C_3   0.250063 0.370939 0.784651 -0.302615
C97   C     C_3   0.315064 0.421427 0.785651 -0.987964
C98   C     C_3   0.342115 0.752889 0.849753 0.090199
C99   C     C_3   0.378438 0.735350 0.790057 -0.301389
C100  C     C_3   0.426824 0.668999 0.795304 -0.986292
C101  C     C_R   0.859360 0.360649 0.999219 0.770895
C102  C     C_3   0.747153 0.653312 0.850416 0.102419
C103  C     C_3   0.767644 0.574151 0.859347 -0.352603
C104  C     C_3   0.701099 0.525846 0.862041 -0.996738
C105  C     C_R   0.000001 0.500002 0.340219 0.826155
C106  C     C_R   0.639512 0.859302 0.999186 0.800555
C107  C     C_R   0.859950 0.639763 0.999921 0.807069
C108  C     C_R   0.639289 0.140718 0.999308 0.816723
C109  C     C_R   0.140475 0.360470 0.999187 0.809115
C110  C     C_R   0.360613 0.859428 0.999237 0.809308
C111  C     C_R   0.708546 0.761218 0.448752 -0.169421
C112  C     C_R   0.238726 0.708384 0.448854 -0.168789
C113  C     C_R   0.291427 0.238682 0.448762 -0.169383
C114  C     C_R   0.761318 0.291518 0.448915 -0.168941
C115  C     C_R   0.290459 0.760988 0.447866 -0.193719
C116  C     C_R   0.999825 0.500025 0.840212 0.816328
C117  C     C_R   0.761234 0.709547 0.447794 -0.193367
C118  C     C_R   0.709598 0.238908 0.447925 -0.193931
C119  C     C_R   0.238757 0.290368 0.447805 -0.193222
C120  C     C_R   0.206958 0.259213 0.949188 -0.171361
C121  C     C_R   0.737043 0.210460 0.948944 -0.156293
C122  C     C_R   0.792118 0.738185 0.950184 -0.143991
C123  C     C_R   0.261010 0.791789 0.948956 -0.166660
C124  C     C_R   0.789478 0.262253 0.948353 -0.210296
C125  C     C_R   0.260968 0.208860 0.947918 -0.188112
C126  C     C_R   0.209217 0.739216 0.947969 -0.195037
C127  C     C_R   0.500006 0.999644 0.840223 0.826107
C128  C     C_R   0.739177 0.789547 0.948460 -0.194627
C129  C     C_R   0.698096 0.807132 0.497489 -0.051591
C130  C     C_R   0.192864 0.698112 0.497591 -0.051515
C131  C     C_R   0.301903 0.192860 0.497517 -0.051143
C132  C     C_R   0.807047 0.301986 0.497707 -0.049364
C133  C     C_R   0.301668 0.806986 0.496937 -0.050956
C134  C     C_R   0.807165 0.698507 0.496877 -0.051013
C135  C     C_R   0.698287 0.193062 0.497038 -0.050268
C136  C     C_R   0.192868 0.301524 0.496905 -0.050671
C137  C     C_R   0.197791 0.306700 0.997275 -0.051332
C138  C     C_R   0.500000 0.999969 0.659777 0.835408
C139  C     C_R   0.692542 0.198558 0.998094 -0.052939
C140  C     C_R   0.803114 0.693655 0.999243 -0.040034
C141  C     C_R   0.306877 0.802125 0.997702 -0.051779
C142  C     C_R   0.801527 0.307368 0.997532 -0.049444
C143  C     C_R   0.307549 0.198777 0.996610 -0.048284
C144  C     C_R   0.198040 0.693276 0.997072 -0.051400
C145  C     C_R   0.693613 0.801880 0.997651 -0.054801
C146  C     C_R   0.746546 0.800318 0.545902 -0.198454
C147  C     C_R   0.199924 0.746571 0.546039 -0.199337
C148  C     C_R   0.253507 0.199799 0.545963 -0.198848
C149  C     C_R   0.000241 0.500041 0.659802 0.835087
C150  C     C_R   0.799819 0.253765 0.546269 -0.201547
C151  C     C_R   0.253570 0.800275 0.545703 -0.193361
C152  C     C_R   0.800358 0.746766 0.545581 -0.192445
C153  C     C_R   0.746208 0.200012 0.545911 -0.193333
C154  C     C_R   0.199714 0.253375 0.545644 -0.193945
C155  C     C_R   0.247584 0.301374 0.044897 -0.198652
C156  C     C_R   0.700841 0.245712 0.047340 -0.201333
C157  C     C_R   0.755943 0.702150 0.048339 -0.201515
C158  C     C_R   0.299542 0.753995 0.046298 -0.199075
C159  C     C_R   0.754463 0.299608 0.046964 -0.181774
C160  C     C_R   0.999999 0.500001 0.159776 0.834215
C161  C     C_R   0.301530 0.247996 0.044673 -0.195628
C162  C     C_R   0.245888 0.700308 0.045972 -0.192734
C163  C     C_R   0.701910 0.755602 0.047547 -0.194081
C164  C     C_1   0.000001 0.500002 0.276788 -0.180894
C165  C     C_1   0.500000 0.999985 0.276782 -0.180882
C166  C     C_1   0.500011 0.999673 0.776789 -0.182339
C167  C     C_1   0.000633 0.500186 0.776784 -0.180150
C168  C     C_1   0.500006 0.999802 0.723255 -0.175677
C169  C     C_1   0.000692 0.500193 0.723257 -0.170548
C170  C     C_1   0.999998 0.500002 0.223254 -0.175744
C171  C     C_R   0.499999 0.000012 0.159801 0.836131
C172  C     C_1   0.499999 0.000016 0.223259 -0.176519
C173  C     C_3   0.734739 0.678115 0.388643 0.758927
C174  C     C_3   0.321515 0.734465 0.388589 0.758938
C175  C     C_3   0.265288 0.321759 0.388681 0.758819
C176  C     C_3   0.678618 0.265291 0.388601 0.759034
C177  C     C_3   0.258870 0.677538 0.388514 0.806278
C178  C     C_3   0.677698 0.740729 0.388521 0.806041
C179  C     C_3   0.741274 0.322205 0.388529 0.806191
C180  C     C_3   0.322306 0.259124 0.388545 0.806063
C181  C     C_3   0.234047 0.174589 0.890278 0.748559
C182  C     C_R   0.640598 0.139498 0.499165 0.798495
C183  C     C_3   0.819186 0.236709 0.888465 0.746837
C184  C     C_3   0.763343 0.815707 0.886826 0.747445
C185  C     C_3   0.179134 0.764808 0.888015 0.757919
C186  C     C_3   0.754728 0.182083 0.887543 0.806488
C187  C     C_3   0.174909 0.235454 0.889901 0.808229
C188  C     C_3   0.241826 0.821704 0.888111 0.804799
C189  C     C_3   0.820325 0.753042 0.888445 0.813102
C190  C     C_3   0.661787 0.589997 0.441977 0.040671
C191  C     C_3   0.697863 0.537819 0.485926 -0.288166
C192  C     C_3   0.643185 0.502218 0.527479 -1.022219
H1    H     H_    0.741879 0.835076 0.584771 0.167211
H2    H     H_    0.667160 0.240045 0.086712 0.165709
H3    H     H_    0.977980 0.902529 0.996466 0.267663
H4    H     H_    0.843791 0.047633 0.839073 0.144536
H5    H     H_    0.811424 0.125374 0.800190 0.157645
H6    H     H_    0.715414 0.997548 0.840513 0.261230
H7    H     H_    0.688702 0.071007 0.793049 0.243978
H8    H     H_    0.779252 0.031522 0.715875 0.258675
H9    H     H_    0.714362 0.961874 0.732938 0.271565
H10   H     H_    0.804145 0.956274 0.763565 0.277761
H11   H     H_    0.043732 0.130649 0.857109 0.140330
H12   H     H_    0.122496 0.152552 0.815280 0.151237
H13   H     H_    0.761496 0.668525 0.087781 0.166226
H14   H     H_    0.996585 0.259192 0.832922 0.266263
H15   H     H_    0.069478 0.266499 0.780591 0.236401
H16   H     H_    0.960880 0.224339 0.728021 0.269916
H17   H     H_    0.950566 0.150201 0.779596 0.274598
H18   H     H_    0.026849 0.153064 0.728958 0.255485
H19   H     H_    0.148543 0.956865 0.844394 0.143356
H20   H     H_    0.175504 0.877723 0.804666 0.151637
H21   H     H_    0.279599 0.001789 0.838085 0.264827
H22   H     H_    0.297677 0.928701 0.787738 0.241896
H23   H     H_    0.269932 0.039890 0.731429 0.272296
H24   H     H_    0.334085 0.758726 0.085239 0.166525
H25   H     H_    0.184070 0.047967 0.768660 0.273660
H26   H     H_    0.200982 0.972906 0.718481 0.258087
H27   H     H_    0.952082 0.845325 0.838759 0.147343
H28   H     H_    0.874541 0.811394 0.800656 0.153271
H29   H     H_    0.002414 0.715969 0.840932 0.263040
H30   H     H_    0.930519 0.690234 0.791680 0.243410
H31   H     H_    0.040499 0.717083 0.733751 0.271124
H32   H     H_    0.045969 0.806136 0.766161 0.278300
H33   H     H_    0.971778 0.783015 0.716852 0.258008
H34   H     H_    0.861407 0.637444 0.293539 0.152479
H35   H     H_    0.760354 0.333620 0.086169 0.164273
H36   H     H_    0.845950 0.604402 0.365584 0.211224
H37   H     H_    0.913780 0.748834 0.323816 0.222795
H38   H     H_    0.884484 0.740439 0.399520 0.216806
H39   H     H_    0.965551 0.627684 0.408751 0.267176
H40   H     H_    0.006667 0.713739 0.402965 0.233182
H41   H     H_    0.003710 0.654985 0.337677 0.249534
H42   H     H_    0.362240 0.861321 0.293616 0.152508
H43   H     H_    0.395404 0.845585 0.365582 0.210681
H44   H     H_    0.251339 0.914186 0.324143 0.222719
H45   H     H_    0.259816 0.884696 0.399782 0.216803
H46   H     H_    0.337099 0.244113 0.083033 0.166678
H47   H     H_    0.372796 0.965510 0.408810 0.267590
H48   H     H_    0.286946 0.006898 0.403587 0.232954
H49   H     H_    0.345108 0.004053 0.337995 0.249357
H50   H     H_    0.138702 0.362424 0.293536 0.152664
H51   H     H_    0.154144 0.395544 0.365584 0.211111
H52   H     H_    0.086216 0.251122 0.323790 0.222867
H53   H     H_    0.115507 0.259558 0.399498 0.216910
H54   H     H_    0.034528 0.372412 0.408727 0.267346
H55   H     H_    0.993358 0.286388 0.402965 0.233319
H56   H     H_    0.996349 0.345039 0.337664 0.249335
H57   H     H_    0.240788 0.665620 0.084817 0.165672
H58   H     H_    0.637957 0.138249 0.293674 0.152392
H59   H     H_    0.604670 0.154187 0.365584 0.210787
H60   H     H_    0.748748 0.085363 0.324371 0.222673
H61   H     H_    0.740182 0.115056 0.399970 0.216785
H62   H     H_    0.627084 0.034354 0.408927 0.267628
H63   H     H_    0.712922 0.992907 0.403919 0.232844
H64   H     H_    0.654932 0.995577 0.338217 0.249270
H65   H     H_    0.185654 0.795009 0.363687 0.157197
H66   H     H_    0.118138 0.730419 0.382766 0.129708
H67   H     H_    0.163513 0.771655 0.254299 0.238386
H68   H     H_    0.667831 0.761677 0.086647 0.165909
H69   H     H_    0.090397 0.712651 0.274368 0.215396
H70   H     H_    0.030699 0.817483 0.328733 0.270200
H71   H     H_    0.043864 0.834100 0.249805 0.268566
H72   H     H_    0.103337 0.875289 0.303907 0.265775
H73   H     H_    0.794721 0.814188 0.363229 0.157446
H74   H     H_    0.730171 0.881745 0.382368 0.129886
H75   H     H_    0.770938 0.836044 0.253846 0.238261
H76   H     H_    0.712035 0.909303 0.274031 0.215187
H77   H     H_    0.816897 0.969109 0.328171 0.270110
H78   H     H_    0.832993 0.956116 0.249128 0.268512
H79   H     H_    0.612619 0.564170 0.423376 0.157273
H80   H     H_    0.874527 0.896445 0.302922 0.265750
H81   H     H_    0.814428 0.204613 0.363829 0.157240
H82   H     H_    0.881949 0.269159 0.383008 0.129723
H83   H     H_    0.836849 0.227690 0.254490 0.238201
H84   H     H_    0.909906 0.286760 0.274606 0.215520
H85   H     H_    0.969524 0.182084 0.329145 0.270178
H86   H     H_    0.956527 0.165265 0.250215 0.268502
H87   H     H_    0.896953 0.124195 0.304273 0.265779
H88   H     H_    0.205261 0.185689 0.363162 0.157483
H89   H     H_    0.269778 0.118133 0.382342 0.129864
H90   H     H_    0.643634 0.637341 0.468259 0.174517
H91   H     H_    0.229140 0.163708 0.253798 0.238570
H92   H     H_    0.288037 0.090478 0.274000 0.215301
H93   H     H_    0.183158 0.030655 0.328018 0.270134
H94   H     H_    0.167083 0.043667 0.248986 0.268751
H95   H     H_    0.125522 0.103318 0.302834 0.265743
H96   H     H_    0.358048 0.134670 0.792597 0.152325
H97   H     H_    0.346024 0.102672 0.865413 0.214464
H98   H     H_    0.409374 0.247718 0.820453 0.224601
H99   H     H_    0.383642 0.239302 0.897169 0.217537
H100  H     H_    0.466890 0.130059 0.906250 0.263826
H101  H     H_    0.728047 0.495929 0.461189 0.300283
H102  H     H_    0.508087 0.215084 0.893285 0.238618
H103  H     H_    0.499325 0.151939 0.831691 0.248746
H104  H     H_    0.905230 0.341001 0.853028 0.207865
H105  H     H_    0.822594 0.381061 0.882300 0.081435
H106  H     H_    0.778053 0.400639 0.779004 0.225302
H107  H     H_    0.860299 0.448094 0.794576 0.170532
H108  H     H_    0.930988 0.352353 0.741484 0.252954
H109  H     H_    0.863879 0.392647 0.693541 0.232268
H110  H     H_    0.848030 0.304480 0.724991 0.274296
H111  H     H_    0.634511 0.853652 0.794260 0.153080
H112  H     H_    0.165276 0.741997 0.584928 0.166848
H113  H     H_    0.736120 0.567618 0.514708 0.210805
H114  H     H_    0.653008 0.889124 0.865319 0.209295
H115  H     H_    0.579879 0.745338 0.828795 0.219258
H116  H     H_    0.612792 0.755350 0.903257 0.219656
H117  H     H_    0.534906 0.872489 0.910380 0.266868
H118  H     H_    0.491855 0.787122 0.911056 0.233564
H119  H     H_    0.492352 0.840820 0.842670 0.247831
H120  H     H_    0.139532 0.636628 0.793972 0.153571
H121  H     H_    0.105949 0.653109 0.865738 0.209916
H122  H     H_    0.250845 0.584980 0.825760 0.221923
H123  H     H_    0.240329 0.613997 0.901415 0.216989
H124  H     H_    0.620992 0.542599 0.559317 0.278446
H125  H     H_    0.128492 0.532556 0.909065 0.267536
H126  H     H_    0.214395 0.490801 0.902853 0.233328
H127  H     H_    0.155895 0.495342 0.837562 0.251243
H128  H     H_    0.689424 0.305958 0.864237 0.161887
H129  H     H_    0.619100 0.246836 0.887932 0.127184
H130  H     H_    0.657235 0.285683 0.757270 0.234270
H131  H     H_    0.584389 0.227676 0.779874 0.222247
H132  H     H_    0.528639 0.331418 0.836842 0.269136
H133  H     H_    0.539843 0.351213 0.758249 0.267613
H134  H     H_    0.601635 0.389089 0.812220 0.269579
H135  H     H_    0.669866 0.458729 0.553584 0.271413
H136  H     H_    0.288451 0.312148 0.861216 0.157526
H137  H     H_    0.221381 0.378353 0.878634 0.131161
H138  H     H_    0.259883 0.327731 0.751006 0.239936
H139  H     H_    0.201340 0.401527 0.770752 0.214213
H140  H     H_    0.308134 0.463785 0.820348 0.271274
H141  H     H_    0.320944 0.447877 0.741263 0.268765
H142  H     H_    0.365008 0.390454 0.795340 0.265427
H143  H     H_    0.314579 0.703625 0.865660 0.157799
H144  H     H_    0.382903 0.767619 0.883434 0.130915
H145  H     H_    0.336421 0.724688 0.755645 0.239616
H146  H     H_    0.598346 0.478518 0.501269 0.266724
H147  H     H_    0.410945 0.782308 0.775008 0.213979
H148  H     H_    0.467430 0.676769 0.831252 0.270304
H149  H     H_    0.455291 0.659872 0.752178 0.267349
H150  H     H_    0.393995 0.620453 0.805754 0.265037
H151  H     H_    0.717549 0.658315 0.807322 0.184020
H152  H     H_    0.708968 0.669912 0.886008 0.130361
H153  H     H_    0.802450 0.556653 0.821571 0.217678
H154  H     H_    0.798596 0.568059 0.901594 0.216099
H155  H     H_    0.665561 0.542524 0.899647 0.275115
H156  H     H_    0.717758 0.468982 0.869407 0.257433
H157  H     H_    0.435261 0.611830 0.423068 0.157556
H158  H     H_    0.670598 0.529029 0.819286 0.266303
H159  H     H_    0.362387 0.643027 0.468043 0.174489
H160  H     H_    0.503346 0.727804 0.460515 0.300177
H161  H     H_    0.432147 0.735626 0.514372 0.210293
H162  H     H_    0.457942 0.620484 0.558882 0.278025
H163  H     H_    0.541445 0.669611 0.552630 0.271273
H164  H     H_    0.258208 0.165132 0.584856 0.166907
H165  H     H_    0.521464 0.597838 0.500466 0.266492
H166  H     H_    0.387428 0.435684 0.423506 0.157253
H167  H     H_    0.356378 0.362537 0.468341 0.174476
H168  H     H_    0.272045 0.504000 0.461356 0.300294
H169  H     H_    0.263885 0.432317 0.514809 0.210497
H170  H     H_    0.379047 0.457231 0.559454 0.278443
H171  H     H_    0.330179 0.541105 0.553846 0.271581
H172  H     H_    0.401698 0.521377 0.501496 0.266872
H173  H     H_    0.564820 0.388011 0.422923 0.157556
H174  H     H_    0.637678 0.356944 0.467944 0.174525
H175  H     H_    0.834305 0.258565 0.585248 0.162802
H176  H     H_    0.496746 0.272115 0.460448 0.300218
H177  H     H_    0.567923 0.264431 0.514325 0.210344
H178  H     H_    0.542089 0.379613 0.558785 0.278055
H179  H     H_    0.458579 0.330504 0.552500 0.271419
H180  H     H_    0.478630 0.402190 0.500329 0.266362
H181  H     H_    0.353096 0.542142 0.347027 0.144895
H182  H     H_    0.325955 0.620250 0.306099 0.150427
H183  H     H_    0.221375 0.497181 0.340626 0.263903
H184  H     H_    0.205002 0.568394 0.288111 0.239642
H185  H     H_    0.233544 0.454853 0.235196 0.271340
H186  H     H_    0.258558 0.835117 0.584491 0.165808
H187  H     H_    0.318426 0.447774 0.274091 0.279068
H188  H     H_    0.303183 0.520955 0.221716 0.255329
H189  H     H_    0.542677 0.645996 0.347450 0.144599
H190  H     H_    0.620414 0.673335 0.306288 0.150576
H191  H     H_    0.497236 0.777736 0.341135 0.263588
H192  H     H_    0.568181 0.794464 0.288548 0.239839
H193  H     H_    0.454855 0.765467 0.235792 0.271239
H194  H     H_    0.448346 0.680304 0.274532 0.278921
H195  H     H_    0.521207 0.696066 0.222066 0.255396
H196  H     H_    0.647144 0.457494 0.346810 0.144923
H197  H     H_    0.835166 0.741931 0.584348 0.166152
H198  H     H_    0.674457 0.379341 0.305950 0.150498
H199  H     H_    0.778829 0.502561 0.340666 0.263968
H200  H     H_    0.795450 0.431252 0.288229 0.239676
H201  H     H_    0.766993 0.544655 0.235176 0.271194
H202  H     H_    0.681986 0.551767 0.273890 0.279026
H203  H     H_    0.697434 0.478486 0.221587 0.255615
H204  H     H_    0.457361 0.353782 0.347515 0.144529
H205  H     H_    0.379651 0.326389 0.306327 0.150595
H206  H     H_    0.502811 0.222038 0.341224 0.263633
H207  H     H_    0.431890 0.205229 0.288625 0.239933
H208  H     H_    0.741095 0.165331 0.584759 0.164385
H209  H     H_    0.545243 0.234156 0.235893 0.271214
H210  H     H_    0.551718 0.319384 0.274611 0.278950
H211  H     H_    0.478886 0.303522 0.222130 0.255217
H212  H     H_    0.115306 0.060252 0.927705 0.153397
H213  H     H_    0.146827 0.133746 0.972394 0.171058
H214  H     H_    0.228082 0.990368 0.965923 0.298590
H215  H     H_    0.239389 0.062908 0.018436 0.210391
H216  H     H_    0.122110 0.042784 0.063023 0.279367
H217  H     H_    0.170347 0.958177 0.060447 0.272046
H218  H     H_    0.099657 0.976189 0.006921 0.269355
H219  H     H_    0.164956 0.258317 0.584440 0.166039
H220  H     H_    0.931883 0.111139 0.920517 0.159223
H221  H     H_    0.858530 0.141122 0.965312 0.173553
H222  H     H_    0.998392 0.228171 0.959457 0.302149
H223  H     H_    0.927612 0.232526 0.013896 0.207743
H224  H     H_    0.956458 0.116046 0.055283 0.276585
H225  H     H_    0.038397 0.167916 0.050313 0.269972
H226  H     H_    0.020600 0.097599 0.996321 0.264185
H227  H     H_    0.885868 0.934248 0.912811 0.158683
H228  H     H_    0.859002 0.862319 0.960672 0.179117
H229  H     H_    0.772134 0.001994 0.952070 0.298118
H230  H     H_    0.243824 0.337128 0.083208 0.167627
H231  H     H_    0.765077 0.931311 0.006649 0.218711
H232  H     H_    0.878159 0.957376 0.051482 0.278896
H233  H     H_    0.831369 0.041891 0.042810 0.272289
H234  H     H_    0.903376 0.018238 0.991932 0.264810
H235  H     H_    0.064693 0.887887 0.920272 0.158944
H236  H     H_    0.136733 0.857131 0.966264 0.173411
H237  H     H_    0.996098 0.771989 0.956817 0.299800
H238  H     H_    0.066121 0.764443 0.011848 0.212859
H239  H     H_    0.038550 0.878408 0.056660 0.278143
H240  H     H_    0.954837 0.830445 0.047403 0.272238
O1    O     O_3   0.500000 0.000000 0.500000 -0.483523
O2    O     O_R   0.560750 0.000000 0.867980 -0.662575
O3    O     O_R   1.000000 0.560750 0.867980 -0.665537
O4    O     O_R   0.439250 0.000000 0.867980 -0.661144
O5    O     O_R   0.560720 0.000000 0.632020 -0.638235
O6    O     O_R   1.000000 0.560720 0.632020 -0.636956
O7    O     O_R   0.439280 0.000000 0.632020 -0.638562
O8    O     O_R   0.000000 0.439280 0.632020 -0.642700
O9    O     O_R   0.060720 0.500000 0.132020 -0.638585
O10   O     O_R   0.500000 0.060720 0.132020 -0.638603
O11   O     O_R   0.939280 0.500000 0.132020 -0.638872
O12   O     O_3   0.000000 0.500000 0.500000 -0.482960
O13   O     O_R   0.500000 0.939280 0.132020 -0.638375
O14   O     O_R   0.585450 0.146130 0.465380 -0.670392
O15   O     O_R   0.853870 0.585450 0.465380 -0.669578
O16   O     O_R   0.414550 0.853870 0.465380 -0.670405
O17   O     O_R   0.146130 0.414550 0.465380 -0.669349
O18   O     O_R   0.414550 0.146130 0.465380 -0.614624
O19   O     O_R   0.146130 0.585450 0.465380 -0.614385
O20   O     O_R   0.585450 0.853870 0.465380 -0.614713
O21   O     O_R   0.853870 0.414550 0.465380 -0.614171
O22   O     O_R   0.085450 0.646130 0.965380 -0.672012
O23   O     O_3   0.000000 0.500000 0.000000 -0.481824
O24   O     O_R   0.353870 0.085450 0.965380 -0.663054
O25   O     O_R   0.914550 0.353870 0.965380 -0.671014
O26   O     O_R   0.646130 0.914550 0.965380 -0.673184
O27   O     O_R   0.914550 0.646130 0.965380 -0.616467
O28   O     O_R   0.646130 0.085450 0.965380 -0.612347
O29   O     O_R   0.085450 0.353870 0.965380 -0.613900
O30   O     O_R   0.353870 0.914550 0.965380 -0.614699
O31   O     O_R   0.353850 0.914510 0.534610 -0.640472
O32   O     O_R   0.085490 0.353850 0.534610 -0.640525
O33   O     O_R   0.646150 0.085490 0.534610 -0.640477
O34   O     O_3   0.500000 0.000000 0.000000 -0.483625
O35   O     O_R   0.914510 0.646150 0.534610 -0.640651
O36   O     O_R   0.646150 0.914510 0.534610 -0.651844
O37   O     O_R   0.914510 0.353850 0.534610 -0.653025
O38   O     O_R   0.353850 0.085490 0.534610 -0.651909
O39   O     O_R   0.085490 0.646150 0.534610 -0.652064
O40   O     O_R   0.853850 0.414510 0.034610 -0.637915
O41   O     O_R   0.585490 0.853850 0.034610 -0.639412
O42   O     O_R   0.146150 0.585490 0.034610 -0.640377
O43   O     O_R   0.414510 0.146150 0.034610 -0.642651
O44   O     O_R   0.146150 0.414510 0.034610 -0.651508
O45   O     O_R   0.500000 0.939250 0.367980 -0.661782
O46   O     O_R   0.414510 0.853850 0.034610 -0.651770
O47   O     O_R   0.853850 0.585490 0.034610 -0.653073
O48   O     O_R   0.585490 0.146150 0.034610 -0.652794
O49   O     O_3   0.707685 0.605769 0.392345 -0.675486
O50   O     O_3   0.393636 0.707032 0.392016 -0.676173
O51   O     O_3   0.292361 0.394100 0.392435 -0.675457
O52   O     O_3   0.606500 0.292754 0.391956 -0.676131
O53   O     O_3   0.281060 0.604723 0.392929 -0.694983
O54   O     O_3   0.605088 0.718365 0.393143 -0.695262
O55   O     O_3   0.719091 0.395034 0.392862 -0.694988
O56   O     O_R   0.060750 0.500000 0.367980 -0.661634
O57   O     O_3   0.394920 0.281473 0.393190 -0.695245
O58   O     O_3   0.210641 0.101178 0.896649 -0.674697
O59   O     O_3   0.890191 0.206449 0.890404 -0.670338
O60   O     O_3   0.790882 0.888113 0.885732 -0.673950
O61   O     O_3   0.107034 0.792511 0.890099 -0.675504
O62   O     O_3   0.774660 0.108491 0.889499 -0.693936
O63   O     O_3   0.103031 0.211172 0.895860 -0.691227
O64   O     O_3   0.219650 0.894642 0.891586 -0.693936
O65   O     O_3   0.892994 0.775744 0.890080 -0.695909
O66   O     O_3   0.778672 0.687821 0.336775 -0.672285
O67   O     O_R   0.500000 0.060750 0.367980 -0.661767
O68   O     O_3   0.311745 0.778618 0.336831 -0.672131
O69   O     O_3   0.221380 0.312040 0.336794 -0.672160
O70   O     O_3   0.688436 0.221016 0.336883 -0.672255
O71   O     O_3   0.207095 0.686751 0.341261 -0.656006
O72   O     O_3   0.686643 0.792443 0.341133 -0.656039
O73   O     O_3   0.793133 0.312859 0.341344 -0.656032
O74   O     O_3   0.313366 0.207382 0.341136 -0.655947
O75   O     O_3   0.276120 0.184310 0.837356 -0.672610
O76   O     O_3   0.811024 0.283323 0.838465 -0.656462
O77   O     O_3   0.716799 0.802155 0.837331 -0.683919
O78   O     O_R   0.939250 0.500000 0.367980 -0.661692
O79   O     O_3   0.189734 0.719821 0.836835 -0.672152
O80   O     O_3   0.701425 0.195489 0.842116 -0.658404
O81   O     O_3   0.180845 0.285509 0.841060 -0.650399
O82   O     O_3   0.294440 0.811735 0.841607 -0.656976
O83   O     O_3   0.810931 0.695467 0.845924 -0.660701
O84   O     O_R   0.000000 0.439250 0.867980 -0.655511
Zn1   Zn    Zn3+2 0.586760 0.000000 0.549450 0.952101
Zn2   Zn    Zn3+2 0.913280 0.500000 0.450540 0.935475
Zn3   Zn    Zn3+2 0.500000 0.913280 0.450540 0.935193
Zn4   Zn    Zn3+2 0.086720 0.500000 0.450540 0.935974
Zn5   Zn    Zn3+2 1.000000 0.586720 0.950540 0.935690
Zn6   Zn    Zn3+2 0.413280 0.000000 0.950540 0.938899
Zn7   Zn    Zn3+2 0.000000 0.413280 0.950540 0.943082
Zn8   Zn    Zn3+2 0.586720 0.000000 0.950540 0.934463
Zn9   Zn    Zn3+2 1.000000 0.586760 0.549450 0.953017
Zn10  Zn    Zn3+2 0.413240 0.000000 0.549450 0.952305
Zn11  Zn    Zn3+2 0.000000 0.413240 0.549450 0.947327
Zn12  Zn    Zn3+2 0.086760 0.500000 0.049450 0.953147
Zn13  Zn    Zn3+2 0.500000 0.086760 0.049450 0.953575
Zn14  Zn    Zn3+2 0.913240 0.500000 0.049450 0.956934
Zn15  Zn    Zn3+2 0.500000 0.913240 0.049450 0.952473
Zn16  Zn    Zn3+2 0.500000 0.086720 0.450540 0.935155

loop_
_geom_bond_atom_site_label_1
_geom_bond_atom_site_label_2
_ccdc_geom_bond_type
C120  C187  S    
C74   H85   S    
C107  O27   A    
C52   O66   S    
O12   Zn9   S    
C132  C150  A    
C19   C20   S    
C133  C151  A    
C181  C187  S    
C59   O69   S    
C20   H200  S    
C96   H138  S    
C11   H180  S    
C2    C134  S    
C92   O80   S    
C180  O57   S    
C115  C174  S    
C69   H73   S    
C128  C145  A    
C110  O46   A    
O12   Zn2   S    
O34   Zn13  S    
C38   H3    S    
O38   Zn10  S    
C150  H175  S    
C54   H40   S    
C107  C140  S    
C11   H178  S    
C187  O81   S    
C27   H215  S    
C183  O76   S    
C176  C179  S    
C184  O60   S    
O29   Zn7   S    
C51   H31   S    
C94   H134  S    
C8    H170  S    
C42   O63   S    
C17   H192  S    
C90   C143  S    
C112  C177  S    
C86   H116  S    
C63   H60   S    
C174  O50   S    
C59   C60   S    
O34   Zn6   S    
C103  H153  S    
C41   H8    S    
C32   H228  S    
C16   O54   S    
C48   H25   S    
C45   C47   S    
C87   H119  S    
C98   H143  S    
C88   H120  S    
O17   Zn4   S    
C72   H81   S    
C157  H13   S    
O22   Zn5   S    
C120  C125  A    
C4    C5    S    
C123  C126  A    
O23   Zn7   S    
C161  H46   S    
C160  O11   A    
C16   H190  S    
C68   O21   A    
C65   H65   S    
C43   C44   S    
C37   C38   S    
C138  O7    A    
C97   H142  S    
C44   H18   S    
C71   H77   S    
O32   Zn11  S    
C123  C141  A    
C90   O43   A    
C105  C164  S    
O33   Zn1   S    
C10   H177  S    
C174  C177  S    
C13   O16   A    
C84   H110  S    
C104  H158  S    
C85   H111  S    
C14   H183  S    
C151  H186  S    
O12   Zn11  S    
O27   Zn5   S    
C72   H82   S    
C100  H149  S    
C116  O3    A    
C155  H230  S    
C22   H204  S    
C102  H151  S    
C175  O51   S    
C102  O83   S    
C122  C189  S    
C92   H129  S    
C16   H189  S    
C117  C173  S    
C138  O5    A    
C50   H30   S    
O56   Zn4   S    
C37   H238  S    
C13   C133  S    
C76   H92   S    
C126  C185  S    
C5    H163  S    
C77   H93   S    
C72   C73   S    
C152  H197  S    
C67   H71   S    
C7    H169  S    
C104  H155  S    
C70   H76   S    
C6    C7    S    
C40   H7    S    
O12   Zn4   S    
C31   H224  S    
C34   H234  S    
C98   O82   S    
C31   H226  S    
C28   H218  S    
C80   H98   S    
C30   C31   S    
C105  O78   A    
C94   H132  S    
C8    H172  S    
C88   H121  S    
C69   C70   S    
C81   H100  S    
C57   O20   A    
C83   H106  S    
C62   H58   S    
O23   Zn14  S    
C20   C21   S    
C98   C99   S    
C123  C188  S    
C22   C23   S    
C29   H221  S    
O25   Zn7   S    
C41   H10   S    
C19   H196  S    
C143  C161  A    
C182  O33   A    
C87   H117  S    
C190  C191  S    
C22   O57   S    
C69   O72   S    
C147  C151  A    
O10   Zn13  S    
C7    C8    S    
C110  O30   A    
C6    H167  S    
O48   Zn13  S    
C192  H124  S    
C49   H27   S    
C29   H220  S    
C149  C169  S    
C21   H202  S    
C36   C37   S    
C28   H216  S    
C14   H184  S    
C127  C166  S    
C85   C86   S    
C91   H126  S    
O2    Zn8   S    
C158  H24   S    
C47   H22   S    
C47   H21   S    
O43   Zn13  S    
C137  C155  A    
C138  C168  S    
C44   H17   S    
C95   O81   S    
C36   H235  S    
O9    Zn12  S    
C92   H128  S    
C46   O39   A    
C185  O79   S    
C187  O63   S    
C89   C91   S    
C66   H69   S    
C9    C10   S    
C85   O77   S    
C53   H38   S    
C119  C175  S    
C24   C136  S    
C66   C67   S    
C48   H23   S    
C118  C176  S    
C60   H53   S    
O7    Zn10  S    
C43   H14   S    
C166  C168  T    
C38   H239  S    
C177  O71   S    
C24   O17   A    
C77   H95   S    
C78   H96   S    
C52   H36   S    
C33   C34   S    
O36   Zn1   S    
O15   Zn2   S    
C12   O53   S    
C183  C186  S    
C39   C40   S    
C16   C17   S    
C25   H209  S    
C145  C163  A    
C61   H54   S    
C19   O55   S    
C68   C132  S    
C110  C141  S    
C156  H2    S    
C81   H102  S    
O11   Zn14  S    
C29   C30   S    
C190  O49   S    
C101  C142  S    
C83   C84   S    
O37   Zn11  S    
C17   C18   S    
C46   O19   A    
O39   Zn9   S    
C89   H123  S    
C93   H131  S    
C15   H187  S    
C127  O4    A    
O3    Zn5   S    
C52   H34   S    
C82   C83   S    
C177  O53   S    
C179  O73   S    
C90   O24   A    
C55   H42   S    
C3    C4    S    
C52   C53   S    
C171  O13   A    
C1    O45   A    
C74   H86   S    
C1    O67   A    
C130  C147  A    
C186  O62   S    
C100  H148  S    
C46   C130  S    
C108  C139  S    
C13   O31   A    
C23   H206  S    
C175  C180  S    
C11   H179  S    
C148  H164  S    
C75   H88   S    
C111  C117  A    
C121  C139  A    
C65   O71   S    
C57   O36   A    
C122  C140  A    
O47   Zn14  S    
C40   H6    S    
C173  C178  S    
C125  C143  A    
O24   Zn6   S    
C56   C58   S    
C107  O47   A    
O13   Zn15  S    
C102  C103  S    
O21   Zn2   S    
C10   C11   S    
C63   C64   S    
C191  H101  S    
C49   C50   S    
C181  O75   S    
C14   C15   S    
C56   H44   S    
C79   O42   A    
C173  O49   S    
C112  C130  A    
O67   Zn16  S    
C58   H47   S    
C85   H114  S    
C101  O25   A    
C83   H107  S    
C55   C56   S    
C186  O80   S    
C188  O64   S    
C106  O26   A    
C73   C74   S    
C142  C159  A    
O1    Zn10  S    
C25   H211  S    
C48   H26   S    
C184  O77   S    
C155  C161  A    
C61   H56   S    
C26   H212  S    
C68   O37   A    
C98   H144  S    
C26   C27   S    
C45   H19   S    
C106  C145  S    
C59   H50   S    
C178  O72   S    
C162  H57   S    
C7    H168  S    
C189  O65   S    
C149  O6    A    
C18   H194  S    
C73   H84   S    
C36   O61   S    
C30   H222  S    
O1    Zn1   S    
C15   H185  S    
C97   H141  S    
C121  C186  S    
C113  C119  A    
C127  O2    A    
C91   H127  S    
C111  C129  A    
C26   H213  S    
C29   O59   S    
C71   H80   S    
C150  C153  A    
C70   C71   S    
C113  C131  A    
C77   H94   S    
C64   H63   S    
C39   H5    S    
C108  O28   A    
C109  O44   A    
O14   Zn16  S    
C100  H150  S    
C148  C154  A    
C117  C134  A    
C22   H205  S    
C102  H152  S    
C9    O52   S    
O28   Zn8   S    
C20   H199  S    
C35   O38   A    
C185  O61   S    
C60   H52   S    
C125  C181  S    
C45   H20   S    
C56   H45   S    
C5    H162  S    
C167  C169  T    
C192  H135  S    
C69   H74   S    
C86   C87   S    
C104  H156  S    
C3    H159  S    
C182  O14   A    
C53   C54   S    
C37   H237  S    
C39   O62   S    
C191  C192  S    
C60   C61   S    
C31   H225  S    
C62   C63   S    
C95   H137  S    
C136  C154  A    
C21   H201  S    
C51   H32   S    
C94   H133  S    
C134  C152  A    
C50   C51   S    
C19   H198  S    
C2    O35   A    
C18   H193  S    
C86   H115  S    
C108  O48   A    
C12   H182  S    
C42   C43   S    
C103  H154  S    
C41   H9    S    
C32   H227  S    
C35   C131  S    
C78   H97   S    
O41   Zn15  S    
C147  H112  S    
C35   O18   A    
C4    H160  S    
O8    Zn11  S    
C180  O74   S    
C181  O58   S    
O20   Zn3   S    
C55   H43   S    
O45   Zn3   S    
C135  C153  A    
C149  O8    A    
C75   O74   S    
C115  C133  A    
C39   H4    S    
C79   C144  S    
C174  O68   S    
C32   C33   S    
C26   O58   S    
C65   H66   S    
O1    Zn3   S    
O16   Zn3   S    
C99   H147  S    
C135  C182  S    
C91   H125  S    
C23   H207  S    
C71   H78   S    
O30   Zn6   S    
C92   C93   S    
C78   C80   S    
C122  C128  A    
O44   Zn12  S    
C5    H165  S    
C36   H236  S    
C55   O68   S    
C84   H109  S    
C141  C158  A    
C113  C180  S    
C96   H139  S    
C114  C179  S    
C103  C104  S    
O35   Zn9   S    
O40   Zn14  S    
C176  O70   S    
C120  C137  A    
O26   Zn8   S    
C118  C135  A    
O1    Zn16  S    
C53   H37   S    
C95   H136  S    
C171  C172  S    
C50   H29   S    
C93   C94   S    
C76   H91   S    
C38   H240  S    
C95   C96   S    
C128  C184  S    
C190  H79   S    
C75   C76   S    
C6    O51   S    
C67   H72   S    
C82   H105  S    
C70   H75   S    
C3    H157  S    
C33   H231  S    
C109  O29   A    
C3    O50   S    
C154  H219  S    
C34   H233  S    
C139  C156  A    
C57   C129  S    
C73   H83   S    
C27   H214  S    
C28   H217  S    
O31   Zn10  S    
C164  C170  T    
C21   H203  S    
C179  O55   S    
C8    H171  S    
C44   H16   S    
C43   H15   S    
C59   H51   S    
C32   O60   S    
C126  C144  A    
O46   Zn15  S    
C121  C124  A    
C33   H229  S    
C51   H33   S    
C111  C178  S    
C49   O65   S    
C116  C167  S    
C159  H35   S    
C89   H122  S    
C157  C163  A    
C93   H130  S    
C171  O10   A    
C88   C89   S    
C87   H118  S    
C9    H174  S    
C124  C142  A    
C42   H11   S    
C58   H48   S    
C64   H62   S    
C6    H166  S    
C74   H87   S    
C153  H208  S    
C49   H28   S    
C12   H181  S    
C47   C48   S    
C175  O69   S    
C106  O41   A    
C76   C77   S    
C124  C183  S    
C66   H67   S    
C99   H145  S    
C188  O82   S    
C158  C162  A    
C185  C188  S    
C163  H68   S    
O42   Zn12  S    
C190  H90   S    
C183  O59   S    
O84   Zn7   S    
C58   H49   S    
C140  C157  A    
C99   C100  S    
C1    C165  S    
C96   C97   S    
O34   Zn15  S    
C129  C146  A    
O5    Zn1   S    
C131  C148  A    
C114  C118  A    
C146  C152  A    
C82   O76   S    
C40   C41   S    
C12   C14   S    
C178  O54   S    
C54   H39   S    
C67   H70   S    
C62   H59   S    
O34   Zn8   S    
O23   Zn5   S    
C144  C162  A    
C114  C132  A    
C173  O66   S    
C156  C159  A    
C17   H191  S    
C80   C81   S    
O4    Zn6   S    
C80   H99   S    
C10   H176  S    
C25   H210  S    
C72   O73   S    
C61   H55   S    
C42   H12   S    
C75   H89   S    
O18   Zn16  S    
C191  H113  S    
C109  C137  S    
O19   Zn4   S    
C81   H103  S    
C79   O22   A    
C82   H104  S    
C4    H161  S    
C119  C136  A    
C78   O75   S    
C192  H146  S    
C18   H195  S    
C63   H61   S    
C160  O9    A    
C165  C172  T    
C34   H232  S    
C116  O84   A    
C88   O79   S    
C23   C25   S    
C9    H173  S    
C30   H223  S    
C176  O52   S    
C45   O64   S    
C62   O70   S    
C15   H188  S    
C189  O83   S    
C97   H140  S    
C105  O56   A    
O6    Zn9   S    
C146  H1    S    
C2    O15   A    
O78   Zn2   S    
C65   C66   S    
C27   C28   S    
C160  C170  S    
C184  C189  S    
C101  O40   A    
C54   H41   S    
C64   H64   S    
C24   O32   A    
C112  C115  A    
O23   Zn12  S    
C84   H108  S    
