data_mof_unit_61352.cif
_audit_creation_date              2012-12-10T17:05:06-0500
_audit_creation_method            fapswitch 2.2
_symmetry_space_group_name_H-M    P1
_symmetry_Int_Tables_number       1
_space_group_crystal_system       triclinic
_cell_length_a                    30.115703
_cell_length_b                    30.786732
_cell_length_c                    21.159353
_cell_angle_alpha                 90.176878
_cell_angle_beta                  134.24061
_cell_angle_gamma                 89.800698
_cell_volume                      14054.7013726

loop_
_atom_site_label
_atom_site_type_symbol
_atom_type_description
_atom_site_fract_x
_atom_site_fract_y
_atom_site_fract_z
_atom_type_partial_charge
Br1   Br    Br    0.779780 0.742729 0.803161 -0.475324
Br2   Br    Br    0.846203 0.854029 0.837875 -0.465530
Br3   Br    Br    0.655202 0.353860 0.165101 -0.454491
Br4   Br    Br    0.346203 0.354029 0.837875 -0.465530
Br5   Br    Br    0.405795 0.880606 0.480346 -0.476392
Br6   Br    Br    0.596021 0.880791 0.521206 -0.472758
Br7   Br    Br    0.905795 0.380606 0.480346 -0.476392
Br8   Br    Br    0.096021 0.380791 0.521206 -0.472758
Br9   Br    Br    0.220111 0.742807 0.196619 -0.476204
Br10  Br    Br    0.279780 0.242729 0.803161 -0.475324
Br11  Br    Br    0.720111 0.242807 0.196619 -0.476204
Br12  Br    Br    0.581449 0.617996 0.052908 -0.405120
Br13  Br    Br    0.476797 0.618839 0.062326 -0.429335
Br14  Br    Br    0.081449 0.117996 0.052908 -0.405120
Br15  Br    Br    0.976797 0.118839 0.062326 -0.429335
Br16  Br    Br    0.155201 0.853860 0.165101 -0.454491
C1    C     C_R   0.310719 0.809886 0.120286 0.853000
C2    C     C_R   0.495867 0.672407 0.037851 0.227638
C3    C     C_R   0.370116 0.207975 0.313454 0.402051
C4    C     C_R   0.287844 0.599329 0.854751 -0.175944
C5    C     C_R   0.919711 0.719685 0.402015 -0.174088
C6    C     C_R   0.787844 0.099329 0.854751 -0.175944
C7    C     C_R   0.419711 0.219685 0.402015 -0.174088
C8    C     C_R   0.261313 0.558074 0.826044 -0.162810
C9    C     C_R   0.967327 0.690506 0.461516 -0.189956
C10   C     C_R   0.761313 0.058074 0.826044 -0.162811
C11   C     C_R   0.467327 0.190505 0.461516 -0.189956
C12   C     C_R   0.197741 0.553445 0.772797 -0.160596
C13   C     C_R   0.040422 0.172005 0.033649 0.233081
C14   C     C_R   0.964026 0.648578 0.434138 -0.163598
C15   C     C_R   0.697741 0.053445 0.772797 -0.160596
C16   C     C_R   0.464026 0.148578 0.434138 -0.163598
C17   C     C_R   0.162072 0.589394 0.757441 0.078984
C18   C     C_R   0.916078 0.636798 0.344434 0.054043
C19   C     C_R   0.662072 0.089394 0.757441 0.078984
C20   C     C_R   0.416078 0.136798 0.344434 0.054043
C21   C     C_R   0.192507 0.628043 0.803628 -0.002724
C22   C     C_R   0.873072 0.668316 0.281243 -0.043600
C23   C     C_R   0.692507 0.128043 0.803628 -0.002724
C24   C     C_R   0.995867 0.172407 0.037851 0.227638
C25   C     C_R   0.373072 0.168316 0.281243 -0.043600
C26   C     C_R   0.160444 0.658404 0.809772 -0.058792
C27   C     C_R   0.835187 0.657537 0.190260 -0.106502
C28   C     C_R   0.660444 0.158404 0.809772 -0.058792
C29   C     C_R   0.335187 0.157537 0.190260 -0.106503
C30   C     C_R   0.096676 0.654897 0.756109 -0.201172
C31   C     C_R   0.830721 0.614311 0.165203 -0.174014
C32   C     C_R   0.596676 0.154897 0.756109 -0.201172
C33   C     C_R   0.330721 0.114311 0.165203 -0.174014
C34   C     C_R   0.064498 0.621119 0.696574 -0.200569
C35   C     C_R   0.463823 0.828226 0.973233 -0.195686
C36   C     C_R   0.865924 0.582464 0.228022 -0.198666
C37   C     C_R   0.564497 0.121119 0.696574 -0.200569
C38   C     C_R   0.365924 0.082464 0.228022 -0.198667
C39   C     C_R   0.164405 0.750578 0.002384 0.908755
C40   C     C_R   0.835542 0.750509 0.997495 0.908155
C41   C     C_R   0.664405 0.250578 0.002384 0.908755
C42   C     C_R   0.335542 0.250509 0.997495 0.908155
C43   C     C_R   0.096859 0.588594 0.696255 -0.087672
C44   C     C_R   0.909009 0.593784 0.316537 -0.051802
C45   C     C_R   0.596858 0.088594 0.696255 -0.087673
C46   C     C_R   0.511032 0.828445 0.975436 -0.191282
C47   C     C_R   0.409009 0.093784 0.316537 -0.051802
C48   C     C_R   0.939845 0.559326 0.379024 0.856969
C49   C     C_R   0.061757 0.557898 0.624424 0.840898
C50   C     C_R   0.439845 0.059326 0.379024 0.856969
C51   C     C_R   0.561757 0.057898 0.624424 0.840898
C52   C     C_R   0.443294 0.936667 0.386690 0.905801
C53   C     C_R   0.556923 0.936746 0.613523 0.895555
C54   C     C_R   0.943294 0.436667 0.386690 0.905801
C55   C     C_R   0.056923 0.436746 0.613523 0.895555
C56   C     C_R   0.588054 0.789907 0.990743 -0.244004
C57   C     C_R   0.963823 0.328226 0.973233 -0.195685
C58   C     C_R   0.400438 0.789362 0.985164 -0.222216
C59   C     C_R   0.088054 0.289907 0.990743 -0.244004
C60   C     C_R   0.900438 0.289362 0.985164 -0.222216
C61   C     C_R   0.615760 0.750926 0.000393 -0.032806
C62   C     C_R   0.386355 0.751135 0.003114 -0.037988
C63   C     C_R   0.115760 0.250926 0.000393 -0.032806
C64   C     C_R   0.886355 0.251135 0.003114 -0.037988
C65   C     C_R   0.598966 0.711719 0.011570 -0.104799
C66   C     C_R   0.419424 0.712898 0.024191 -0.082018
C67   C     C_R   0.098965 0.211719 0.011570 -0.104799
C68   C     C_R   0.011032 0.328445 0.975436 -0.191282
C69   C     C_R   0.919424 0.212898 0.024191 -0.082017
C70   C     C_R   0.555179 0.710942 0.016636 -0.030741
C71   C     C_R   0.465192 0.711570 0.023064 -0.000847
C72   C     C_R   0.055179 0.210942 0.016636 -0.030741
C73   C     C_R   0.965192 0.211570 0.023064 -0.000848
C74   C     C_R   0.525617 0.750327 0.004313 0.021456
C75   C     C_R   0.479695 0.750423 0.005312 0.027793
C76   C     C_R   0.025617 0.250327 0.004313 0.021457
C77   C     C_R   0.979695 0.250423 0.005312 0.027792
C78   C     C_R   0.258859 0.848272 0.182393 -0.192417
C79   C     C_R   0.741901 0.848400 0.819002 -0.192703
C80   C     C_R   0.758859 0.348272 0.182393 -0.192417
C81   C     C_R   0.689364 0.809899 0.879700 0.845432
C82   C     C_R   0.241901 0.348400 0.819002 -0.192703
C83   C     C_R   0.239914 0.859669 0.224476 0.324118
C84   C     C_R   0.761283 0.859895 0.777660 0.318471
C85   C     C_R   0.739914 0.359669 0.224476 0.324118
C86   C     C_R   0.261283 0.359895 0.777660 0.318471
C87   C     C_R   0.283779 0.873472 0.311871 -0.185617
C88   C     C_R   0.717714 0.873786 0.690355 -0.195237
C89   C     C_R   0.783779 0.373472 0.311871 -0.185617
C90   C     C_R   0.217714 0.373786 0.690355 -0.195237
C91   C     C_R   0.344850 0.881110 0.353647 0.261287
C92   C     C_R   0.810719 0.309886 0.120286 0.853000
C93   C     C_R   0.656445 0.881392 0.647937 0.261759
C94   C     C_R   0.844850 0.381110 0.353647 0.261287
C95   C     C_R   0.156445 0.381392 0.647937 0.261759
C96   C     C_R   0.360765 0.878967 0.304298 0.031747
C97   C     C_R   0.640029 0.879174 0.696636 0.026425
C98   C     C_R   0.860766 0.378967 0.304298 0.031747
C99   C     C_R   0.140028 0.379174 0.696636 0.026425
C100  C     C_R   0.320291 0.856402 0.223689 0.002990
C101  C     C_R   0.680282 0.856517 0.777107 0.003068
C102  C     C_R   0.820291 0.356402 0.223689 0.002990
C103  C     C_R   0.189364 0.309899 0.879700 0.845432
C104  C     C_R   0.180282 0.356517 0.777107 0.003068
C105  C     C_R   0.342843 0.842473 0.187182 -0.035860
C106  C     C_R   0.657325 0.842487 0.812864 -0.032298
C107  C     C_R   0.842843 0.342473 0.187182 -0.035860
C108  C     C_R   0.157324 0.342487 0.812864 -0.032298
C109  C     C_R   0.337524 0.750763 0.001386 0.910636
C110  C     C_R   0.662771 0.750858 0.998957 0.929126
C111  C     C_R   0.837524 0.250762 0.001386 0.910636
C112  C     C_R   0.162771 0.250858 0.998957 0.929126
C113  C     C_R   0.400301 0.855755 0.221679 -0.205278
C114  C     C_R   0.541710 0.789793 0.990278 0.163497
C115  C     C_R   0.599674 0.855816 0.777879 -0.205891
C116  C     C_R   0.900301 0.355755 0.221679 -0.205278
C117  C     C_R   0.099674 0.355816 0.777879 -0.205891
C118  C     C_R   0.434680 0.885138 0.290347 -0.140762
C119  C     C_R   0.565471 0.885280 0.709462 -0.138622
C120  C     C_R   0.934680 0.385138 0.290347 -0.140762
C121  C     C_R   0.065471 0.385280 0.709462 -0.138622
C122  C     C_R   0.414405 0.898310 0.330196 -0.083062
C123  C     C_R   0.586077 0.898485 0.670202 -0.081336
C124  C     C_R   0.914405 0.398310 0.330196 -0.083062
C125  C     C_R   0.447903 0.789549 0.987926 0.156568
C126  C     C_R   0.086077 0.398485 0.670202 -0.081336
C127  C     C_R   0.865979 0.746340 0.914552 0.222136
C128  C     C_R   0.133906 0.746536 0.085178 0.222565
C129  C     C_R   0.365979 0.246340 0.914552 0.222136
C130  C     C_R   0.633906 0.246536 0.085178 0.222565
C131  C     C_R   0.882171 0.749689 0.995075 -0.125926
C132  C     C_R   0.117718 0.749920 0.004682 -0.124433
C133  C     C_R   0.382171 0.249689 0.995075 -0.125926
C134  C     C_R   0.617718 0.249920 0.004682 -0.124433
C135  C     C_R   0.943851 0.751054 0.075579 -0.270268
C136  C     C_R   0.041710 0.289793 0.990278 0.163496
C137  C     C_R   0.056031 0.751270 0.924158 -0.274764
C138  C     C_R   0.443851 0.251054 0.075579 -0.270268
C139  C     C_R   0.556031 0.251270 0.924158 -0.274764
C140  C     C_R   0.990874 0.749120 0.077994 0.123708
C141  C     C_R   0.009001 0.749239 0.921714 0.125680
C142  C     C_R   0.490874 0.249120 0.077994 0.123708
C143  C     C_R   0.509001 0.249239 0.921714 0.125680
C144  C     C_R   0.975976 0.747855 0.998405 0.042224
C145  C     C_R   0.023899 0.747925 0.001292 0.042314
C146  C     C_R   0.475976 0.247855 0.998405 0.042224
C147  C     C_R   0.947903 0.289549 0.987926 0.156568
C148  C     C_R   0.523899 0.247925 0.001292 0.042314
C149  C     C_R   0.913329 0.746769 0.916086 0.072055
C150  C     C_R   0.086549 0.746909 0.083617 0.071286
C151  C     C_R   0.413329 0.246769 0.916086 0.072055
C152  C     C_R   0.586549 0.246909 0.083617 0.071286
C153  C     C_R   0.052577 0.748537 0.159092 -0.185372
C154  C     C_R   0.947295 0.748567 0.840612 -0.188259
C155  C     C_R   0.552577 0.248537 0.159092 -0.185372
C156  C     C_R   0.447295 0.248567 0.840612 -0.188259
C157  C     C_R   0.192803 0.690322 0.879015 0.904666
C158  C     C_R   0.540422 0.672005 0.033649 0.233080
C159  C     C_R   0.806582 0.690189 0.121305 0.935223
C160  C     C_R   0.692803 0.190322 0.879015 0.904666
C161  C     C_R   0.306582 0.190189 0.121305 0.935223
C162  C     C_R   0.100017 0.746832 0.162028 -0.109147
C163  C     C_R   0.899862 0.746734 0.837673 -0.108706
C164  C     C_R   0.600017 0.246832 0.162028 -0.109147
C165  C     C_R   0.399862 0.246734 0.837673 -0.108706
C166  C     C_R   0.251679 0.635484 0.835623 0.343361
C167  C     C_R   0.870116 0.707975 0.313454 0.402051
C168  C     C_R   0.751679 0.135484 0.835623 0.343362
H1    H     H_    0.601465 0.819955 0.981174 0.137038
H2    H     H_    0.044719 0.752761 0.862977 0.164054
H3    H     H_    0.455176 0.252553 0.136781 0.168446
H4    H     H_    0.544719 0.252760 0.862977 0.164054
H5    H     H_    0.064198 0.749229 0.220470 0.161091
H6    H     H_    0.935669 0.749284 0.779237 0.158761
H7    H     H_    0.564198 0.249229 0.220470 0.161091
H8    H     H_    0.435669 0.249284 0.779237 0.158761
H9    H     H_    0.146981 0.746342 0.226342 0.206178
H10   H     H_    0.852897 0.746181 0.773366 0.206148
H11   H     H_    0.646981 0.246342 0.226342 0.206178
H12   H     H_    0.375217 0.819021 0.970708 0.149431
H13   H     H_    0.352897 0.246181 0.773366 0.206148
H14   H     H_    0.071842 0.678565 0.759871 0.148560
H15   H     H_    0.800718 0.604955 0.096663 0.180167
H16   H     H_    0.571842 0.178565 0.759871 0.148560
H17   H     H_    0.300718 0.104955 0.096663 0.180167
H18   H     H_    0.334230 0.603554 0.882427 0.200694
H19   H     H_    0.918956 0.750281 0.426676 0.187484
H20   H     H_    0.834230 0.103554 0.882427 0.200694
H21   H     H_    0.418957 0.250281 0.426676 0.187483
H22   H     H_    0.288724 0.530458 0.838121 0.183301
H23   H     H_    0.101465 0.319955 0.981174 0.137038
H24   H     H_    0.004469 0.699357 0.530324 0.182844
H25   H     H_    0.788724 0.030458 0.838121 0.183302
H26   H     H_    0.504469 0.199356 0.530324 0.182844
H27   H     H_    0.177051 0.521789 0.745192 0.154350
H28   H     H_    0.999452 0.625613 0.483331 0.151850
H29   H     H_    0.677051 0.021788 0.745192 0.154350
H30   H     H_    0.499452 0.125613 0.483331 0.151850
H31   H     H_    0.621806 0.682334 0.018434 0.193975
H32   H     H_    0.406907 0.683930 0.037492 0.189102
H33   H     H_    0.121806 0.182334 0.018434 0.193975
H34   H     H_    0.875217 0.319021 0.970708 0.149431
H35   H     H_    0.906907 0.183930 0.037492 0.189102
H36   H     H_    0.014413 0.620520 0.650579 0.173453
H37   H     H_    0.860527 0.548975 0.207629 0.145180
H38   H     H_    0.514413 0.120520 0.650579 0.173453
H39   H     H_    0.360527 0.048975 0.207629 0.145180
H40   H     H_    0.439921 0.858322 0.960413 0.153989
H41   H     H_    0.523029 0.858713 0.964406 0.153589
H42   H     H_    0.939921 0.358322 0.960413 0.153989
H43   H     H_    0.023029 0.358713 0.964406 0.153589
H44   H     H_    0.417358 0.844559 0.193187 0.141191
H45   H     H_    0.476464 0.898193 0.310895 0.195645
H46   H     H_    0.582326 0.844606 0.805839 0.138335
H47   H     H_    0.917358 0.344559 0.193187 0.141191
H48   H     H_    0.082326 0.344606 0.805839 0.138335
H49   H     H_    0.225222 0.834124 0.117078 0.170260
H50   H     H_    0.775340 0.834175 0.884215 0.170454
H51   H     H_    0.725222 0.334124 0.117078 0.170260
H52   H     H_    0.275340 0.334175 0.884215 0.170454
H53   H     H_    0.270853 0.876949 0.348235 0.199634
H54   H     H_    0.731024 0.877314 0.654521 0.200296
H55   H     H_    0.770853 0.376949 0.348235 0.199634
H56   H     H_    0.523497 0.898335 0.688586 0.195637
H57   H     H_    0.231023 0.377314 0.654521 0.200296
H58   H     H_    0.335064 0.665332 0.803501 0.374451
H59   H     H_    0.738366 0.679659 0.199673 0.367590
H60   H     H_    0.835064 0.165332 0.803501 0.374452
H61   H     H_    0.238366 0.179659 0.199673 0.367590
H62   H     H_    0.976464 0.398193 0.310895 0.195645
H63   H     H_    0.023497 0.398335 0.688586 0.195637
H64   H     H_    0.955176 0.752553 0.136781 0.168446
O1    O     O_R   0.321630 0.769940 0.143350 -0.584267
O2    O     O_R   0.508520 0.954180 0.591620 -0.601275
O3    O     O_R   0.991480 0.454180 0.408380 -0.601935
O4    O     O_R   0.008520 0.454180 0.591620 -0.601275
O5    O     O_R   0.416890 0.954190 0.408420 -0.598670
O6    O     O_R   0.583110 0.954190 0.591580 -0.610464
O7    O     O_R   0.916890 0.454190 0.408420 -0.598670
O8    O     O_R   0.083110 0.454190 0.591580 -0.610464
O9    O     O_R   0.269950 0.821660 0.039930 -0.635325
O10   O     O_R   0.730050 0.821660 0.960070 -0.635307
O11   O     O_R   0.769950 0.321660 0.039930 -0.635325
O12   O     O_R   0.678370 0.769940 0.856650 -0.586833
O13   O     O_R   0.230050 0.321660 0.960070 -0.635307
O14   O     O_R   0.341900 0.724110 0.051720 -0.640790
O15   O     O_R   0.658100 0.724110 0.948280 -0.637894
O16   O     O_R   0.841900 0.224110 0.051720 -0.640790
O17   O     O_R   0.158100 0.224110 0.948280 -0.637894
O18   O     O_R   0.290220 0.775830 0.948290 -0.581391
O19   O     O_R   0.709780 0.775830 0.051710 -0.541930
O20   O     O_R   0.790220 0.275830 0.948290 -0.581391
O21   O     O_R   0.209780 0.275830 0.051710 -0.541930
O22   O     O_R   0.230030 0.678320 0.960120 -0.628919
O23   O     O_R   0.821630 0.269940 0.143350 -0.584267
O24   O     O_R   0.769970 0.678320 0.039880 -0.635239
O25   O     O_R   0.730030 0.178320 0.960120 -0.628919
O26   O     O_R   0.269970 0.178320 0.039880 -0.635239
O27   O     O_R   0.178350 0.730040 0.856700 -0.584318
O28   O     O_R   0.821650 0.730040 0.143300 -0.584153
O29   O     O_R   0.678350 0.230040 0.856700 -0.584319
O30   O     O_R   0.321650 0.230040 0.143300 -0.584153
O31   O     O_R   0.209770 0.724150 0.051760 -0.575779
O32   O     O_R   0.790230 0.724150 0.948240 -0.579407
O33   O     O_R   0.709770 0.224150 0.051760 -0.575779
O34   O     O_R   0.178370 0.269940 0.856650 -0.586833
O35   O     O_R   0.290230 0.224150 0.948240 -0.579407
O36   O     O_R   0.158090 0.775870 0.948330 -0.629164
O37   O     O_R   0.841910 0.775870 0.051670 -0.627378
O38   O     O_R   0.658090 0.275870 0.948330 -0.629164
O39   O     O_R   0.341910 0.275870 0.051670 -0.627378
O40   O     O_R   0.991500 0.545800 0.408400 -0.614340
O41   O     O_R   0.008500 0.545800 0.591600 -0.621260
O42   O     O_R   0.491500 0.045800 0.408400 -0.614340
O43   O     O_R   0.508500 0.045800 0.591600 -0.621260
O44   O     O_2   0.244964 0.722859 0.812521 -0.270231
O45   O     O_R   0.916920 0.545810 0.408440 -0.602025
O46   O     O_2   0.217878 0.676240 0.697417 -0.274739
O47   O     O_3   0.334113 0.684279 0.840460 -0.559070
O48   O     O_2   0.793196 0.741263 0.323542 -0.280289
O49   O     O_2   0.800409 0.779105 0.230201 -0.247797
O50   O     O_3   0.738923 0.706004 0.173478 -0.589529
O51   O     O_2   0.744964 0.222859 0.812521 -0.270232
O52   O     O_2   0.717878 0.176240 0.697417 -0.274739
O53   O     O_3   0.834113 0.184279 0.840460 -0.559071
O54   O     O_2   0.293196 0.241263 0.323542 -0.280288
O55   O     O_2   0.300409 0.279105 0.230201 -0.247797
O56   O     O_R   0.083080 0.545810 0.591560 -0.610593
O57   O     O_3   0.238923 0.206004 0.173478 -0.589529
O58   O     O_R   0.416920 0.045810 0.408440 -0.602025
O59   O     O_R   0.583080 0.045810 0.591560 -0.610593
O60   O     O_R   0.491480 0.954180 0.408380 -0.601935
S1    S     S_3+6 0.261171 0.681310 0.795613 0.020189
S2    S     S_3+6 0.799601 0.735062 0.259686 0.040784
S3    S     S_3+6 0.761171 0.181310 0.795613 0.020189
S4    S     S_3+6 0.299601 0.235062 0.259686 0.040784
Zn1   Zn    Zn3+2 0.284500 0.715460 0.069080 1.054018
Zn2   Zn    Zn3+2 0.450210 0.999990 0.500010 1.034882
Zn3   Zn    Zn3+2 0.049790 0.499990 0.499990 1.029020
Zn4   Zn    Zn3+2 0.950210 0.499990 0.500010 1.034882
Zn5   Zn    Zn3+2 0.715500 0.715460 0.930920 1.049571
Zn6   Zn    Zn3+2 0.784500 0.215460 0.069080 1.054018
Zn7   Zn    Zn3+2 0.215500 0.215460 0.930920 1.049571
Zn8   Zn    Zn3+2 0.215490 0.784530 0.930970 1.033499
Zn9   Zn    Zn3+2 0.784510 0.784530 0.069030 1.076654
Zn10  Zn    Zn3+2 0.715490 0.284530 0.930970 1.033499
Zn11  Zn    Zn3+2 0.284510 0.284530 0.069030 1.076654
Zn12  Zn    Zn3+2 0.549790 0.999990 0.499990 1.029020

loop_
_geom_bond_atom_site_label_1
_geom_bond_atom_site_label_2
_ccdc_geom_bond_type
C53   C123  S    
C83   C87   A    
C89   C94   A    
C54   C124  S    
C71   C75   A    
C40   O32   A    
C91   C96   A    
C52   C122  S    
C120  C124  A    
C117  C121  A    
Br13  C2    S    
C34   C43   A    
C138  C142  A    
O21   Zn11  S    
C30   H14   S    
C38   C47   A    
C66   C71   A    
C51   O43   A    
C84   C88   A    
C118  H45   S    
C21   C26   A    
C13   C72   A    
C157  O27   A    
C59   H23   S    
Br4   C86   S    
C109  O14   A    
C53   O6    A    
C112  O17   A    
C65   C70   A    
C48   O40   A    
C67   C72   A    
C17   C43   A    
C18   C44   A    
C161  O26   A    
C103  O13   A    
C146  C148  A    
C49   O56   A    
C162  H9    S    
C100  C105  A    
O58   Zn2   S    
C96   C122  A    
C148  C152  A    
C70   C74   A    
Br8   C95   S    
C135  H64   S    
C152  C164  A    
O5    Zn2   S    
C70   C158  A    
C119  C123  A    
O25   Zn6   S    
O3    Zn3   S    
C62   C66   A    
O27   Zn8   S    
O38   Zn10  S    
O35   Zn7   S    
H60   O53   S    
C108  C117  A    
C115  H46   S    
C12   C17   A    
O41   Zn4   S    
O11   Zn10  S    
C132  C137  A    
C90   H57   S    
O57   S4    S    
Br12  C158  S    
Br5   C91   S    
C92   O23   A    
C82   C104  A    
C31   C36   A    
C46   H41   S    
C44   C48   S    
C22   C27   A    
C57   C147  A    
O50   S2    S    
C50   O58   A    
C38   H39   S    
H59   O50   S    
C67   H33   S    
C113  H44   S    
C110  O15   A    
C56   H1    S    
O45   Zn4   S    
C82   H52   S    
C42   O35   A    
O4    Zn4   S    
C25   C29   A    
C87   C91   A    
C62   C109  S    
C59   C63   A    
C28   C32   A    
C121  C126  A    
C107  C116  A    
C5    H19   S    
C153  H5    S    
O13   Zn11  S    
C165  H13   S    
C160  O25   A    
O7    Zn4   S    
H58   O47   S    
C51   O59   A    
C156  H8    S    
C12   H27   S    
O39   Zn11  S    
C81   C106  S    
C16   C20   A    
O26   Zn7   S    
O2    Zn2   S    
C77   C147  A    
C111  O16   A    
C6    C168  A    
C36   C44   A    
C37   C45   A    
C52   O5    A    
C97   C123  A    
C98   C124  A    
C24   C73   A    
C9    H24   S    
C94   C98   A    
C23   C168  A    
O60   Zn12  S    
C102  C107  A    
C16   H30   S    
Br3   C85   S    
C130  C134  A    
C7    H21   S    
C31   H15   S    
C35   C46   A    
C27   C159  S    
H61   O57   S    
C81   O10   A    
C90   C95   A    
C35   C125  A    
C32   C37   A    
O49   S2    D    
C33   H17   S    
C14   C18   A    
C139  C143  A    
C140  C144  A    
O20   Zn10  S    
O12   Zn5   S    
C131  C135  A    
C101  C106  A    
C45   C51   S    
C116  C120  A    
C89   H55   S    
C166  S1    S    
C120  H62   S    
C19   C45   A    
C161  O30   A    
C97   C101  A    
C2    C158  A    
C168  S3    S    
C58   C125  A    
C134  C139  A    
C6    C10   A    
C149  C163  A    
Br6   C93   S    
Br14  C13   S    
C1    O9    A    
C116  H47   S    
C106  C115  A    
C96   C100  A    
O22   Zn1   S    
C5    C9    A    
C52   O60   A    
C8    C12   A    
Br11  C130  S    
C23   C28   A    
C15   H29   S    
Br7   C94   S    
C6    H20   S    
C154  C163  A    
C40   C131  S    
C117  H48   S    
C4    H18   S    
C43   C49   S    
C39   C132  S    
C65   H31   S    
O46   S1    D    
C27   C31   A    
C13   C24   A    
C1    O1    A    
C167  S2    S    
O59   Zn12  S    
C73   C77   A    
C110  O19   A    
O30   Zn11  S    
C47   C50   S    
C143  C148  A    
C60   C147  A    
O40   Zn3   S    
C68   H43   S    
C159  O24   A    
O19   Zn9   S    
C81   O12   A    
C75   C125  A    
O32   Zn5   S    
O29   Zn10  S    
O10   Zn9   S    
C32   H16   S    
C57   H42   S    
C121  H63   S    
C137  H2    S    
C119  H56   S    
C26   C30   A    
C46   C114  A    
C127  C149  A    
O44   S1    D    
C60   H34   S    
C154  H6    S    
C48   O45   A    
C150  C162  A    
C79   H50   S    
C99   C126  A    
C36   H37   S    
C18   C22   A    
C80   C85   A    
C20   C25   A    
Br9   C128  S    
C111  O20   A    
C28   C160  S    
C39   O31   A    
C143  C156  A    
O42   Zn12  S    
C69   C73   A    
C79   C84   A    
C37   H38   S    
C11   H26   S    
C79   C101  A    
C128  C150  A    
C3    S4    S    
C19   C23   A    
C133  C138  A    
C64   C69   A    
C141  C154  A    
C29   C33   A    
C35   H40   S    
C155  H7    S    
C135  C140  A    
C164  H11   S    
C53   O2    A    
C66   H32   S    
C1    C105  S    
O48   S2    D    
C39   O36   A    
C15   C19   A    
C92   C107  S    
C141  C145  A    
C55   O4    A    
O56   Zn3   S    
C129  C151  A    
C49   O41   A    
C9    C14   A    
O31   Zn1   S    
C130  C152  A    
C78   C100  A    
C11   C16   A    
C105  C113  A    
C54   O7    A    
C78   H49   S    
C138  H3    S    
C82   C86   A    
C63   C67   A    
O52   S3    D    
C74   C75   A    
C157  O22   A    
C21   C166  A    
C34   H36   S    
C76   C77   A    
C41   O33   A    
O33   Zn6   S    
C137  C141  A    
C17   C21   A    
Br15  C24   S    
C113  C118  A    
C74   C114  A    
O6    Zn12  S    
C61   C65   A    
C58   C62   A    
O54   S4    D    
C129  C133  A    
C61   C110  S    
C3    C25   A    
O16   Zn6   S    
O55   S4    D    
C163  H10   S    
C63   C112  S    
C109  O18   A    
C112  O21   A    
C3    C7    A    
C128  C132  A    
C151  C165  A    
C103  C108  S    
C127  C131  A    
O43   Zn2   S    
C80   C102  A    
C115  C119  A    
C139  H4    S    
C14   H28   S    
C88   C93   A    
C142  C155  A    
C33   C38   A    
C140  C153  A    
C8    H22   S    
C159  O28   A    
O15   Zn5   S    
C80   H51   S    
C4    C8    A    
C76   C136  A    
C40   O37   A    
C7    C11   A    
C20   C47   A    
C57   C68   A    
C145  C150  A    
C42   C133  S    
C29   C161  S    
Br2   C84   S    
C10   C15   A    
O14   Zn1   S    
C156  C165  A    
C103  O34   A    
C42   O39   A    
C85   C89   A    
C58   H12   S    
C88   H54   S    
C72   C76   A    
O28   Zn9   S    
C144  C149  A    
C22   C167  A    
O34   Zn7   S    
C56   C61   A    
Br1   C127  S    
O8    Zn3   S    
C59   C136  A    
C87   H53   S    
C41   C134  S    
C50   O42   A    
C98   C102  A    
C55   C126  S    
C68   C136  A    
O51   S3    D    
O37   Zn9   S    
C155  C164  A    
C60   C64   A    
O24   Zn5   S    
O9    Zn8   S    
O36   Zn8   S    
C153  C162  A    
C4    C166  A    
C5    C167  A    
O17   Zn7   S    
O18   Zn8   S    
C92   O11   A    
C26   C157  S    
C118  C122  A    
C41   O38   A    
Br16  C83   S    
C56   C114  A    
C64   C111  S    
C93   C97   A    
C30   C34   A    
C2    C71   A    
C144  C145  A    
C69   H35   S    
C160  O29   A    
O47   S1    S    
C78   C83   A    
O23   Zn6   S    
C86   C90   A    
C10   H25   S    
C55   O8    A    
C142  C146  A    
Br10  C129  S    
O1    Zn1   S    
C146  C151  A    
O53   S3    S    
C99   C104  A    
C95   C99   A    
C54   O3    A    
C104  C108  A    
