data_mof_unit_18920.cif
_audit_creation_date              2012-12-10T20:12:18-0500
_audit_creation_method            fapswitch 2.2
_symmetry_space_group_name_H-M    P1
_symmetry_Int_Tables_number       1
_space_group_crystal_system       triclinic
_cell_length_a                    15.898638
_cell_length_b                    15.898743
_cell_length_c                    60.115896
_cell_angle_alpha                 89.999037
_cell_angle_beta                  89.997635
_cell_angle_gamma                 90.000363
_cell_volume                      15195.3964031

loop_
_atom_site_label
_atom_site_type_symbol
_atom_type_description
_atom_site_fract_x
_atom_site_fract_y
_atom_site_fract_z
_atom_type_partial_charge
C1    C     C_R   0.500016 0.000005 0.810460 0.866948
C2    C     C_R   0.499964 0.000010 0.189623 0.870425
C3    C     C_R   0.999996 0.500152 0.810453 0.880785
C4    C     C_R   0.000011 0.499894 0.189625 0.887763
C5    C     C_R   0.000000 0.499999 0.310460 0.866486
C6    C     C_R   1.000000 0.500001 0.689622 0.869942
C7    C     C_R   0.499999 0.000001 0.310462 0.866689
C8    C     C_R   0.500002 0.999999 0.689622 0.870114
C9    C     C_R   0.458588 0.147641 0.547426 0.510233
C10   C     C_R   0.500287 0.846663 0.452982 0.504430
C11   C     C_R   0.852296 0.458756 0.547423 0.510192
C12   C     C_R   0.153347 0.500102 0.452979 0.504413
C13   C     C_R   0.541431 0.852332 0.547423 0.510232
C14   C     C_R   0.499695 0.153343 0.452985 0.504374
C15   C     C_R   0.147702 0.541258 0.547420 0.510203
C16   C     C_R   0.846662 0.499906 0.452981 0.504439
C17   C     C_R   0.959798 0.646346 0.047599 0.509638
C18   C     C_R   0.000319 0.346608 0.952790 0.504183
C19   C     C_R   0.351604 0.960352 0.047405 0.509462
C20   C     C_R   0.653077 0.000769 0.953010 0.504375
C21   C     C_R   0.040719 0.350521 0.047257 0.510397
C22   C     C_R   0.999828 0.653280 0.953145 0.504757
C23   C     C_R   0.647249 0.042016 0.047443 0.510612
C24   C     C_R   0.346394 0.000776 0.952935 0.504394
C25   C     C_R   0.500007 0.999991 0.664920 -0.163743
C26   C     C_R   0.499995 0.000007 0.335310 -0.172572
C27   C     C_R   0.999998 0.500003 0.664919 -0.163728
C28   C     C_R   0.000003 0.499998 0.335306 -0.172378
C29   C     C_R   0.000139 0.498837 0.164938 -0.151739
C30   C     C_R   0.000019 0.500895 0.835279 -0.161051
C31   C     C_R   0.499748 0.000083 0.164922 -0.163723
C32   C     C_R   0.500057 0.000050 0.835306 -0.172501
C33   C     C_R   0.993185 0.576275 0.988472 0.022551
C34   C     C_R   0.013875 0.422983 0.011920 0.020746
C35   C     C_R   0.422683 0.994178 0.988371 0.022573
C36   C     C_R   0.575500 0.014967 0.012018 0.020739
C37   C     C_R   0.006919 0.422435 0.988296 0.022659
C38   C     C_R   0.986299 0.574966 0.012094 0.020865
C39   C     C_R   0.576523 0.007852 0.988400 0.022566
C40   C     C_R   0.423548 0.987261 0.011995 0.021020
C41   C     C_R   0.492954 0.076894 0.488394 0.022492
C42   C     C_R   0.514119 0.924067 0.512011 0.020764
C43   C     C_R   0.923096 0.493046 0.488390 0.022558
C44   C     C_R   0.075944 0.514028 0.512007 0.020749
C45   C     C_R   0.507054 0.923099 0.488392 0.022534
C46   C     C_R   0.485895 0.075918 0.512012 0.020757
C47   C     C_R   0.076909 0.506961 0.488389 0.022568
C48   C     C_R   0.924058 0.485981 0.512009 0.020753
C49   C     C_R   0.000080 0.499549 0.976601 0.072594
C50   C     C_R   0.000148 0.498795 0.023787 0.071762
C51   C     C_R   0.499646 0.000934 0.976603 0.072694
C52   C     C_R   0.499500 0.001100 0.023788 0.071937
C53   C     C_R   0.500001 0.999999 0.476610 0.072727
C54   C     C_R   0.500008 0.999990 0.523792 0.071929
C55   C     C_R   0.000003 0.500003 0.476606 0.072753
C56   C     C_R   0.000000 0.500005 0.523789 0.071913
C57   C     C_R   0.994568 0.652158 0.976317 -0.332003
C58   C     C_R   0.035416 0.350196 0.024080 -0.332792
C59   C     C_R   0.347042 0.995631 0.976112 -0.332012
C60   C     C_R   0.648003 0.036721 0.024265 -0.332480
C61   C     C_R   0.005463 0.346955 0.975967 -0.332013
C62   C     C_R   0.964792 0.647357 0.024420 -0.332650
C63   C     C_R   0.652255 0.006262 0.976181 -0.331704
C64   C     C_R   0.350937 0.965720 0.024227 -0.332905
C65   C     C_R   0.494337 0.152589 0.476159 -0.331726
C66   C     C_R   0.536091 0.851599 0.524246 -0.332584
C67   C     C_R   0.847405 0.494518 0.476155 -0.331872
C68   C     C_R   0.148435 0.535918 0.524243 -0.332573
C69   C     C_R   0.505663 0.847408 0.476156 -0.331842
C70   C     C_R   0.463925 0.148382 0.524249 -0.332575
C71   C     C_R   0.152602 0.505490 0.476153 -0.331874
C72   C     C_R   0.851566 0.464093 0.524246 -0.332577
C73   C     C_R   0.660309 0.839690 0.750000 0.849500
C74   C     C_R   0.339689 0.160306 0.249999 0.847652
C75   C     C_R   0.160309 0.660308 0.750000 0.848515
C76   C     C_R   0.839695 0.339690 0.249999 0.846847
C77   C     C_R   0.339693 0.160310 0.749999 0.849573
C78   C     C_R   0.660309 0.839694 0.249999 0.847664
C79   C     C_R   0.839689 0.339692 0.750000 0.850566
C80   C     C_R   0.160309 0.660307 0.250000 0.851172
C81   C     C_R   0.660309 0.160308 0.250000 0.849498
C82   C     C_R   0.339694 0.839690 0.749999 0.847642
C83   C     C_R   0.160308 0.339690 0.249999 0.848907
C84   C     C_R   0.839690 0.660306 0.749999 0.846962
C85   C     C_R   0.339690 0.839692 0.250000 0.849615
C86   C     C_R   0.660307 0.160309 0.749999 0.847606
C87   C     C_R   0.839692 0.660309 0.250000 0.850893
C88   C     C_R   0.160311 0.339696 0.749998 0.850843
C89   C     C_1   0.723398 0.223402 0.749999 -0.153270
C90   C     C_1   0.276596 0.776599 0.250000 -0.152608
C91   C     C_1   0.776597 0.723398 0.749999 -0.153366
C92   C     C_1   0.223401 0.276595 0.249999 -0.153258
C93   C     C_1   0.276603 0.776597 0.749999 -0.154111
C94   C     C_1   0.723405 0.223401 0.249999 -0.152903
C95   C     C_1   0.223405 0.276604 0.749998 -0.152975
C96   C     C_1   0.776599 0.723405 0.249999 -0.152677
C97   C     C_1   0.723402 0.776602 0.249999 -0.153242
C98   C     C_1   0.276601 0.223406 0.749999 -0.152286
C99   C     C_1   0.776603 0.276597 0.249999 -0.153321
C100  C     C_1   0.223404 0.723401 0.749999 -0.153353
C101  C     C_1   0.276596 0.223397 0.249999 -0.154010
C102  C     C_1   0.723401 0.776595 0.749999 -0.152907
C103  C     C_1   0.223401 0.723400 0.250000 -0.153799
C104  C     C_1   0.776594 0.276600 0.749999 -0.152707
C105  C     C_R   0.480770 0.072446 0.582846 0.584353
C106  C     C_R   0.500711 0.925037 0.417544 0.585054
C107  C     C_R   0.927507 0.480856 0.582842 0.584348
C108  C     C_R   0.074980 0.500539 0.417541 0.585113
C109  C     C_R   0.519255 0.927515 0.582844 0.584356
C110  C     C_R   0.499250 0.074983 0.417545 0.584932
C111  C     C_R   0.072487 0.519161 0.582841 0.584345
C112  C     C_R   0.925032 0.499461 0.417542 0.585113
C113  C     C_R   0.982105 0.570611 0.082925 0.581877
C114  C     C_R   0.001251 0.425562 0.917444 0.581641
C115  C     C_R   0.426946 0.981753 0.082834 0.584321
C116  C     C_R   0.574836 0.001023 0.917554 0.585167
C117  C     C_R   0.019094 0.425295 0.082759 0.579932
C118  C     C_R   0.999481 0.575501 0.917624 0.580042
C119  C     C_R   0.571963 0.019915 0.082851 0.584367
C120  C     C_R   0.424889 0.999932 0.917519 0.585129
C121  C     C_R   0.437069 0.956176 0.629647 0.430046
C122  C     C_R   0.428400 0.027205 0.370700 0.428128
C123  C     C_R   0.043714 0.437004 0.629643 0.430022
C124  C     C_R   0.972434 0.428552 0.370693 0.428210
C125  C     C_R   0.562960 0.043780 0.629645 0.430038
C126  C     C_R   0.571581 0.972825 0.370700 0.428080
C127  C     C_R   0.956278 0.563007 0.629644 0.429999
C128  C     C_R   0.027580 0.571443 0.370692 0.428229
C129  C     C_R   0.937683 0.454310 0.129659 0.434529
C130  C     C_R   0.928947 0.528650 0.870715 0.432885
C131  C     C_R   0.543455 0.937472 0.129600 0.430378
C132  C     C_R   0.472582 0.928697 0.870711 0.428170
C133  C     C_R   0.064158 0.541095 0.129696 0.421694
C134  C     C_R   0.071973 0.473803 0.870589 0.419532
C135  C     C_R   0.455612 0.063200 0.129698 0.430184
C136  C     C_R   0.527442 0.071695 0.870674 0.428197
C137  C     C_R   0.438607 0.953343 0.653131 -0.054499
C138  C     C_R   0.429507 0.031306 0.347221 -0.054933
C139  C     C_R   0.046563 0.438542 0.653127 -0.054464
C140  C     C_R   0.968359 0.429670 0.347215 -0.054849
C141  C     C_R   0.561414 0.046627 0.653129 -0.054459
C142  C     C_R   0.570481 0.968719 0.347223 -0.054881
C143  C     C_R   0.953433 0.561465 0.653128 -0.054472
C144  C     C_R   0.031651 0.570326 0.347214 -0.054864
C145  C     C_R   0.938713 0.452150 0.153170 -0.062314
C146  C     C_R   0.929724 0.532448 0.847214 -0.061564
C147  C     C_R   0.546390 0.938822 0.153084 -0.054645
C148  C     C_R   0.468528 0.929711 0.847232 -0.054577
C149  C     C_R   0.061969 0.544256 0.153088 -0.064240
C150  C     C_R   0.070392 0.470046 0.847195 -0.062388
C151  C     C_R   0.452915 0.061477 0.153181 -0.054143
C152  C     C_R   0.531590 0.070473 0.847198 -0.054870
C153  C     C_R   0.500016 0.999976 0.617993 0.032498
C154  C     C_R   0.499987 0.000015 0.382368 0.032687
C155  C     C_R   0.999996 0.500007 0.617990 0.032519
C156  C     C_R   0.000007 0.499998 0.382362 0.032280
C157  C     C_R   0.001098 0.497531 0.117990 0.032383
C158  C     C_R   0.000606 0.501194 0.882357 0.031941
C159  C     C_R   0.499503 0.000450 0.117993 0.031926
C160  C     C_R   0.499985 0.000252 0.882360 0.032554
C161  C     C_R   0.500010 0.999986 0.547506 -0.187075
C162  C     C_R   0.499995 0.000003 0.452891 -0.185908
C163  C     C_R   0.999999 0.500007 0.547503 -0.187061
C164  C     C_R   0.000004 0.500001 0.452888 -0.186027
C165  C     C_R   0.000292 0.498443 0.047503 -0.186633
C166  C     C_R   0.000156 0.499941 0.952881 -0.185581
C167  C     C_R   0.499462 0.001054 0.047503 -0.187100
C168  C     C_R   0.499734 0.000762 0.952883 -0.185975
C169  C     C_R   0.480016 0.074252 0.559360 -0.139298
C170  C     C_R   0.500774 0.923103 0.441037 -0.134422
C171  C     C_R   0.925706 0.480101 0.559357 -0.139306
C172  C     C_R   0.076908 0.500656 0.441033 -0.134440
C173  C     C_R   0.520006 0.925716 0.559358 -0.139298
C174  C     C_R   0.499205 0.076908 0.441038 -0.134480
C175  C     C_R   0.074290 0.519915 0.559355 -0.139307
C176  C     C_R   0.923101 0.499347 0.441035 -0.134454
C177  C     C_R   0.980964 0.572688 0.059443 -0.139403
C178  C     C_R   0.001025 0.423241 0.940935 -0.134060
C179  C     C_R   0.425110 0.981285 0.059347 -0.139067
C180  C     C_R   0.576681 0.001290 0.941047 -0.134438
C181  C     C_R   0.019778 0.423853 0.059272 -0.138867
C182  C     C_R   0.999363 0.577036 0.941116 -0.134144
C183  C     C_R   0.573783 0.020770 0.059366 -0.139219
C184  C     C_R   0.422874 0.000048 0.941010 -0.134384
H1    H     H_    0.994781 0.712720 0.984359 0.158227
H2    H     H_    0.051876 0.291919 0.016035 0.159082
H3    H     H_    0.286325 0.995964 0.984073 0.158107
H4    H     H_    0.706380 0.053307 0.016287 0.159042
H5    H     H_    0.005119 0.286135 0.983873 0.158261
H6    H     H_    0.948174 0.705857 0.016513 0.159162
H7    H     H_    0.712908 0.006042 0.984176 0.158287
H8    H     H_    0.292524 0.949356 0.016240 0.158830
H9    H     H_    0.494510 0.213264 0.484145 0.158375
H10   H     H_    0.552861 0.793297 0.516256 0.159113
H11   H     H_    0.786729 0.494731 0.484142 0.158281
H12   H     H_    0.206757 0.552625 0.516254 0.159124
H13   H     H_    0.505496 0.786731 0.484142 0.158324
H14   H     H_    0.447152 0.206686 0.516261 0.159116
H15   H     H_    0.213277 0.505282 0.484138 0.158273
H16   H     H_    0.793245 0.447385 0.516257 0.159130
N1    N     N_R   0.500014 0.999979 0.593978 -0.325679
N2    N     N_R   0.499981 0.000012 0.406399 -0.326611
N3    N     N_R   0.999996 0.500009 0.593976 -0.325654
N4    N     N_R   0.000006 0.499999 0.406394 -0.326818
N5    N     N_R   0.000832 0.497838 0.093977 -0.327788
N6    N     N_R   0.000538 0.500721 0.906387 -0.329480
N7    N     N_R   0.499469 0.000702 0.093977 -0.326021
N8    N     N_R   0.499902 0.000386 0.906390 -0.326655
O1    O     O_3   0.500000 0.000000 0.750000 -0.489865
O2    O     O_3   0.500000 0.000000 0.250000 -0.489828
O3    O     O_3   0.000000 0.500000 0.750000 -0.490162
O4    O     O_3   0.000000 0.500000 0.250000 -0.489921
O5    O     O_R   0.500000 0.069020 0.799580 -0.625771
O6    O     O_R   0.500000 0.930980 0.200420 -0.626190
O7    O     O_R   0.930980 0.500000 0.799580 -0.628071
O8    O     O_R   0.069020 0.500000 0.200420 -0.629758
O9    O     O_R   0.500000 0.930980 0.799580 -0.626031
O10   O     O_R   0.500000 0.069020 0.200420 -0.626286
O11   O     O_R   0.069020 0.500000 0.799580 -0.625625
O12   O     O_R   0.930980 0.500000 0.200420 -0.627467
O13   O     O_R   0.000000 0.569020 0.299580 -0.626190
O14   O     O_R   0.000000 0.430980 0.700420 -0.626430
O15   O     O_R   0.430980 0.000000 0.299580 -0.625937
O16   O     O_R   0.569020 0.000000 0.700420 -0.626206
O17   O     O_R   0.000000 0.430980 0.299580 -0.625885
O18   O     O_R   0.000000 0.569020 0.700420 -0.626154
O19   O     O_R   0.569020 0.000000 0.299580 -0.625902
O20   O     O_R   0.430980 0.000000 0.700420 -0.626217
O21   O     O_R   0.597490 0.833170 0.762730 -0.635773
O22   O     O_R   0.402510 0.166830 0.237270 -0.634980
O23   O     O_R   0.166830 0.597490 0.762730 -0.638766
O24   O     O_R   0.833170 0.402510 0.237270 -0.635361
O25   O     O_R   0.402510 0.166830 0.762730 -0.635588
O26   O     O_R   0.597490 0.833170 0.237270 -0.634726
O27   O     O_R   0.833170 0.402510 0.762730 -0.635235
O28   O     O_R   0.166830 0.597490 0.237270 -0.634258
O29   O     O_R   0.597490 0.166830 0.237270 -0.636433
O30   O     O_R   0.402510 0.833170 0.762730 -0.637001
O31   O     O_R   0.166830 0.402510 0.237270 -0.638868
O32   O     O_R   0.833170 0.597490 0.762730 -0.637150
O33   O     O_R   0.402510 0.833170 0.237270 -0.636525
O34   O     O_R   0.597490 0.166830 0.762730 -0.636632
O35   O     O_R   0.833170 0.597490 0.237270 -0.635765
O36   O     O_R   0.166830 0.402510 0.762730 -0.634545
O37   O     O_R   0.097490 0.333170 0.262730 -0.635255
O38   O     O_R   0.902510 0.666830 0.737270 -0.634625
O39   O     O_R   0.666830 0.097490 0.262730 -0.635488
O40   O     O_R   0.333170 0.902510 0.737270 -0.634378
O41   O     O_R   0.902510 0.666830 0.262730 -0.635461
O42   O     O_R   0.097490 0.333170 0.737270 -0.634948
O43   O     O_R   0.333170 0.902510 0.262730 -0.635510
O44   O     O_R   0.666830 0.097490 0.737270 -0.634578
O45   O     O_R   0.097490 0.666830 0.737270 -0.635835
O46   O     O_R   0.902510 0.333170 0.262730 -0.636548
O47   O     O_R   0.666830 0.902510 0.737270 -0.636167
O48   O     O_R   0.333170 0.097490 0.262730 -0.636378
O49   O     O_R   0.902510 0.333170 0.737270 -0.636094
O50   O     O_R   0.097490 0.666830 0.262730 -0.636439
O51   O     O_R   0.333170 0.097490 0.737270 -0.636275
O52   O     O_R   0.666830 0.902510 0.262730 -0.636514
O53   O     O_2   0.462045 0.142254 0.594603 -0.505134
O54   O     O_2   0.500907 0.852742 0.405796 -0.508071
O55   O     O_2   0.857671 0.462224 0.594599 -0.505156
O56   O     O_2   0.147280 0.500489 0.405794 -0.507836
O57   O     O_2   0.537981 0.857703 0.594600 -0.505121
O58   O     O_2   0.499036 0.147282 0.405799 -0.508084
O59   O     O_2   0.142321 0.537795 0.594597 -0.505153
O60   O     O_2   0.852732 0.499510 0.405796 -0.507829
O61   O     O_2   0.964222 0.640456 0.094758 -0.504004
O62   O     O_2   0.001653 0.353465 0.905612 -0.506324
O63   O     O_2   0.357121 0.963001 0.094582 -0.504849
O64   O     O_2   0.647174 0.000927 0.905824 -0.508091
O65   O     O_2   0.037060 0.355094 0.094436 -0.504506
O66   O     O_2   0.999175 0.648001 0.905964 -0.507002
O67   O     O_2   0.641790 0.038505 0.094615 -0.504753
O68   O     O_2   0.352634 0.999850 0.905753 -0.507926
Zn1   Zn    Zn3+2 0.599000 0.000000 0.730930 0.981672
Zn2   Zn    Zn3+2 0.401000 0.000000 0.269070 0.979908
Zn3   Zn    Zn3+2 0.000000 0.599000 0.730930 0.980883
Zn4   Zn    Zn3+2 0.000000 0.401000 0.269070 0.979198
Zn5   Zn    Zn3+2 0.401000 0.000000 0.730930 0.981717
Zn6   Zn    Zn3+2 0.599000 0.000000 0.269070 0.979894
Zn7   Zn    Zn3+2 0.000000 0.401000 0.730930 0.982963
Zn8   Zn    Zn3+2 0.000000 0.599000 0.269070 0.981571
Zn9   Zn    Zn3+2 0.099000 0.500000 0.230930 0.980253
Zn10  Zn    Zn3+2 0.901000 0.500000 0.769070 0.981105
Zn11  Zn    Zn3+2 0.500000 0.099000 0.230930 0.981228
Zn12  Zn    Zn3+2 0.500000 0.901000 0.769070 0.979360
Zn13  Zn    Zn3+2 0.901000 0.500000 0.230930 0.983866
Zn14  Zn    Zn3+2 0.099000 0.500000 0.769070 0.979991
Zn15  Zn    Zn3+2 0.500000 0.901000 0.230930 0.981493
Zn16  Zn    Zn3+2 0.500000 0.099000 0.769070 0.979957
N9    N     N_3   0.620644 0.097725 0.665232 -0.410315
H17   H     H_    0.586817 0.146493 0.672725 0.183541
H18   H     H_    0.664173 0.126413 0.654680 0.227856
N10   N     N_3   0.639854 0.931648 0.335316 -0.403031
H19   H     H_    0.618456 0.875097 0.328474 0.189937
H20   H     H_    0.689576 0.915956 0.345865 0.226410
N11   N     N_3   0.902405 0.620756 0.665233 -0.410219
H21   H     H_    0.853596 0.586988 0.672726 0.183592
H22   H     H_    0.873771 0.664319 0.654681 0.227859
N12   N     N_3   0.069042 0.639512 0.335301 -0.403202
H23   H     H_    0.125426 0.617810 0.328429 0.189676
H24   H     H_    0.085089 0.689115 0.345852 0.226452
N13   N     N_3   0.379376 0.902247 0.665237 -0.410297
H25   H     H_    0.413207 0.853501 0.672738 0.183568
H26   H     H_    0.335871 0.873529 0.654685 0.227871
N14   N     N_3   0.360142 0.068381 0.335314 -0.403029
H27   H     H_    0.381563 0.124903 0.328459 0.189958
H28   H     H_    0.310442 0.084133 0.345865 0.226422
N15   N     N_3   0.097591 0.379250 0.665230 -0.410341
H29   H     H_    0.146396 0.413018 0.672724 0.183514
H30   H     H_    0.126235 0.335696 0.654677 0.227848
N16   N     N_3   0.930968 0.360483 0.335305 -0.403096
H31   H     H_    0.874570 0.382179 0.328439 0.189754
H32   H     H_    0.914945 0.310870 0.345855 0.226450
N17   N     N_3   0.121146 0.595768 0.164881 -0.413062
H33   H     H_    0.181825 0.574256 0.161414 0.200478
H34   H     H_    0.115884 0.657447 0.159008 0.223091
N18   N     N_3   0.139848 0.432909 0.835541 -0.401347
H35   H     H_    0.194209 0.467250 0.839126 0.200875
H36   H     H_    0.148139 0.371554 0.841408 0.221329
N19   N     N_3   0.401778 0.120525 0.165337 -0.410801
H37   H     H_    0.353126 0.086553 0.172837 0.183473
H38   H     H_    0.372939 0.164074 0.154820 0.227357
N20   N     N_3   0.568934 0.139656 0.835273 -0.403036
H39   H     H_    0.625328 0.117969 0.828402 0.189962
H40   H     H_    0.584971 0.189287 0.845815 0.226497
N21   N     N_3   0.878908 0.401845 0.165306 -0.411315
H41   H     H_    0.912323 0.353351 0.173048 0.182209
H42   H     H_    0.835726 0.372722 0.154739 0.228231
N22   N     N_3   0.860238 0.569341 0.835320 -0.404104
H43   H     H_    0.881718 0.625524 0.828284 0.188608
H44   H     H_    0.810886 0.585723 0.845917 0.226739
N23   N     N_3   0.597589 0.879547 0.165142 -0.410437
H45   H     H_    0.646381 0.913352 0.172630 0.183900
H46   H     H_    0.626234 0.836098 0.154559 0.228042
N24   N     N_3   0.431266 0.860413 0.835338 -0.403734
H47   H     H_    0.374846 0.881990 0.828460 0.189610
H48   H     H_    0.415297 0.810826 0.845904 0.225754
O69   O     O_3   0.622373 0.089005 0.617839 -0.581678
C185  C     C_3   0.691632 0.036058 0.613353 0.093232
H49   H     H_    0.671975 0.977657 0.604537 0.149091
H50   H     H_    0.724416 0.018567 0.629056 0.147345
C186  C     C_3   0.753406 0.082617 0.598475 -0.840738
H51   H     H_    0.774827 0.141294 0.606753 0.261152
H52   H     H_    0.808872 0.042145 0.595087 0.203696
H53   H     H_    0.722729 0.098834 0.582437 0.253008
O70   O     O_3   0.640753 0.944632 0.382492 -0.582613
C187  C     C_3   0.694407 0.013685 0.386609 0.089268
H54   H     H_    0.661668 0.063588 0.396305 0.151875
H55   H     H_    0.717973 0.041034 0.370722 0.147205
C188  C     C_3   0.769587 0.983966 0.400123 -0.821878
H56   H     H_    0.804564 0.934828 0.390796 0.255574
H57   H     H_    0.812410 0.037719 0.403434 0.205821
H58   H     H_    0.747980 0.957493 0.416242 0.259952
O71   O     O_3   0.911137 0.622483 0.617839 -0.581688
C189  C     C_3   0.964180 0.691671 0.613356 0.093226
H59   H     H_    0.022561 0.671938 0.604541 0.149092
H60   H     H_    0.981706 0.724431 0.629059 0.147359
C190  C     C_3   0.917714 0.753509 0.598478 -0.840727
H61   H     H_    0.859060 0.775006 0.606754 0.261162
H62   H     H_    0.958263 0.808921 0.595091 0.203703
H63   H     H_    0.901468 0.722855 0.582439 0.252986
O72   O     O_3   0.056171 0.640459 0.382480 -0.582465
C191  C     C_3   0.987413 0.694462 0.386620 0.089385
H64   H     H_    0.937358 0.661963 0.396319 0.151767
H65   H     H_    0.960154 0.718210 0.370742 0.147197
C192  C     C_3   0.017568 0.769445 0.400143 -0.821802
H66   H     H_    0.066898 0.804160 0.390818 0.255509
H67   H     H_    0.964062 0.812565 0.403464 0.205834
H68   H     H_    0.043932 0.747656 0.416257 0.259948
O73   O     O_3   0.377658 0.910950 0.617842 -0.581671
C193  C     C_3   0.308394 0.963893 0.613360 0.093238
H69   H     H_    0.328044 0.022295 0.604542 0.149083
H70   H     H_    0.275615 0.981384 0.629064 0.147356
C194  C     C_3   0.246614 0.917331 0.598487 -0.840721
H71   H     H_    0.225202 0.858652 0.606766 0.261165
H72   H     H_    0.191143 0.957799 0.595101 0.203690
H73   H     H_    0.277283 0.901118 0.582447 0.252999
O74   O     O_3   0.359222 0.055397 0.382491 -0.582596
C195  C     C_3   0.305555 0.986348 0.386601 0.089269
H74   H     H_    0.338282 0.936426 0.396294 0.151917
H75   H     H_    0.281991 0.959024 0.370712 0.147213
C196  C     C_3   0.230374 0.016062 0.400117 -0.821852
H76   H     H_    0.195416 0.065226 0.390796 0.255582
H77   H     H_    0.187535 0.962314 0.403421 0.205818
H78   H     H_    0.251978 0.042500 0.416240 0.259945
O75   O     O_3   0.088851 0.377528 0.617836 -0.581691
C197  C     C_3   0.035807 0.308341 0.613355 0.093215
H79   H     H_    0.977410 0.328077 0.604549 0.149094
H80   H     H_    0.018307 0.275565 0.629059 0.147355
C198  C     C_3   0.082255 0.246522 0.598467 -0.840748
H81   H     H_    0.140925 0.225024 0.606734 0.261159
H82   H     H_    0.041707 0.191109 0.595083 0.203708
H83   H     H_    0.098471 0.277192 0.582428 0.252988
O76   O     O_3   0.943844 0.359536 0.382483 -0.582464
C199  C     C_3   0.012603 0.305536 0.386622 0.089389
H84   H     H_    0.062654 0.338037 0.396321 0.151773
H85   H     H_    0.039867 0.281790 0.370745 0.147201
C200  C     C_3   0.982448 0.230551 0.400146 -0.821799
H86   H     H_    0.933121 0.195835 0.390822 0.255511
H87   H     H_    0.035955 0.187432 0.403467 0.205837
H88   H     H_    0.956080 0.252338 0.416260 0.259948
O77   O     O_3   0.123696 0.587361 0.118210 -0.576654
C201  C     C_3   0.191115 0.533972 0.112329 0.101638
H89   H     H_    0.169324 0.478348 0.102683 0.145413
H90   H     H_    0.224973 0.511758 0.127425 0.132848
C202  C     C_3   0.252624 0.582619 0.097848 -0.835463
H91   H     H_    0.276275 0.638628 0.106951 0.260985
H92   H     H_    0.306727 0.541779 0.093394 0.201397
H93   H     H_    0.220872 0.603428 0.082336 0.252527
O78   O     O_3   0.141324 0.443710 0.881982 -0.578012
C203  C     C_3   0.193632 0.512220 0.887663 0.100830
H94   H     H_    0.160966 0.556393 0.899117 0.148255
H95   H     H_    0.214199 0.547288 0.872571 0.131941
C204  C     C_3   0.271524 0.479248 0.899468 -0.821574
H96   H     H_    0.306462 0.435643 0.888375 0.255000
H97   H     H_    0.313294 0.532545 0.904007 0.204535
H98   H     H_    0.253047 0.445252 0.914856 0.260389
O79   O     O_3   0.410126 0.122567 0.117946 -0.581447
C205  C     C_3   0.462861 0.191961 0.113436 0.093322
H99   H     H_    0.521112 0.172485 0.104523 0.148895
H100  H     H_    0.480615 0.224623 0.129137 0.146871
C206  C     C_3   0.415887 0.253801 0.098670 -0.841243
H101  H     H_    0.357392 0.275104 0.107059 0.260588
H102  H     H_    0.456224 0.309331 0.095242 0.203502
H103  H     H_    0.399303 0.223229 0.082644 0.253322
O80   O     O_3   0.555803 0.140842 0.882448 -0.582610
C207  C     C_3   0.486909 0.194756 0.886513 0.089533
H104  H     H_    0.436774 0.162216 0.896174 0.151926
H105  H     H_    0.459823 0.218409 0.870604 0.147440
C208  C     C_3   0.516768 0.269832 0.900046 -0.822272
H106  H     H_    0.566172 0.304589 0.890759 0.255626
H107  H     H_    0.463151 0.312884 0.903305 0.206253
H108  H     H_    0.542944 0.248138 0.916190 0.259894
O81   O     O_3   0.878007 0.409414 0.117859 -0.581604
C209  C     C_3   0.809096 0.462781 0.113343 0.094415
H109  H     H_    0.829172 0.521212 0.104604 0.148868
H110  H     H_    0.776151 0.480226 0.129025 0.147701
C210  C     C_3   0.747332 0.416745 0.098351 -0.841684
H111  H     H_    0.725545 0.358016 0.106537 0.261327
H112  H     H_    0.692087 0.457513 0.094958 0.203660
H113  H     H_    0.778165 0.400685 0.082323 0.252996
O82   O     O_3   0.859917 0.556991 0.882542 -0.582337
C211  C     C_3   0.806093 0.488080 0.886671 0.090263
H114  H     H_    0.838796 0.437960 0.896297 0.151759
H115  H     H_    0.782197 0.460973 0.870791 0.147529
C212  C     C_3   0.731228 0.517931 0.900288 -0.822336
H116  H     H_    0.696307 0.567315 0.891038 0.255506
H117  H     H_    0.688244 0.464306 0.903600 0.205747
H118  H     H_    0.753176 0.544130 0.916405 0.260186
O83   O     O_3   0.588751 0.878239 0.117751 -0.581408
C213  C     C_3   0.535867 0.808998 0.113198 0.093386
H119  H     H_    0.477511 0.828713 0.104370 0.149045
H120  H     H_    0.518297 0.776053 0.128872 0.146974
C214  C     C_3   0.582551 0.747391 0.098300 -0.840795
H121  H     H_    0.641169 0.725897 0.106593 0.261003
H122  H     H_    0.542117 0.691953 0.094850 0.203593
H123  H     H_    0.598886 0.778242 0.082293 0.253335
O84   O     O_3   0.444124 0.859675 0.882521 -0.582660
C215  C     C_3   0.512987 0.805814 0.886669 0.089265
H124  H     H_    0.563013 0.838454 0.896344 0.151999
H125  H     H_    0.540243 0.782021 0.870795 0.147050
C216  C     C_3   0.482999 0.730858 0.900229 -0.822634
H126  H     H_    0.433706 0.696002 0.890929 0.255338
H127  H     H_    0.536590 0.687850 0.903557 0.205835
H128  H     H_    0.456641 0.752695 0.916340 0.260010
O85   O     O_3   0.436635 0.221200 0.558279 -0.563206
C217  C     C_3   0.348147 0.229426 0.557822 0.080524
H129  H     H_    0.324978 0.237069 0.540456 0.121011
H130  H     H_    0.317122 0.173697 0.565547 0.136606
C218  C     C_3   0.322764 0.307136 0.570979 -0.676921
H131  H     H_    0.352166 0.364055 0.563607 0.259392
H132  H     H_    0.253332 0.314594 0.570588 0.202586
H133  H     H_    0.343435 0.300785 0.588547 0.274159
O86   O     O_3   0.499701 0.769880 0.442155 -0.580025
C219  C     C_3   0.416894 0.737660 0.442466 0.115075
H134  H     H_    0.395601 0.725270 0.459812 0.123676
H135  H     H_    0.372291 0.782135 0.434307 0.145406
C220  C     C_3   0.414700 0.654981 0.429753 -0.747554
H136  H     H_    0.456802 0.608469 0.437865 0.232123
H137  H     H_    0.349611 0.629654 0.429604 0.250503
H138  H     H_    0.435709 0.665007 0.412334 0.274487
O87   O     O_3   0.778712 0.436877 0.558275 -0.563249
C221  C     C_3   0.770412 0.348396 0.557823 0.080607
H139  H     H_    0.762751 0.325220 0.540458 0.121026
H140  H     H_    0.826113 0.317331 0.565549 0.136605
C222  C     C_3   0.692678 0.323090 0.570981 -0.677076
H141  H     H_    0.635784 0.352530 0.563608 0.259337
H142  H     H_    0.685164 0.253664 0.570595 0.202641
H143  H     H_    0.699044 0.343773 0.588548 0.274159
O88   O     O_3   0.230130 0.499507 0.442150 -0.579935
C223  C     C_3   0.262390 0.416719 0.442479 0.115102
H144  H     H_    0.274880 0.395531 0.459829 0.123665
H145  H     H_    0.217898 0.372044 0.434354 0.145451
C224  C     C_3   0.345004 0.414501 0.429736 -0.747128
H146  H     H_    0.391526 0.456695 0.437810 0.232123
H147  H     H_    0.370377 0.349431 0.429607 0.250674
H148  H     H_    0.334869 0.435386 0.412311 0.274515
O89   O     O_3   0.563383 0.778768 0.558274 -0.563207
C225  C     C_3   0.651871 0.770538 0.557814 0.080499
H149  H     H_    0.675036 0.762901 0.540446 0.121005
H150  H     H_    0.682899 0.826263 0.565539 0.136614
C226  C     C_3   0.677252 0.692821 0.570968 -0.676870
H151  H     H_    0.647847 0.635907 0.563596 0.259385
H152  H     H_    0.746684 0.685362 0.570574 0.202571
H153  H     H_    0.656583 0.699166 0.588537 0.274174
O90   O     O_3   0.500251 0.230134 0.442162 -0.580060
C227  C     C_3   0.583068 0.262331 0.442444 0.115291
H154  H     H_    0.604542 0.274504 0.459786 0.123561
H155  H     H_    0.627572 0.217937 0.434218 0.145636
C228  C     C_3   0.585162 0.345166 0.429801 -0.747945
H156  H     H_    0.543189 0.391602 0.437990 0.232082
H157  H     H_    0.650264 0.370454 0.429617 0.250571
H158  H     H_    0.563931 0.335374 0.412392 0.274459
O91   O     O_3   0.221285 0.563137 0.558271 -0.563241
C229  C     C_3   0.229587 0.651618 0.557818 0.080594
H159  H     H_    0.237241 0.674793 0.540451 0.121013
H160  H     H_    0.173888 0.682684 0.565546 0.136612
C230  C     C_3   0.307327 0.676923 0.570972 -0.677070
H161  H     H_    0.364216 0.647482 0.563596 0.259333
H162  H     H_    0.314841 0.746349 0.570584 0.202619
H163  H     H_    0.300968 0.656240 0.588539 0.274168
O92   O     O_3   0.769880 0.500513 0.442153 -0.579909
C231  C     C_3   0.737635 0.583308 0.442483 0.115063
H164  H     H_    0.725151 0.604499 0.459833 0.123655
H165  H     H_    0.782134 0.627973 0.434356 0.145440
C232  C     C_3   0.655020 0.585540 0.429742 -0.747114
H166  H     H_    0.608488 0.543362 0.437820 0.232122
H167  H     H_    0.629663 0.650617 0.429612 0.250633
H168  H     H_    0.665146 0.564646 0.412318 0.274521
O93   O     O_3   0.938337 0.719868 0.058536 -0.563708
C233  C     C_3   0.849863 0.728343 0.058237 0.081737
H169  H     H_    0.826308 0.736275 0.040915 0.121149
H170  H     H_    0.818861 0.672603 0.065963 0.136530
C234  C     C_3   0.825021 0.805947 0.071507 -0.679369
H171  H     H_    0.854366 0.862885 0.064130 0.259052
H172  H     H_    0.755597 0.813569 0.071253 0.203372
H173  H     H_    0.846147 0.799326 0.089030 0.274039
O94   O     O_3   0.999685 0.270007 0.941872 -0.580470
C235  C     C_3   0.916809 0.237954 0.942087 0.115167
H174  H     H_    0.895306 0.225339 0.959404 0.123881
H175  H     H_    0.872384 0.282647 0.933943 0.145463
C236  C     C_3   0.914578 0.155475 0.929284 -0.746975
H176  H     H_    0.956542 0.108771 0.937368 0.232156
H177  H     H_    0.849449 0.130252 0.929072 0.250387
H178  H     H_    0.935742 0.165737 0.911887 0.274446
O95   O     O_3   0.277839 0.939051 0.058253 -0.563966
C237  C     C_3   0.268577 0.850674 0.057701 0.080998
H179  H     H_    0.260649 0.827846 0.040312 0.120786
H180  H     H_    0.323945 0.818892 0.065390 0.137152
C238  C     C_3   0.190573 0.826021 0.070833 -0.676882
H181  H     H_    0.134017 0.856263 0.063505 0.258517
H182  H     H_    0.182247 0.756698 0.070354 0.202640
H183  H     H_    0.197200 0.846297 0.088426 0.274182
O96   O     O_3   0.729899 0.000089 0.942199 -0.579774
C239  C     C_3   0.762126 0.917289 0.942565 0.115238
H184  H     H_    0.774481 0.896149 0.959926 0.123652
H185  H     H_    0.717674 0.872608 0.934427 0.145448
C240  C     C_3   0.844835 0.914996 0.929866 -0.747352
H186  H     H_    0.891311 0.957205 0.937953 0.232086
H187  H     H_    0.870192 0.849917 0.929767 0.250499
H188  H     H_    0.834839 0.935821 0.912430 0.274495
O97   O     O_3   0.062335 0.276680 0.058024 -0.563461
C241  C     C_3   0.150796 0.268115 0.057578 0.079445
H189  H     H_    0.174008 0.260750 0.040207 0.121097
H190  H     H_    0.182004 0.323561 0.065393 0.136117
C242  C     C_3   0.175834 0.190030 0.070626 -0.675270
H191  H     H_    0.146281 0.133374 0.063157 0.259161
H192  H     H_    0.245245 0.182341 0.070252 0.203121
H193  H     H_    0.155080 0.196070 0.088196 0.274012
O98   O     O_3   0.000310 0.730244 0.942406 -0.579612
C243  C     C_3   0.083085 0.762546 0.942732 0.115003
H194  H     H_    0.104447 0.774631 0.960087 0.123375
H195  H     H_    0.127696 0.718271 0.934500 0.144712
C244  C     C_3   0.085134 0.845468 0.930128 -0.747838
H196  H     H_    0.043044 0.891793 0.938320 0.232094
H197  H     H_    0.150202 0.870850 0.929984 0.250419
H198  H     H_    0.064029 0.835758 0.912705 0.274528
O99   O     O_3   0.720890 0.063616 0.058306 -0.562990
C245  C     C_3   0.729601 0.152056 0.057832 0.079608
H199  H     H_    0.737315 0.175157 0.040461 0.121049
H200  H     H_    0.674065 0.183392 0.065566 0.136750
C246  C     C_3   0.807500 0.177036 0.070964 -0.675498
H201  H     H_    0.864222 0.147260 0.063591 0.259474
H202  H     H_    0.815378 0.246417 0.070547 0.202891
H203  H     H_    0.801075 0.156488 0.088541 0.274061
O100  O     O_3   0.269655 0.001284 0.942085 -0.579934
C247  C     C_3   0.237414 0.084082 0.942345 0.114666
H204  H     H_    0.224860 0.105456 0.959676 0.123533
H205  H     H_    0.281947 0.128660 0.934198 0.145316
C248  C     C_3   0.154851 0.086178 0.929580 -0.746715
H206  H     H_    0.108293 0.044064 0.937671 0.232189
H207  H     H_    0.129485 0.151248 0.929398 0.250731
H208  H     H_    0.165052 0.065119 0.912172 0.274555

loop_
_geom_bond_atom_site_label_1
_geom_bond_atom_site_label_2
_ccdc_geom_bond_type
C113  C177  A    
C11   C171  A    
O71   C189  S    
C15   O91   S    
C24   C184  A    
N21   H42   S    
C214  H121  S    
C81   O39   A    
C9    C169  A    
C199  C200  S    
C12   C172  A    
O15   Zn2   S    
C107  C171  A    
O96   C239  S    
C218  H133  S    
C13   C173  A    
C239  C240  S    
C195  H74   S    
O32   Zn10  S    
C118  N6    A    
C146  N22   S    
O97   C241  S    
C235  H174  S    
C109  C173  A    
C124  O76   S    
C58   H2    S    
C3    O7    A    
C236  H178  S    
C189  C190  S    
C206  H101  S    
C220  H137  S    
C194  H73   S    
C203  C204  S    
C248  H207  S    
C189  H59   S    
C214  H123  S    
C212  H117  S    
C27   C143  A    
N20   H39   S    
C28   C144  A    
C84   C91   S    
C148  N24   S    
C112  O60   S    
C57   H1    S    
C192  H68   S    
C31   C147  A    
C122  O74   S    
C126  O70   S    
C60   H4    S    
O47   Zn1   S    
C61   H5    S    
C188  H57   S    
C124  C140  A    
C153  N1    S    
C118  C182  A    
C190  H63   S    
C225  H150  S    
C135  C159  A    
C80   C103  S    
C45   C69   A    
N19   H37   S    
C120  N8    A    
O51   Zn5   S    
C157  N5    S    
C9    C70   A    
C117  O65   S    
C111  N3    A    
N23   H46   S    
C11   C72   A    
C242  H193  S    
C197  H80   S    
C26   C138  A    
N16   H31   S    
O85   C217  S    
C234  H173  S    
C42   C45   A    
O2    Zn6   S    
C13   O89   S    
O44   Zn1   S    
C243  H194  S    
C219  H135  S    
C7    O15   A    
C135  O79   S    
C86   O34   A    
C208  H108  S    
C245  C246  S    
O25   Zn16  S    
C18   O94   S    
C127  C143  A    
O26   Zn15  S    
C186  H53   S    
C128  C144  A    
C93   C100  T    
C47   C71   A    
C105  C169  A    
C123  O75   S    
C74   C101  S    
O4    Zn4   S    
N19   H38   S    
N10   H19   S    
C12   C71   A    
C2    O6    A    
C116  C180  A    
C35   C51   A    
O75   C197  S    
C246  H203  S    
C201  H90   S    
O94   C235  S    
O3    Zn7   S    
C112  N4    A    
O19   Zn6   S    
C19   C179  A    
C17   C177  A    
O10   Zn11  S    
C239  H184  S    
C211  H115  S    
C10   O86   S    
O13   Zn8   S    
C185  C186  S    
C85   C90   S    
O11   Zn14  S    
C159  N7    S    
C229  H159  S    
C198  H81   S    
C33   C38   A    
C227  C228  S    
C130  O82   S    
C82   O40   A    
C110  N2    A    
C35   C40   A    
C218  H131  S    
O43   Zn2   S    
C111  O59   S    
C49   C166  A    
O77   C201  S    
O91   C229  S    
C7    O19   A    
O1    Zn1   S    
O17   Zn4   S    
C5    O17   A    
C108  O56   S    
O37   Zn4   S    
C215  H125  S    
C205  H100  S    
O99   C245  S    
C75   O23   A    
C207  H105  S    
C46   C70   A    
C210  H112  S    
C128  C156  A    
C29   C149  A    
N23   H45   S    
C10   C69   A    
C127  O71   S    
C133  O77   S    
C14   C174  A    
C2    O10   A    
C233  H169  S    
O28   Zn9   S    
C228  H157  S    
C202  H91   S    
O72   C191  S    
C142  N10   S    
C113  N5    A    
C6    O14   A    
O20   Zn5   S    
O35   Zn13  S    
C39   C51   A    
O70   C187  S    
C4    O8    A    
O41   Zn8   S    
C165  C177  A    
O42   Zn7   S    
C80   O28   A    
C166  C182  A    
C222  H141  S    
C163  C175  A    
O27   Zn10  S    
C229  C230  S    
C73   O21   A    
C200  H86   S    
C8    O20   A    
O80   C207  S    
C23   C183  A    
O87   C221  S    
C7    C26   S    
C12   O88   S    
O3    Zn14  S    
C113  O61   S    
O39   Zn6   S    
C244  H197  S    
C237  H179  S    
C115  O63   S    
C130  C146  A    
C160  N8    S    
C123  C139  A    
C106  O54   S    
O1    Zn5   S    
C221  C222  S    
C84   O38   A    
C121  C137  A    
C63   H7    S    
C238  H181  S    
C193  H69   S    
O23   Zn14  S    
C227  H155  S    
C19   O95   S    
C128  O72   S    
C191  H64   S    
C105  N1    A    
C125  C141  A    
N13   H26   S    
C233  C234  S    
C216  H126  S    
O22   Zn11  S    
C76   O24   A    
C131  C147  A    
C213  H119  S    
C76   O46   A    
C20   O96   S    
C36   C52   A    
C161  C169  A    
O31   Zn9   S    
C45   C53   A    
C70   H14   S    
O1    Zn12  S    
O89   C225  S    
C96   C97   T    
C106  C170  A    
C187  H54   S    
C48   C72   A    
C155  N3    S    
C77   O25   A    
C204  H97   S    
N14   H28   S    
C120  O68   S    
C13   C66   A    
C110  C174  A    
C198  H83   S    
N12   H24   S    
C226  H152  S    
C79   O49   A    
N22   H43   S    
C237  C238  S    
C109  O57   S    
C151  N19   S    
C217  H129  S    
C240  H187  S    
C222  H142  S    
C17   O93   S    
C224  H147  S    
C193  C194  S    
N18   H36   S    
C25   C137  A    
C107  N3    A    
N9    H17   S    
O33   Zn15  S    
C230  H162  S    
O34   Zn16  S    
C32   C152  A    
C78   O26   A    
C83   O37   A    
C213  C214  S    
C121  O73   S    
C220  H136  S    
C240  H186  S    
C16   C67   A    
C119  C183  A    
C145  N21   S    
C202  H93   S    
C189  H60   S    
C120  C184  A    
C191  C192  S    
C41   C53   A    
C245  H199  S    
C43   C55   A    
C112  C176  A    
O74   C195  S    
C85   O43   A    
N24   H48   S    
C221  H139  S    
N15   H30   S    
C205  H99   S    
O1    Zn16  S    
C231  H165  S    
C164  C172  A    
C115  C179  A    
C118  O66   S    
C200  H88   S    
C137  N13   S    
C34   C58   A    
C87   O41   A    
C241  H189  S    
C131  C159  A    
C235  C236  S    
C134  C158  A    
C129  C145  A    
C36   C39   A    
C75   O45   A    
C217  C218  S    
C1    O9    A    
C218  H132  S    
C20   C63   A    
C108  C172  A    
C79   O27   A    
C21   C58   A    
C22   C182  A    
O76   C199  S    
C147  N23   S    
C81   C94   S    
O4    Zn8   S    
C215  C216  S    
C24   C59   A    
C236  H177  S    
C14   C65   A    
C81   O29   A    
C133  C157  A    
O18   Zn3   S    
C54   C161  A    
C219  H134  S    
O4    Zn9   S    
C194  H72   S    
C136  C160  A    
C24   O100  S    
C139  N15   S    
C18   C178  A    
C205  C206  S    
C43   C67   A    
C212  H116  S    
C77   O51   A    
C33   C49   A    
O49   Zn7   S    
C78   O52   A    
O50   Zn8   S    
C9    O85   S    
C66   H10   S    
O81   C209  S    
O4    Zn13  S    
C196  H77   S    
C192  H67   S    
C241  C242  S    
O12   Zn13  S    
N20   H40   S    
C167  C179  A    
O78   C203  S    
C8    C25   S    
C34   C37   A    
C238  H182  S    
C23   O99   S    
C5    O13   A    
C248  H208  S    
C188  H56   S    
C143  N11   S    
C123  C155  A    
C190  H62   S    
O79   C205  S    
C121  C153  A    
C47   C55   A    
O93   C233  S    
C117  N5    A    
C52   C167  A    
C29   C145  A    
O90   C227  S    
C185  H50   S    
C53   C162  A    
C242  H192  S    
N16   H32   S    
C232  H168  S    
C35   C59   A    
N17   H34   S    
C129  O81   S    
C209  H109  S    
C243  H195  S    
O45   Zn3   S    
C136  C152  A    
C223  H144  S    
O46   Zn4   S    
O21   Zn12  S    
C4    O12   A    
C28   C140  A    
C33   C57   A    
C166  C178  A    
C186  H52   S    
C163  C171  A    
C4    C29   S    
C8    O16   A    
C74   O22   A    
C88   C95   S    
C16   C176  A    
N10   H20   S    
C82   C93   S    
O88   C223  S    
O2    Zn11  S    
C206  H102  S    
C222  H143  S    
O3    Zn10  S    
C197  C198  S    
C114  O62   S    
O40   Zn5   S    
C154  N2    S    
C248  H206  S    
C65   H9    S    
N24   H47   S    
C86   O44   A    
C239  H185  S    
C158  N6    S    
C134  O78   S    
C122  C138  A    
C127  C155  A    
O24   Zn13  S    
C215  H124  S    
O14   Zn7   S    
C229  H160  S    
C211  C212  S    
C187  C188  S    
C64   H8    S    
C116  N8    A    
C125  O69   S    
C126  C142  A    
C38   C62   A    
C209  C210  S    
O38   Zn3   S    
O95   C237  S    
C17   C62   A    
C161  C173  A    
C44   C56   A    
C141  N9    S    
C162  C170  A    
C19   C64   A    
C240  H188  S    
C140  N16   S    
C46   C54   A    
C85   O33   A    
C68   H12   S    
O2    Zn2   S    
O8    Zn9   S    
C199  H85   S    
C221  H140  S    
C207  C208  S    
C92   C101  T    
C162  C174  A    
O36   Zn14  S    
C73   C102  S    
C1    O5    A    
C203  H94   S    
C233  H170  S    
C234  H172  S    
O2    Zn15  S    
O29   Zn11  S    
C110  O58   S    
C188  H58   S    
O30   Zn12  S    
C37   C61   A    
C16   O92   S    
C196  H76   S    
C144  N12   S    
C225  H149  S    
C185  H49   S    
C208  H107  S    
C149  N17   S    
C25   C141  A    
C84   O32   A    
C210  H113  S    
C86   C89   S    
C88   O36   A    
C71   H15   S    
C197  H79   S    
C32   C148  A    
C10   C170  A    
C195  C196  S    
C130  C158  A    
C228  H158  S    
O82   C211  S    
C109  N1    A    
C165  C181  A    
C132  O84   S    
C11   O87   S    
C168  C180  A    
C42   C54   A    
C22   O98   S    
C237  H180  S    
C247  C248  S    
C135  C151  A    
O16   Zn1   S    
C6    O18   A    
C164  C176  A    
C247  H205  S    
C193  H70   S    
C90   C103  T    
C119  O67   S    
C3    O11   A    
N13   H25   S    
O84   C215  S    
C201  H89   S    
C213  H120  S    
C116  O64   S    
C132  C160  A    
C225  C226  S    
C235  H175  S    
N15   H29   S    
C211  H114  S    
C131  O83   S    
C115  N7    A    
C27   C139  A    
N21   H41   S    
C203  H95   S    
N11   H21   S    
C78   C97   S    
C22   C57   A    
C129  C157  A    
C204  H96   S    
C210  H111  S    
C95   C98   T    
C20   C180  A    
C223  H145  S    
O69   C185  S    
C76   C99   S    
C21   C181  A    
C83   C92   S    
C198  H82   S    
C56   C163  A    
C226  H151  S    
O86   C219  S    
N17   H33   S    
C111  C175  A    
O48   Zn2   S    
N22   H44   S    
C55   C164  A    
C228  H156  S    
C217  H130  S    
C150  N18   S    
C134  C150  A    
C37   C49   A    
C224  H146  S    
C214  H122  S    
C207  H104  S    
C216  H127  S    
C136  O80   S    
C167  C183  A    
C168  C184  A    
C201  C202  S    
C41   C46   A    
C232  H167  S    
C202  H92   S    
C43   C48   A    
O3    Zn3   S    
C44   C47   A    
C196  H78   S    
O52   Zn6   S    
C212  H118  S    
C73   O47   A    
C69   H13   S    
C122  C154  A    
C231  C232  S    
C51   C168  A    
O83   C213  S    
C50   C165  A    
C67   H11   S    
C31   C151  A    
C200  H87   S    
C125  C153  A    
C30   C146  A    
C191  H65   S    
C72   H16   S    
C23   C60   A    
C83   O31   A    
C34   C50   A    
C132  C148  A    
C133  C149  A    
O5    Zn16  S    
C247  H204  S    
C41   C65   A    
O6    Zn15  S    
C219  C220  S    
C114  C178  A    
C234  H171  S    
C40   C52   A    
C220  H138  S    
C1    C32   S    
O100  C247  S    
C114  N6    A    
C2    C31   S    
C3    C30   S    
C187  H55   S    
C14   O90   S    
C227  H154  S    
C106  N2    A    
C5    C28   S    
C87   O35   A    
C6    C27   S    
C87   C96   S    
C62   H6    S    
C232  H166  S    
C236  H176  S    
C77   C98   S    
C108  N4    A    
C59   H3    S    
N11   H22   S    
C194  H71   S    
C244  H198  S    
C21   O97   S    
C208  H106  S    
C124  C156  A    
C89   C104  T    
C79   C104  S    
C44   C68   A    
C119  N7    A    
C91   C102  T    
C156  N4    S    
C126  C154  A    
C204  H98   S    
N14   H27   S    
O9    Zn12  S    
C88   O42   A    
C192  H66   S    
C230  H161  S    
C241  H190  S    
C48   C56   A    
N12   H23   S    
C226  H153  S    
C195  H75   S    
C30   C150  A    
C231  H164  S    
C238  H183  S    
C36   C60   A    
C245  H200  S    
C18   C61   A    
C38   C50   A    
C39   C63   A    
C190  H61   S    
C216  H128  S    
C40   C64   A    
O7    Zn10  S    
C15   C175  A    
C224  H148  S    
C223  C224  S    
N18   H35   S    
C138  N14   S    
N9    H18   S    
C26   C142  A    
O73   C193  S    
C242  H191  S    
C246  H202  S    
C94   C99   T    
C15   C68   A    
C82   O30   A    
C75   C100  S    
C206  H103  S    
C117  C181  A    
C243  C244  S    
O98   C243  S    
C230  H163  S    
C209  H110  S    
C152  N20   S    
C80   O50   A    
C105  O53   S    
C244  H196  S    
C42   C66   A    
C199  H84   S    
C107  O55   S    
C186  H51   S    
O92   C231  S    
C74   O48   A    
C246  H201  S    
