data_mof_unit_14953.cif
_audit_creation_date              2012-12-11T16:56:08-0500
_audit_creation_method            fapswitch 2.2
_symmetry_space_group_name_H-M    P1
_symmetry_Int_Tables_number       1
_space_group_crystal_system       triclinic
_cell_length_a                    6.970493
_cell_length_b                    14.488072
_cell_length_c                    16.235071
_cell_angle_alpha                 90.390582
_cell_angle_beta                  89.99279
_cell_angle_gamma                 89.974726
_cell_volume                      1639.52538881

loop_
_atom_site_label
_atom_site_type_symbol
_atom_type_description
_atom_site_fract_x
_atom_site_fract_y
_atom_site_fract_z
_atom_type_partial_charge
O1    O     O_R   0.505830 0.583360 0.413880 -0.538955
O2    O     O_R   0.175830 0.595460 0.585520 -0.544926
O3    O     O_R   0.005520 0.416640 0.586120 -0.540445
C1    C     C_R   0.344607 0.617399 0.614427 0.690055
O4    O     O_R   0.176120 0.594390 0.414490 -0.545361
O5    O     O_R   0.005810 0.415570 0.413870 -0.531999
C2    C     C_R   0.344925 0.616401 0.386082 0.688917
O6    O     O_R   0.505540 0.584430 0.586130 -0.538543
O7    O     O_3   0.339200 0.441330 0.500000 -0.359377
V1    V     V_3+5 0.064350 0.510880 0.500000 1.402415
O8    O     O_R   0.676100 0.404540 0.414480 -0.538897
C3    C     C_R   0.845254 0.381723 0.386480 0.693797
O9    O     O_R   0.675810 0.405610 0.585510 -0.539077
C4    C     C_R   0.845094 0.383403 0.613358 0.741810
V2    V     V_3+5 0.564340 0.489120 0.500000 1.422478
O10   O     O_3   0.839360 0.558670 0.500000 -0.377545
C5    C     C_2   0.723610 0.202535 0.781052 -0.144213
C6    C     C_2   0.885562 0.181625 0.822464 -0.315561
H1    H     H_    0.590903 0.167882 0.797313 0.137361
H2    H     H_    0.020042 0.215007 0.807780 0.132191
C7    C     C_2   0.710048 0.272405 0.714241 -0.134005
C8    C     C_2   0.862027 0.314417 0.679637 -0.311240
H3    H     H_    0.566827 0.288563 0.692275 0.137540
H4    H     H_    0.006483 0.297909 0.699140 0.131810
C9    C     C_R   0.714448 0.195198 0.230806 -0.039674
C10   C     C_R   0.877461 0.188495 0.181304 -0.076146
C11   C     C_R   0.029159 0.248660 0.199563 -0.156725
H5    H     H_    0.150058 0.251913 0.159050 0.126800
C12   C     C_R   0.019070 0.310396 0.266696 -0.066530
H6    H     H_    0.133703 0.359829 0.275176 0.130477
C13   C     C_R   0.858739 0.311754 0.319629 -0.117808
C14   C     C_R   0.710174 0.248924 0.303129 -0.062946
C15   C     C_3   0.503297 0.272218 0.289501 0.259906
C16   C     C_3   0.517731 0.225744 0.205459 0.185480
H7    H     H_    0.479410 0.348016 0.285627 0.117304
H8    H     H_    0.414853 0.168124 0.194966 0.061763
C17   C     C_R   0.507851 0.681661 0.740994 0.106682
C18   C     C_R   0.353004 0.682133 0.685840 -0.112346
C19   C     C_R   0.201316 0.743479 0.703385 -0.179410
H9    H     H_    0.078399 0.746338 0.662982 0.133170
C20   C     C_R   0.212690 0.806342 0.769995 -0.175093
H10   H     H_    0.097550 0.855439 0.778861 0.129333
C21   C     C_R   0.376439 0.810151 0.821064 -0.114673
C22   C     C_R   0.519593 0.744128 0.806640 0.103850
C23   C     C_3   0.729673 0.757177 0.794734 -0.411008
C24   C     C_3   0.717064 0.688790 0.723568 -0.400018
H11   H     H_    0.814511 0.731056 0.847657 0.177288
H12   H     H_    0.764868 0.828465 0.774920 0.167301
H13   H     H_    0.793926 0.622976 0.735505 0.170168
H14   H     H_    0.745732 0.720189 0.662507 0.168781
C25   C     C_R   0.507856 0.681811 0.260931 0.106782
C26   C     C_R   0.353190 0.681764 0.316127 -0.111244
C27   C     C_R   0.201998 0.743795 0.300478 -0.180294
H15   H     H_    0.079440 0.746364 0.341166 0.134864
C28   C     C_R   0.213457 0.807621 0.235473 -0.183358
H16   H     H_    0.098734 0.857110 0.227926 0.131462
C29   C     C_R   0.376769 0.811623 0.184273 -0.113921
C30   C     C_R   0.519614 0.745201 0.196846 0.105721
C31   C     C_3   0.729815 0.757944 0.208976 -0.409491
C32   C     C_3   0.717159 0.688503 0.278454 -0.400605
H17   H     H_    0.765331 0.828892 0.230503 0.165775
H18   H     H_    0.814498 0.732581 0.155394 0.178217
H19   H     H_    0.746164 0.718958 0.340239 0.169161
H20   H     H_    0.793776 0.622822 0.264875 0.170285
O11   O     O_R   0.229930 0.912420 0.917160 -0.536960
O12   O     O_R   0.559420 0.902500 0.088780 -0.537999
O13   O     O_R   0.729660 0.081330 0.089380 -0.546822
C33   C     C_R   0.390457 0.881052 0.117666 0.698140
O14   O     O_R   0.559650 0.901420 0.917750 -0.537460
O15   O     O_R   0.729880 0.080250 0.917130 -0.538962
C34   C     C_R   0.390620 0.879624 0.888704 0.703243
O16   O     O_R   0.229700 0.913500 0.089410 -0.536534
O17   O     O_3   0.396250 0.055540 0.003280 -0.386489
V3    V     V_3+5 0.671130 0.986010 0.003260 1.381164
O18   O     O_R   0.059600 0.091310 0.917720 -0.547176
C35   C     C_R   0.890981 0.112882 0.889342 0.733696
O19   O     O_R   0.059370 0.092380 0.088750 -0.549666
C36   C     C_R   0.889762 0.117706 0.114767 0.669781
V4    V     V_3+5 0.171120 0.007820 0.003230 1.367274
O20   O     O_3   0.896130 0.938240 0.003240 -0.364014
O21   O     O_3   0.367982 0.231495 0.344446 -0.574772
C37   C     C_3   0.413827 0.140953 0.370465 0.096031
H21   H     H_    0.530632 0.143869 0.417104 0.124849
H22   H     H_    0.458528 0.095688 0.318379 0.097019
C38   C     C_3   0.235709 0.098190 0.409590 -0.279635
H23   H     H_    0.192472 0.139808 0.464307 0.195766
H24   H     H_    0.115705 0.099071 0.364447 0.197660
C39   C     C_3   0.272595 0.998756 0.435833 -0.869735
H25   H     H_    0.311152 0.955436 0.381556 0.236713
H26   H     H_    0.140882 0.969988 0.464291 0.230784
H27   H     H_    0.390796 0.996191 0.481648 0.233091
O22   O     O_3   0.525550 0.296216 0.145137 -0.585868
C40   C     C_3   0.481249 0.263591 0.065420 0.104881
H28   H     H_    0.370145 0.208905 0.065573 0.137506
H29   H     H_    0.613588 0.237045 0.035511 0.140775
C41   C     C_3   0.404495 0.344422 0.015182 -0.322364
H30   H     H_    0.275691 0.373644 0.046257 0.195067
H31   H     H_    0.515627 0.399292 0.011803 0.204733
C42   C     C_3   0.349922 0.314430 0.928121 -0.841621
H32   H     H_    0.477773 0.287304 0.895387 0.236827
H33   H     H_    0.293312 0.374499 0.893639 0.228334
H34   H     H_    0.237502 0.260276 0.930115 0.235235

loop_
_geom_bond_atom_site_label_1
_geom_bond_atom_site_label_2
_ccdc_geom_bond_type
O12   C33   A    
C28   H16   S    
C40   H28   S    
O11   V4    S    
C11   C12   A    
O17   V3    S    
C27   C28   A    
C1    O6    A    
O21   C37   S    
C19   C20   A    
C38   H23   S    
C22   C23   S    
C24   H13   S    
C10   C11   A    
C10   C36   S    
C32   H19   S    
C17   C18   A    
C2    C26   S    
O16   V4    S    
O5    C3    A    
C18   C19   A    
C23   H12   S    
V2    O10   S    
O12   V3    S    
C41   C42   S    
C20   H10   S    
O14   C34   A    
C15   H7    S    
O8    V2    S    
C42   H32   S    
C41   H31   S    
O15   V3    S    
C6    C35   S    
O1    V2    S    
O7    V1    S    
C6    H2    S    
O19   C36   A    
C9    C16   S    
C9    C14   A    
O19   V4    S    
C31   C32   S    
C40   H29   S    
V3    O20   S    
O9    C4    A    
C20   C21   A    
O13   C36   A    
C15   C16   S    
C23   H11   S    
C31   H17   S    
C38   H24   S    
C25   C26   A    
C19   H9    S    
O4    C2    A    
C30   C31   S    
C23   C24   S    
C5    C7    S    
O2    C1    A    
O18   C35   A    
C12   H6    S    
C13   C14   A    
C39   H27   S    
C33   O16   A    
C41   H30   S    
C5    C6    D    
O17   V4    S    
O14   V3    S    
C25   C30   A    
O9    V2    S    
O3    C4    A    
C42   H33   S    
C39   H26   S    
O6    V2    S    
C37   H22   S    
C28   C29   A    
C3    C13   S    
O15   C35   A    
C8    H4    S    
C29   C33   S    
O2    V1    S    
C26   C27   A    
C38   C39   S    
C31   H18   S    
C21   C34   S    
O1    C2    A    
C1    C18   S    
O5    V1    S    
O8    C3    A    
C27   H15   S    
C40   C41   S    
C37   C38   S    
C24   H14   S    
C32   H20   S    
C14   C15   S    
C4    C8    S    
C17   C22   A    
C7    H3    S    
C9    C10   A    
O4    V1    S    
C12   C13   A    
O3    V1    S    
O11   C34   A    
C29   C30   A    
O18   V4    S    
C21   C22   A    
O22   C40   S    
C5    H1    S    
C16   H8    S    
O13   V3    S    
O7    V2    S    
C16   O22   S    
V4    O20   S    
C42   H34   S    
C39   H25   S    
C37   H21   S    
C11   H5    S    
V1    O10   S    
C25   C32   S    
C17   C24   S    
C7    C8    D    
C15   O21   S    
