data_mof_unit_17747.cif
_audit_creation_date              2012-12-11T15:29:44-0500
_audit_creation_method            fapswitch 2.2
_symmetry_space_group_name_H-M    P1
_symmetry_Int_Tables_number       1
_space_group_crystal_system       triclinic
_cell_length_a                    21.549379
_cell_length_b                    7.438179
_cell_length_c                    14.691849
_cell_angle_alpha                 90.000036
_cell_angle_beta                  74.189459
_cell_angle_gamma                 90.0
_cell_volume                      2265.83717421

loop_
_atom_site_label
_atom_site_type_symbol
_atom_type_description
_atom_site_fract_x
_atom_site_fract_y
_atom_site_fract_z
_atom_type_partial_charge
O1    O     O_R   0.464160 0.506670 0.130070 -0.546392
O2    O     O_R   0.535840 0.006670 0.869930 -0.546393
O3    O     O_R   0.589710 0.179080 0.006710 -0.514758
O4    O     O_R   0.410290 0.679080 0.993290 -0.514756
C1    C     C_R   0.614955 0.342318 0.006222 0.705552
C2    C     C_R   0.385044 0.842318 0.993778 0.705554
O5    O     O_R   0.467940 0.177220 0.138010 -0.525443
O6    O     O_R   0.532060 0.677220 0.861990 -0.525443
O7    O     O_R   0.413200 0.002810 0.002170 -0.524688
O8    O     O_R   0.586800 0.502810 0.997830 -0.524688
C3    C     C_R   0.455915 0.345592 0.173679 0.668705
C4    C     C_R   0.544085 0.845592 0.826321 0.668704
O9    O     O_3   0.482180 0.337850 0.955280 -0.344505
O10   O     O_3   0.517820 0.837850 0.044720 -0.344507
V1    V     V_3+5 0.503310 0.064600 0.008300 1.615021
V2    V     V_3+5 0.496690 0.564600 0.991700 1.615022
C5    C     C_R   0.572925 0.858047 0.724310 -0.033421
C6    C     C_R   0.427075 0.358047 0.275690 -0.033422
C7    C     C_R   0.930234 0.862491 0.276912 -0.031586
C8    C     C_R   0.069766 0.362491 0.723088 -0.031577
C9    C     C_R   0.565208 0.953625 0.570881 -0.143316
C10   C     C_R   0.434792 0.453622 0.429119 -0.143315
C11   C     C_R   0.535890 0.917333 0.665763 -0.136440
C12   C     C_R   0.464110 0.417331 0.334237 -0.136441
C13   C     C_R   0.639496 0.834043 0.687865 -0.208260
C14   C     C_R   0.360504 0.334045 0.312135 -0.208261
C15   C     C_R   0.670816 0.871665 0.591710 0.088766
C16   C     C_R   0.329184 0.371666 0.408290 0.088767
C17   C     C_R   0.632154 0.933758 0.533788 0.099516
C18   C     C_R   0.367846 0.433757 0.466212 0.099515
C19   C     C_R   0.738939 0.851965 0.551568 0.041891
C20   C     C_R   0.261061 0.351967 0.448431 0.041890
C21   C     C_R   0.767251 0.898834 0.454524 0.046329
C22   C     C_R   0.232749 0.398834 0.545476 0.046329
C23   C     C_R   0.726473 0.962480 0.400714 -0.044825
C24   C     C_R   0.273527 0.462478 0.599286 -0.044825
C25   C     C_R   0.660436 0.978094 0.439551 -0.135261
C26   C     C_R   0.339564 0.478091 0.560450 -0.135260
C27   C     C_R   0.779505 0.784060 0.604685 -0.143806
C28   C     C_R   0.220495 0.284065 0.395315 -0.143807
C29   C     C_R   0.844881 0.756892 0.563991 -0.162633
C30   C     C_R   0.155119 0.256897 0.436008 -0.162633
C31   C     C_R   0.872788 0.796973 0.469094 0.124115
C32   C     C_R   0.127212 0.296976 0.530906 0.124115
C33   C     C_R   0.835040 0.873859 0.413583 0.113993
C34   C     C_R   0.164959 0.373860 0.586416 0.113994
C35   C     C_R   0.938059 0.755522 0.428475 -0.159033
C36   C     C_R   0.061941 0.255524 0.571525 -0.159034
C37   C     C_R   0.966020 0.783226 0.332322 -0.135110
C38   C     C_R   0.033980 0.283226 0.667678 -0.135111
C39   C     C_R   0.866460 0.915253 0.317999 -0.157275
C40   C     C_R   0.133540 0.415253 0.682001 -0.157268
H1    H     H_    0.631148 0.026140 0.395130 0.165131
H2    H     H_    0.368852 0.526135 0.604871 0.165131
H3    H     H_    0.841995 0.978777 0.271733 0.138828
H4    H     H_    0.158005 0.478778 0.728267 0.138819
H5    H     H_    0.015445 0.741950 0.300946 0.155432
H6    H     H_    0.984555 0.241951 0.699053 0.155431
H7    H     H_    0.873679 0.700096 0.606984 0.141434
H8    H     H_    0.126320 0.200103 0.393014 0.141434
H9    H     H_    0.484519 0.939325 0.694124 0.137080
H10   H     H_    0.515481 0.439321 0.305876 0.137080
H11   H     H_    0.665394 0.793103 0.737599 0.110545
H12   H     H_    0.334605 0.293106 0.262400 0.110544
H13   H     H_    0.762140 0.745576 0.677835 0.149078
H14   H     H_    0.237859 0.245583 0.322163 0.149079
H15   H     H_    0.966824 0.695020 0.470442 0.128358
H16   H     H_    0.033176 0.195023 0.529557 0.128358
C41   C     C_3   0.213358 0.660597 0.981908 0.259512
C42   C     C_3   0.786642 0.160597 0.018092 0.259512
H17   H     H_    0.198787 0.607027 0.920194 0.088219
H18   H     H_    0.801213 0.107026 0.079805 0.088225
C43   C     C_3   0.288667 0.669127 0.950420 0.238819
C44   C     C_3   0.711333 0.169127 0.049579 0.238821
H19   H     H_    0.299198 0.697870 0.873907 0.155365
H20   H     H_    0.700802 0.197870 0.126093 0.155364
H21   H     H_    0.165995 0.869448 0.159178 0.208710
H22   H     H_    0.834005 0.369448 0.840821 0.208710
H23   H     H_    0.271383 0.758527 0.140434 0.207696
H24   H     H_    0.728617 0.258526 0.859566 0.207697
C45   C     C_3   0.200254 0.923471 0.094844 -0.332776
C46   C     C_3   0.799746 0.423471 0.905156 -0.332776
C47   C     C_3   0.229148 0.984289 0.921153 0.172259
C48   C     C_3   0.770852 0.484288 0.078847 0.172263
C49   C     C_3   0.187056 0.858170 0.000431 -0.181769
C50   C     C_3   0.812944 0.358169 0.999569 -0.181771
H25   H     H_    0.209494 0.120058 0.934815 0.178596
H26   H     H_    0.790506 0.620058 0.065185 0.178602
C51   C     C_3   0.314002 0.840824 0.992744 -0.183849
C52   C     C_3   0.685998 0.340824 0.007256 -0.183850
C53   C     C_3   0.270753 0.877418 0.095155 -0.370874
C54   C     C_3   0.729247 0.377417 0.904845 -0.370875
C55   C     C_3   0.300230 0.993592 0.929956 -0.332585
C56   C     C_3   0.699770 0.493592 0.070044 -0.332583
H27   H     H_    0.304902 0.114107 0.968271 0.284117
H28   H     H_    0.695099 0.614107 0.031728 0.284116
H29   H     H_    0.193860 0.070948 0.101978 0.237242
H30   H     H_    0.806140 0.570948 0.898022 0.237242
O11   O     O_R   0.913210 0.208550 0.002110 -0.516763
O12   O     O_R   0.086790 0.708550 0.997890 -0.516763
O13   O     O_R   0.032060 0.539960 0.861980 -0.528883
O14   O     O_R   0.967940 0.039960 0.138020 -0.528882
C57   C     C_R   0.043254 0.372719 0.825870 0.643792
C58   C     C_R   0.956746 0.872719 0.174130 0.643788
O15   O     O_R   0.910290 0.538020 0.993280 -0.542684
O16   O     O_R   0.089710 0.038020 0.006720 -0.542682
O17   O     O_R   0.964160 0.712340 0.130090 -0.529248
O18   O     O_R   0.035840 0.212340 0.869910 -0.529242
C59   C     C_R   0.884755 0.369577 0.996619 0.779084
C60   C     C_R   0.115245 0.869577 0.003381 0.779091
O19   O     O_3   0.017820 0.379210 0.044690 -0.365857
O20   O     O_3   0.982180 0.879210 0.955310 -0.365856
V3    V     V_3+5 0.996690 0.652500 0.991710 1.602489
V4    V     V_3+5 0.003310 0.152500 0.008290 1.602495
S1    S     S_3+6 0.177305 0.509338 0.080955 0.007126
O21   O     O_2   0.224051 0.451699 0.134307 -0.343309
O22   O     O_2   0.119765 0.590191 0.150744 -0.349776
O23   O     O_3   0.150248 0.327769 0.037657 -0.492638
H31   H     H_    0.138559 0.368574 0.980398 0.313359
S2    S     S_3+6 0.822695 0.009338 0.919044 0.007129
O24   O     O_2   0.775949 0.951699 0.865692 -0.343306
O25   O     O_2   0.880235 0.090191 0.849256 -0.349776
O26   O     O_3   0.849752 0.827769 0.962342 -0.492639
H32   H     H_    0.861441 0.868574 0.019600 0.313363
S3    S     S_3+6 0.330301 0.461298 0.926207 0.009106
O27   O     O_2   0.290614 0.351082 0.877663 -0.364936
O28   O     O_2   0.395020 0.487847 0.856035 -0.321222
O29   O     O_3   0.340190 0.361393 0.024537 -0.490262
H33   H     H_    0.338886 0.457006 0.071645 0.340565
S4    S     S_3+6 0.669699 0.961298 0.073792 0.009107
O30   O     O_2   0.709386 0.851082 0.122336 -0.364930
O31   O     O_2   0.604980 0.987845 0.143964 -0.321222
O32   O     O_3   0.659811 0.861392 0.975462 -0.490264
H34   H     H_    0.661113 0.957005 0.928355 0.340565
S5    S     S_3+6 0.224686 0.939617 0.801392 -0.016002
O33   O     O_2   0.285863 0.857992 0.740850 -0.327634
O34   O     O_2   0.169226 0.817823 0.800515 -0.371266
O35   O     O_3   0.213482 0.136480 0.752662 -0.464043
H35   H     H_    0.175534 0.189710 0.798512 0.312133
S6    S     S_3+6 0.775314 0.439615 0.198608 -0.016005
O36   O     O_2   0.714134 0.358001 0.259151 -0.327631
O37   O     O_2   0.830770 0.317812 0.199486 -0.371274
O38   O     O_3   0.786522 0.636477 0.247335 -0.464045
H36   H     H_    0.824478 0.689685 0.201491 0.312136
H37   H     H_    0.336739 0.998440 0.859990 0.212676
H38   H     H_    0.663261 0.498441 0.140010 0.212677
H39   H     H_    0.290387 0.991561 0.127762 0.175043
H40   H     H_    0.709613 0.491560 0.872237 0.175043
H41   H     H_    0.535649 0.001133 0.526783 0.132898
H42   H     H_    0.464351 0.501128 0.473217 0.132898
H43   H     H_    0.743692 0.998821 0.327243 0.184524
H44   H     H_    0.256309 0.498817 0.672757 0.184522

loop_
_geom_bond_atom_site_label_1
_geom_bond_atom_site_label_2
_ccdc_geom_bond_type
C56   H38   S    
S5    O35   S    
C47   H25   S    
C10   H42   S    
C3    C6    S    
O12   C60   A    
H22   C46   S    
C15   C17   A    
C21   C33   A    
O1    C3    A    
S6    O38   S    
O2    C4    A    
O29   H33   S    
O11   V4    S    
C53   H39   S    
C37   H5    S    
O26   H32   S    
C27   C29   A    
C8    C57   S    
O5    C3    A    
C43   H19   S    
C5    C11   A    
C44   H20   S    
O16   V4    S    
C6    C12   A    
O15   V3    S    
C23   C25   A    
S6    O37   D    
O14   C58   A    
C54   H40   S    
C33   C39   A    
O38   H36   S    
O11   C59   A    
C34   C40   A    
C46   C54   S    
C18   C26   A    
C13   H11   S    
O18   V4    S    
C41   H17   S    
C14   H12   S    
O23   H31   S    
O17   V3    S    
C8    C38   A    
C42   S2    S    
C16   C18   A    
S1    O22   D    
C6    C14   A    
C4    C5    S    
C42   C44   S    
S3    O29   S    
C19   C21   A    
C41   C43   S    
C57   O18   A    
C22   C34   A    
C9    H41   S    
C51   C53   S    
S5    O33   D    
C29   C31   A    
H23   C53   S    
C1    C52   S    
S2    O26   S    
C25   H1    S    
O6    V2    S    
C36   C38   A    
C55   H27   S    
C28   H14   S    
C27   H13   S    
C23   H43   S    
C2    O7    A    
C35   H15   S    
O20   V3    S    
S2    O25   D    
C52   C56   S    
C46   H30   S    
C15   C19   A    
C38   H6    S    
C16   C20   A    
C50   C59   S    
S6    O36   D    
C29   H7    S    
C35   C37   A    
C49   C60   S    
C30   H8    S    
C24   H44   S    
C32   C34   A    
C46   C50   S    
C9    C17   A    
C20   C22   A    
H24   C54   S    
S4    O31   D    
O14   V4    S    
C7    C58   S    
C7    C37   A    
C52   C54   S    
C26   H2    S    
H21   C45   S    
O6    C4    A    
S1    O23   S    
O1    V2    S    
C48   C56   S    
C36   H16   S    
C56   H28   S    
O2    V1    S    
C31   C33   A    
O4    C2    A    
C47   C49   S    
C9    C11   A    
O32   H34   S    
C10   C12   A    
C55   H37   S    
S4    O32   S    
O4    V2    S    
C24   C26   A    
C42   C50   S    
C41   C49   S    
S2    O24   D    
O16   C60   A    
S5    O34   D    
O15   C59   A    
C41   S1    S    
C12   H10   S    
C10   C18   A    
C47   S5    S    
O12   V3    S    
C48   H26   S    
C48   C50   S    
C28   C30   A    
O3    C1    A    
C13   C15   A    
C2    C51   S    
C14   C16   A    
C5    C13   A    
C44   C52   S    
C44   S4    S    
S4    O30   D    
O7    V1    S    
C30   C32   A    
C43   C51   S    
C1    O8    A    
C8    C40   A    
C32   C36   A    
O8    V2    S    
S1    O21   D    
S3    O27   D    
C45   H29   S    
C43   S3    S    
O5    V1    S    
C21   C23   A    
C22   C24   A    
C19   C27   A    
O19   V4    S    
C39   H3    S    
C20   C28   A    
C51   C55   S    
O13   V3    S    
O35   H35   S    
C45   C53   S    
C7    C39   A    
C11   H9    S    
C48   S6    S    
O13   C57   A    
O9    V2    S    
C17   C25   A    
S3    O28   D    
O10   V1    S    
O3    V1    S    
C42   H18   S    
C31   C35   A    
C58   O17   A    
C45   C49   S    
C40   H4    S    
C47   C55   S    
