data_mof_unit_57506.cif
_audit_creation_date              2012-12-11T16:10:27-0500
_audit_creation_method            fapswitch 2.2
_symmetry_space_group_name_H-M    P1
_symmetry_Int_Tables_number       1
_space_group_crystal_system       monoclinic
_cell_length_a                    26.282892
_cell_length_b                    7.206314
_cell_length_c                    23.67308
_cell_angle_alpha                 90.0
_cell_angle_beta                  101.255078
_cell_angle_gamma                 90.0
_cell_volume                      4397.51550322

loop_
_atom_site_label
_atom_site_type_symbol
_atom_type_description
_atom_site_fract_x
_atom_site_fract_y
_atom_site_fract_z
_atom_type_partial_charge
O1    O     O_R   0.442540 0.494320 0.443520 -0.532702
O2    O     O_R   0.557460 0.994320 0.556480 -0.532702
O3    O     O_R   0.546640 0.821130 0.446490 -0.541766
O4    O     O_R   0.453360 0.321130 0.553510 -0.541767
C1    C     C_R   0.562642 0.655345 0.434091 0.688465
C2    C     C_R   0.437358 0.155345 0.565909 0.688466
O5    O     O_R   0.442270 0.823840 0.436770 -0.532043
O6    O     O_R   0.557730 0.323840 0.563230 -0.532043
O7    O     O_R   0.452340 0.997060 0.546690 -0.538822
O8    O     O_R   0.547660 0.497060 0.453310 -0.538822
C3    C     C_R   0.423873 0.655333 0.421426 0.717894
C4    C     C_R   0.576127 0.155333 0.578574 0.717895
O9    O     O_3   0.503430 0.661750 0.536080 -0.373470
O10   O     O_3   0.496570 0.161750 0.463920 -0.373471
V1    V     V_3+5 0.499360 0.935480 0.493310 1.417076
V2    V     V_3+5 0.500640 0.435480 0.506690 1.417076
C5    C     C_3   0.749077 0.002727 0.691095 -0.444566
C6    C     C_3   0.250923 0.502727 0.308905 -0.444567
C7    C     C_3   0.729046 0.317851 0.726570 0.371825
C8    C     C_3   0.270954 0.817851 0.273430 0.371824
C9    C     C_3   0.780391 0.302284 0.773149 -0.342620
C10   C     C_3   0.219608 0.802284 0.226851 -0.342618
H1    H     H_    0.832311 0.038754 0.723782 0.175497
H2    H     H_    0.167689 0.538754 0.276218 0.175497
H3    H     H_    0.760408 0.066368 0.652528 0.161544
H4    H     H_    0.239592 0.566368 0.347471 0.161545
H5    H     H_    0.736971 0.387843 0.687009 0.038100
H6    H     H_    0.263029 0.887843 0.312991 0.038100
H7    H     H_    0.813321 0.353218 0.754122 0.093081
H8    H     H_    0.186679 0.853218 0.245878 0.093080
H9    H     H_    0.779265 0.393959 0.810533 0.215979
H10   H     H_    0.220734 0.893959 0.189467 0.215978
C11   C     C_1   0.877817 0.074087 0.876269 -0.121125
C12   C     C_1   0.122183 0.574087 0.123730 -0.121124
C13   C     C_3   0.706530 0.123600 0.710146 0.149877
C14   C     C_3   0.293470 0.623600 0.289854 0.149874
C15   C     C_3   0.797913 0.986407 0.739892 -0.449651
C16   C     C_3   0.202086 0.486407 0.260108 -0.449651
C17   C     C_3   0.790779 0.098793 0.793677 0.099846
C18   C     C_3   0.209221 0.598792 0.206323 0.099847
C19   C     C_3   0.741848 0.018866 0.814328 0.362546
C20   C     C_3   0.258151 0.518866 0.185672 0.362547
C21   C     C_3   0.692224 0.044389 0.766117 -0.318326
C22   C     C_3   0.307776 0.544388 0.233883 -0.318320
C23   C     C_1   0.838887 0.084807 0.838976 0.026460
C24   C     C_1   0.161112 0.584806 0.161024 0.026460
C25   C     C_1   0.659659 0.135545 0.663005 -0.023188
C26   C     C_1   0.340340 0.635545 0.336995 -0.023188
C27   C     C_1   0.621523 0.145472 0.624637 -0.171031
C28   C     C_1   0.378476 0.645472 0.375363 -0.171031
H11   H     H_    0.668615 0.920628 0.756333 0.088672
H12   H     H_    0.331385 0.420628 0.243667 0.088672
H13   H     H_    0.663800 0.135231 0.781818 0.246915
H14   H     H_    0.336200 0.635231 0.218182 0.246918
H15   H     H_    0.748553 0.868719 0.822527 0.061561
H16   H     H_    0.251447 0.368719 0.177474 0.061559
H17   H     H_    0.733727 0.862803 0.677788 0.163884
H18   H     H_    0.266273 0.362804 0.322212 0.163884
H19   H     H_    0.806014 0.838474 0.751434 0.153785
H20   H     H_    0.193986 0.338474 0.248566 0.153785
C29   C     C_R   0.119679 0.247809 0.879863 -0.137227
C30   C     C_R   0.880321 0.747809 0.120137 -0.137226
H21   H     H_    0.106071 0.376677 0.895187 0.128258
H22   H     H_    0.893930 0.876678 0.104814 0.128258
C31   C     C_R   0.156274 0.256334 0.844106 -0.122011
C32   C     C_R   0.843727 0.756334 0.155895 -0.122009
H23   H     H_    0.169579 0.391301 0.833044 0.137515
H24   H     H_    0.830421 0.891301 0.166956 0.137515
C33   C     C_R   0.175457 0.093258 0.823100 0.016094
C34   C     C_R   0.824543 0.593258 0.176900 0.016093
C35   C     C_R   0.156879 0.921361 0.838761 -0.121742
C36   C     C_R   0.843121 0.421361 0.161239 -0.121740
H25   H     H_    0.170683 0.792731 0.823501 0.139942
H26   H     H_    0.829316 0.292731 0.176498 0.139942
C37   C     C_R   0.120259 0.912749 0.874508 -0.138091
C38   C     C_R   0.879741 0.412749 0.125492 -0.138090
H27   H     H_    0.107142 0.777609 0.885665 0.125234
H28   H     H_    0.892857 0.277609 0.114334 0.125235
C39   C     C_R   0.101122 0.075865 0.895670 -0.047790
C40   C     C_R   0.898878 0.575866 0.104330 -0.047790
N1    N     N_R   0.233273 0.945090 0.764999 -0.275447
N2    N     N_R   0.766727 0.445090 0.235001 -0.275446
N3    N     N_R   0.268286 0.953347 0.731174 -0.279505
N4    N     N_R   0.731714 0.453347 0.268826 -0.279505
C41   C     C_R   0.286273 0.119336 0.716037 0.517562
C42   C     C_R   0.713727 0.619336 0.283963 0.517562
N5    N     N_R   0.267605 0.276684 0.736306 -0.275715
N6    N     N_R   0.732395 0.776684 0.263694 -0.275714
N7    N     N_R   0.232593 0.268427 0.770130 -0.277370
N8    N     N_R   0.767408 0.768427 0.229870 -0.277369
C43   C     C_R   0.214596 0.102443 0.785256 0.521805
C44   C     C_R   0.785404 0.602443 0.214744 0.521805
C45   C     C_R   0.343815 0.300523 0.662343 -0.128482
C46   C     C_R   0.656184 0.800523 0.337657 -0.128482
H29   H     H_    0.330103 0.429115 0.677729 0.139941
H30   H     H_    0.669897 0.929115 0.322271 0.139941
C47   C     C_R   0.380219 0.309227 0.626338 -0.154821
C48   C     C_R   0.619781 0.809227 0.373662 -0.154820
H31   H     H_    0.393309 0.444338 0.615113 0.122157
H32   H     H_    0.606691 0.944339 0.384887 0.122157
C49   C     C_R   0.399176 0.146172 0.604972 -0.048049
C50   C     C_R   0.600823 0.646172 0.395028 -0.048049
C51   C     C_R   0.380770 0.974173 0.620894 -0.155009
C52   C     C_R   0.619230 0.474173 0.379106 -0.155009
H33   H     H_    0.394332 0.845431 0.605432 0.122671
H34   H     H_    0.605668 0.345431 0.394568 0.122671
C53   C     C_R   0.344392 0.965533 0.656915 -0.131003
C54   C     C_R   0.655608 0.465533 0.343085 -0.131002
H35   H     H_    0.331154 0.830535 0.668040 0.135240
H36   H     H_    0.668846 0.330535 0.331960 0.135240
C55   C     C_R   0.325306 0.128572 0.678064 0.019718
C56   C     C_R   0.674694 0.628572 0.321936 0.019717
O11   O     O_R   0.952390 0.727960 0.046760 -0.536861
O12   O     O_R   0.047610 0.227960 0.953240 -0.536861
O13   O     O_R   0.057740 0.395520 0.063240 -0.535541
O14   O     O_R   0.942260 0.895520 0.936760 -0.535541
C57   C     C_R   0.076284 0.564157 0.078349 0.721696
C58   C     C_R   0.923716 0.064157 0.921651 0.721696
O15   O     O_R   0.953370 0.398410 0.053530 -0.541710
O16   O     O_R   0.046630 0.898410 0.946470 -0.541711
O17   O     O_R   0.942530 0.225390 0.943510 -0.529570
O18   O     O_R   0.057470 0.725390 0.056490 -0.529571
C59   C     C_R   0.937327 0.566834 0.065535 0.686540
C60   C     C_R   0.062672 0.066834 0.934465 0.686539
O19   O     O_3   0.996600 0.557860 0.963960 -0.376887
O20   O     O_3   0.003400 0.057860 0.036040 -0.376887
V3    V     V_3+5 0.000630 0.284060 0.006690 1.442763
V4    V     V_3+5 0.999370 0.784060 0.993310 1.442763
S1    S     S_3+6 0.731014 0.111595 0.881920 0.021381
O21   O     O_2   0.777007 0.073998 0.929181 -0.328411
O22   O     O_2   0.720936 0.316853 0.877550 -0.308192
O23   O     O_3   0.678794 0.005200 0.898224 -0.486409
H37   H     H_    0.674600 0.060250 0.935383 0.384309
S2    S     S_3+6 0.268986 0.611592 0.118080 0.021380
O24   O     O_2   0.222993 0.573984 0.070819 -0.328424
O25   O     O_2   0.279061 0.816852 0.122448 -0.308181
O26   O     O_3   0.321207 0.505204 0.101778 -0.486409
H38   H     H_    0.325390 0.560207 0.064608 0.384310
O27   O     O_3   0.690746 0.411599 0.749593 -0.536947
C61   C     C_3   0.697343 0.601572 0.748984 -0.203833
H39   H     H_    0.738366 0.644747 0.753074 0.095271
H40   H     H_    0.683272 0.652192 0.787345 0.213258
H41   H     H_    0.673354 0.657486 0.708744 0.141564
O28   O     O_3   0.309254 0.911598 0.250406 -0.536947
C62   C     C_3   0.302657 0.101572 0.251016 -0.203834
H42   H     H_    0.261634 0.144747 0.246926 0.095271
H43   H     H_    0.316729 0.152192 0.212655 0.213258
H44   H     H_    0.326646 0.157485 0.291256 0.141564

loop_
_geom_bond_atom_site_label_1
_geom_bond_atom_site_label_2
_ccdc_geom_bond_type
C32   H24   S    
O20   V3    S    
C11   C23   T    
C8    O28   S    
O1    C3    A    
C61   H41   S    
C36   C38   A    
O2    C4    A    
C13   C21   S    
S2    O26   S    
C52   H34   S    
C4    C27   S    
N2    C44   A    
O8    V2    S    
C17   C19   S    
O11   V4    S    
O5    C3    A    
C9    H9    S    
C10   H10   S    
C30   C40   A    
C7    C9    S    
C61   H40   S    
O17   V3    S    
C8    C10   S    
C42   N6    A    
C46   C48   A    
O13   V3    S    
C29   H21   S    
C2    C49   S    
C33   C35   A    
C19   H15   S    
C46   H30   S    
C30   H22   S    
C20   H16   S    
C6    H18   S    
C54   H36   S    
O23   H37   S    
O13   C57   A    
C9    C17   S    
O19   V4    S    
H2    C16   S    
C12   C24   T    
N7    C43   A    
C7    H5    S    
C19   C21   S    
C17   C23   S    
S1    O23   S    
O12   C60   A    
C22   H12   S    
C12   C57   S    
C26   C28   T    
C13   C25   S    
C11   C58   S    
C45   H29   S    
C16   C18   S    
O18   V4    S    
C53   H35   S    
C20   C22   S    
C2    O7    A    
C47   H31   S    
C21   H13   S    
C62   H42   S    
C41   N5    A    
C30   C32   A    
C61   H39   S    
C36   H26   S    
C35   H25   S    
O28   C62   S    
S2    O25   D    
O5    V1    S    
C8    H6    S    
C31   H23   S    
H1    C15   S    
C9    H7    S    
C54   C56   A    
C58   O17   A    
N1    C43   A    
O4    V2    S    
C42   C56   S    
C57   O18   A    
C48   C50   A    
C19   S1    S    
N8    C44   A    
O11   C59   A    
O6    C4    A    
C10   C18   S    
C6    H4    S    
C51   H33   S    
O1    V2    S    
C5    C15   S    
C50   C52   A    
O2    V1    S    
C37   H27   S    
C15   H19   S    
C45   C55   A    
C16   H20   S    
C7    O27   S    
N3    C41   A    
N6    N8    A    
C48   H32   S    
N5    N7    A    
C14   C22   S    
O4    C2    A    
C18   C24   S    
C45   C47   A    
C52   C54   A    
C62   H44   S    
O3    V1    S    
S1    O21   D    
C39   C60   S    
C1    C50   S    
O20   V4    S    
C10   H8    S    
C53   C55   A    
C34   C44   S    
C38   C40   A    
C38   H28   S    
C18   C20   S    
O3    C1    A    
N1    N3    A    
C51   C53   A    
O27   C61   S    
O16   V4    S    
S2    O24   D    
O15   C59   A    
C25   C27   T    
O26   H38   S    
N2    N4    A    
C49   C51   A    
C20   S2    S    
C5    H3    S    
O7    V1    S    
C1    O8    A    
C15   C17   S    
C3    C28   S    
C7    C13   S    
C35   C37   A    
O12   V3    S    
C21   H11   S    
C32   C34   A    
C6    C14   S    
C29   C39   A    
C31   C33   A    
C62   H43   S    
C46   C56   A    
O14   C58   A    
C14   C26   S    
C29   C31   A    
C6    C16   S    
C8    C14   S    
C22   H14   S    
O6    V2    S    
O14   V4    S    
O9    V2    S    
O19   V3    S    
O10   V1    S    
N4    C42   A    
C34   C36   A    
C5    C13   S    
C33   C43   S    
C37   C39   A    
C47   C49   A    
O16   C60   A    
C41   C55   S    
C5    H17   S    
S1    O22   D    
C40   C59   S    
O15   V3    S    
