data_mof_unit_41953.cif
_audit_creation_date              2012-12-11T14:50:29-0500
_audit_creation_method            fapswitch 2.2
_symmetry_space_group_name_H-M    P1
_symmetry_Int_Tables_number       1
_space_group_crystal_system       triclinic
_cell_length_a                    11.205893
_cell_length_b                    11.325639
_cell_length_c                    18.772863
_cell_angle_alpha                 89.646659
_cell_angle_beta                  90.49764
_cell_angle_gamma                 60.092934
_cell_volume                      2065.03795042

loop_
_atom_site_label
_atom_site_type_symbol
_atom_type_description
_atom_site_fract_x
_atom_site_fract_y
_atom_site_fract_z
_atom_type_partial_charge
C1    C     C_R   0.238938 0.646703 0.609462 0.603872
C2    C     C_3   0.643528 0.610261 0.803445 0.373012
C3    C     C_3   0.718084 0.698621 0.807263 -0.051164
C4    C     C_3   0.679089 0.661077 0.672073 0.029366
C5    C     C_3   0.836486 0.581614 0.693702 0.119259
C6    C     C_3   0.587612 0.635142 0.726410 0.174964
C7    C     C_R   0.767929 0.157096 0.715913 0.156999
C8    C     C_R   0.774729 0.090731 0.778771 0.194945
C9    C     C_R   0.677821 0.161920 0.829423 0.057442
C10   C     C_R   0.547548 0.260435 0.806250 -0.174689
C11   C     C_R   0.523520 0.285837 0.733674 -0.122692
C12   C     C_R   0.656442 0.623522 0.598737 0.606217
C13   C     C_R   0.634202 0.240684 0.686902 0.054810
C14   C     C_R   0.184184 0.567539 0.722292 0.175681
C15   C     C_R   0.182820 0.565742 0.796634 0.162675
C16   C     C_R   0.180848 0.673073 0.834951 0.004171
C17   C     C_R   0.209321 0.766848 0.799208 0.230740
C18   C     C_R   0.208245 0.773194 0.724186 0.162810
C19   C     C_R   0.197637 0.669077 0.684967 0.024798
C20   C     C_R   0.772018 0.549427 0.280886 0.146336
C21   C     C_R   0.748094 0.552012 0.207926 0.131183
C22   C     C_R   0.665173 0.678503 0.173488 0.057939
C23   C     C_R   0.601201 0.279026 0.610589 0.585285
C24   C     C_R   0.583583 0.794134 0.215872 0.257150
C25   C     C_R   0.588574 0.782460 0.290070 -0.090211
C26   C     C_R   0.675761 0.658066 0.322910 -0.037133
C27   C     C_R   0.524160 0.198525 0.281306 0.135572
C28   C     C_R   0.535168 0.209972 0.208208 0.162084
C29   C     C_R   0.667008 0.142463 0.179451 -0.014732
C30   C     C_R   0.786403 0.085503 0.225319 0.090833
C31   C     C_R   0.770911 0.102576 0.298772 0.158737
C32   C     C_R   0.639620 0.167310 0.326105 -0.007779
C33   C     C_R   0.246084 0.718396 0.278442 0.257885
C34   C     C_R   0.226331 0.649603 0.400364 0.565517
C35   C     C_R   0.243843 0.694922 0.206666 0.227908
C36   C     C_R   0.147213 0.662567 0.181686 -0.006399
C37   C     C_R   0.071284 0.628943 0.228798 -0.209487
C38   C     C_R   0.089899 0.632372 0.301634 -0.205304
C39   C     C_R   0.180606 0.672919 0.326733 0.032413
C40   C     C_R   0.698191 0.105095 0.899218 0.561652
C41   C     C_R   0.751545 0.710832 0.883167 0.559263
C42   C     C_R   0.117157 0.707782 0.906221 0.611808
C43   C     C_R   0.679388 0.100206 0.105342 0.546864
C44   C     C_R   0.699407 0.693075 0.099274 0.568532
C45   C     C_R   0.646154 0.624153 0.394244 0.544197
C46   C     C_R   0.091841 0.708588 0.111646 0.578670
C47   C     C_R   0.615136 0.228750 0.396210 0.584748
C48   C     C_3   0.633352 0.842739 0.763609 -0.010215
C49   C     C_3   0.634984 0.815686 0.678768 0.273769
C50   C     C_3   0.857679 0.620745 0.768535 -0.204085
Cr1   Cr    Cr6+3 0.392930 0.397900 0.502230 1.072903
Cr2   Cr    Cr6+3 0.398240 0.708600 0.501260 1.117805
Cr3   Cr    Cr6+3 0.708800 0.393470 0.496460 1.079981
Cr4   Cr    Cr6+3 0.937620 0.938540 0.007640 1.103567
Cr5   Cr    Cr6+3 0.625150 0.937450 0.994520 1.084958
Cr6   Cr    Cr6+3 0.937990 0.625080 0.001190 1.067934
H1    H     H_    0.682819 0.903720 0.773652 0.200933
H2    H     H_    0.933010 0.528576 0.798210 0.286141
H3    H     H_    0.464200 0.306664 0.843378 0.174368
H4    H     H_    0.421940 0.351288 0.714675 0.224417
H5    H     H_    0.520321 0.868907 0.322015 0.189881
H6    H     H_    0.993031 0.607165 0.209399 0.158113
H7    H     H_    0.035102 0.603828 0.338428 0.132086
H8    H     H_    0.904833 0.686063 0.764557 0.155034
H9    H     H_    0.898809 0.605023 0.657208 0.188134
H10   H     H_    0.487703 0.728643 0.728087 0.202005
O1    O     O_R   0.507430 0.255570 0.581420 -0.503670
O2    O     O_R   0.524460 0.695920 0.424060 -0.468618
O3    O     O_R   0.736530 0.504260 0.414810 -0.526747
O4    O     O_R   0.691460 0.277160 0.422180 -0.468677
O5    O     O_3   0.499990 0.499990 0.499980 -0.302021
O6    O     O_R   0.089490 0.825610 0.930610 -0.407525
O7    O     O_R   0.818370 0.054540 0.929880 -0.453071
O8    O     O_R   0.605870 0.077310 0.915530 -0.543231
O9    O     O_R   0.646440 0.806700 0.917570 -0.529880
O10   O     O_R   0.837200 0.593290 0.915250 -0.441528
O11   O     O_R   0.065330 0.635370 0.931590 -0.465394
O12   O     O_R   0.280190 0.527390 0.578910 -0.443386
O13   O     O_R   0.068300 0.828790 0.091860 -0.467454
O14   O     O_R   0.798730 0.057480 0.079370 -0.500300
O15   O     O_R   0.584680 0.080480 0.076790 -0.478156
O16   O     O_R   0.626790 0.809640 0.067050 -0.426837
O17   O     O_R   0.816010 0.596460 0.076500 -0.539262
O18   O     O_R   0.045680 0.638310 0.081070 -0.533866
O19   O     O_3   0.833590 0.833690 0.001120 -0.312527
O20   O     O_R   0.260310 0.739740 0.584580 -0.497310
O21   O     O_R   0.532250 0.695150 0.573830 -0.429038
O22   O     O_R   0.744930 0.503430 0.576380 -0.446391
O23   O     O_R   0.699250 0.276390 0.571950 -0.492876
O24   O     O_R   0.499020 0.256400 0.419850 -0.533273
O25   O     O_R   0.272400 0.528160 0.429140 -0.545126
O26   O     O_R   0.251910 0.740570 0.423020 -0.428744
Cl1   Cl    Cl    0.527415 0.529971 0.697644 -0.643441
Cl2   Cl    Cl    0.923448 0.404871 0.683141 -0.506516
N1    N     N_2   0.876353 0.184337 0.703304 -0.429335
H11   H     H_    0.900667 0.187735 0.651017 0.286656
C51   C     C_3   0.982174 0.145267 0.759515 -0.134989
H12   H     H_    0.053853 0.183840 0.750617 0.213239
H13   H     H_    0.937907 0.178049 0.812971 0.240079
H14   H     H_    0.043261 0.035366 0.762507 0.211962
Cl3   Cl    Cl    0.899529 0.920541 0.790201 -0.743534
Cl4   Cl    Cl    0.176888 0.434048 0.677529 -0.540186
Cl5   Cl    Cl    0.191893 0.422234 0.840978 -0.614627
Cl6   Cl    Cl    0.241935 0.882206 0.848682 -0.662654
N2    N     N_2   0.491450 0.920963 0.788918 -0.518668
H15   H     H_    0.469053 0.891387 0.835883 0.325160
C52   C     C_3   0.415061 0.067595 0.781288 -0.190467
H16   H     H_    0.305114 0.101209 0.770726 0.215688
H17   H     H_    0.452527 0.102783 0.736538 0.202349
H18   H     H_    0.420376 0.115358 0.831404 0.196229
N3    N     N_2   0.239281 0.871050 0.690913 -0.451087
H19   H     H_    0.287856 0.908759 0.721900 0.318359
C53   C     C_3   0.149422 0.972241 0.637859 -0.207887
H20   H     H_    0.130400 0.074435 0.651761 0.151324
H21   H     H_    0.054068 0.967152 0.628551 0.148118
H22   H     H_    0.203602 0.959407 0.586873 0.223708
N4    N     N_2   0.901994 0.449250 0.310103 -0.530002
H23   H     H_    0.937383 0.478122 0.353689 0.250019
C54   C     C_3   0.933782 0.309276 0.312937 -0.217807
H24   H     H_    0.948605 0.272972 0.369144 0.200522
H25   H     H_    0.031570 0.247193 0.284741 0.141132
H26   H     H_    0.850467 0.296398 0.288700 0.199473
N5    N     N_2   0.809482 0.427174 0.170060 -0.522002
H27   H     H_    0.906042 0.395354 0.149974 0.272212
C55   C     C_3   0.716580 0.402450 0.126671 -0.274043
H28   H     H_    0.773597 0.301042 0.101885 0.145448
H29   H     H_    0.669125 0.478404 0.082841 0.183004
H30   H     H_    0.633811 0.406374 0.160351 0.163970
Cl7   Cl    Cl    0.460834 0.951573 0.179597 -0.545330
N6    N     N_2   0.409212 0.190286 0.307383 -0.470450
H31   H     H_    0.431528 0.116514 0.345884 0.273415
C56   C     C_3   0.284328 0.317317 0.318971 -0.233244
H32   H     H_    0.254178 0.325864 0.375692 0.168858
H33   H     H_    0.199066 0.322283 0.286518 0.142329
H34   H     H_    0.300273 0.402827 0.304175 0.181619
N7    N     N_2   0.420305 0.309280 0.166727 -0.511242
H35   H     H_    0.445291 0.356318 0.127056 0.244674
C57   C     C_3   0.311550 0.282594 0.145311 -0.217466
H36   H     H_    0.296705 0.217929 0.184124 0.224669
H37   H     H_    0.333219 0.233652 0.092410 0.193518
H38   H     H_    0.213344 0.380488 0.140787 0.134644
N8    N     N_2   0.920444 0.999259 0.198745 -0.451300
H39   H     H_    0.967987 0.906255 0.224263 0.284887
C58   C     C_3   0.009416 0.057545 0.194389 -0.215884
H40   H     H_    0.055830 0.053170 0.247067 0.214999
H41   H     H_    0.953007 0.163193 0.174211 0.133593
H42   H     H_    0.095087 0.998462 0.157606 0.231291
Cl8   Cl    Cl    0.914610 0.024676 0.357894 -0.642605
Cl9   Cl    Cl    0.299596 0.834548 0.302448 -0.541050
Cl10  Cl    Cl    0.467882 0.928805 0.636977 -0.636413
Cl11  Cl    Cl    0.349890 0.720870 0.146789 -0.570503
N9    N     N_2   0.737305 0.835649 0.640069 -0.534464
H43   H     H_    0.773438 0.778026 0.594618 0.234344
C59   C     C_3   0.704051 0.970443 0.621179 -0.218811
H44   H     H_    0.654279 0.998041 0.567481 0.201505
H45   H     H_    0.799994 0.976049 0.619683 0.152484
H46   H     H_    0.631314 0.038294 0.660404 0.188346
Cl12  Cl    Cl    0.764084 0.432867 0.820235 -0.554463
N10   N     N_2   0.530274 0.650710 0.854602 -0.471980
H47   H     H_    0.529050 0.703489 0.898536 0.299503
C60   C     C_3   0.490289 0.553083 0.877893 -0.214312
H48   H     H_    0.402718 0.602759 0.914908 0.151179
H49   H     H_    0.573738 0.467953 0.909087 0.179730
H50   H     H_    0.458580 0.515304 0.831898 0.202956

loop_
_geom_bond_atom_site_label_1
_geom_bond_atom_site_label_2
_ccdc_geom_bond_type
Cr5   O19   S    
Cr6   O10   S    
N1    H11   S    
C50   H8    S    
C35   C36   A    
C44   O17   A    
Cr3   O3    S    
C51   H14   S    
C5    Cl2   S    
C7    C8    A    
N2    C52   S    
C28   C29   A    
C33   C39   A    
C35   Cl11  S    
C49   Cl10  S    
C36   C37   A    
C17   Cl6   S    
C38   H7    S    
C44   O16   A    
N4    C54   S    
Cr1   O24   S    
C38   C39   A    
Cr6   O18   S    
C14   Cl4   S    
C15   C16   A    
Cr2   O21   S    
C51   H12   S    
C3    C48   S    
C40   O7    A    
C13   C23   S    
C18   C19   A    
C23   O1    A    
C34   O25   A    
C26   C45   S    
Cr1   O25   S    
C53   H20   S    
Cr5   O8    S    
C24   Cl7   S    
C22   C44   S    
N10   H47   S    
C32   C47   S    
C16   C17   A    
C55   H30   S    
C52   H16   S    
C23   O23   A    
C36   C46   S    
Cr5   O15   S    
C29   C30   A    
C56   H32   S    
C8    Cl3   S    
C59   H45   S    
Cr2   O2    S    
C53   H22   S    
Cr5   O9    S    
C21   C22   A    
C29   C43   S    
C1    O12   A    
C52   H17   S    
C2    C6    S    
Cr1   O5    S    
C58   H42   S    
Cr3   O4    S    
C20   N4    S    
C60   H49   S    
C3    C50   S    
C60   H48   S    
Cr4   O14   S    
C54   H25   S    
C1    C19   S    
N8    H39   S    
C12   O22   A    
C45   O3    A    
C34   C39   S    
C50   H2    S    
N5    H27   S    
C24   C25   A    
C59   H46   S    
C5    H9    S    
C51   H13   S    
C8    C9    A    
C25   H5    S    
C43   O14   A    
C9    C40   S    
Cr6   O11   S    
C21   N5    S    
N6    C56   S    
C47   O4    A    
C37   C38   A    
C41   O9    A    
Cr4   O7    S    
C48   N2    S    
C7    C13   A    
C30   C31   A    
C2    Cl12  S    
C6    Cl1   S    
C20   C21   A    
C45   O2    A    
C42   O6    A    
C17   C18   A    
N3    C53   S    
Cr1   O1    S    
C18   N3    S    
Cr5   O16   S    
C59   H44   S    
C57   H37   S    
C46   O18   A    
C31   Cl8   S    
C58   H41   S    
C48   C49   S    
N9    C59   S    
C10   C11   A    
Cr3   O23   S    
C55   H28   S    
C43   O15   A    
C52   H18   S    
N8    C58   S    
C5    C50   S    
Cr2   O26   S    
C4    C6    S    
C4    C12   S    
C2    N10   S    
C11   H4    S    
Cr3   O5    S    
C16   C42   S    
C60   H50   S    
Cr6   O17   S    
Cr4   O13   S    
C9    C10   A    
C54   H26   S    
C1    O20   A    
C3    C41   S    
N3    H19   S    
C27   C32   A    
C28   N7    S    
C14   C19   A    
C31   C32   A    
N7    H35   S    
C57   H38   S    
Cr4   O19   S    
C54   H24   S    
N1    C51   S    
C49   N9    S    
C7    N1    S    
N2    H15   S    
C30   N8    S    
C4    C49   S    
C58   H40   S    
Cr2   O20   S    
N6    H31   S    
C25   C26   A    
Cr1   O12   S    
C12   O21   A    
Cr2   O5    S    
C33   Cl9   S    
N4    H23   S    
C41   O10   A    
C11   C13   A    
Cr6   O19   S    
C46   O13   A    
C20   C26   A    
C56   H34   S    
C4    C5    S    
C33   C35   A    
C40   O8    A    
C2    C3    S    
Cr3   O22   S    
C22   C24   A    
C34   O26   A    
C47   O24   A    
N5    C55   S    
C57   H36   S    
C6    H10   S    
C48   H1    S    
Cr4   O6    S    
N9    H43   S    
C42   O11   A    
C56   H33   S    
N7    C57   S    
C27   C28   A    
C55   H29   S    
C27   N6    S    
C37   H6    S    
C14   C15   A    
C15   Cl5   S    
N10   C60   S    
C10   H3    S    
C53   H21   S    
