data_mof_unit_47679.cif
_audit_creation_date              2012-12-11T14:49:21-0500
_audit_creation_method            fapswitch 2.2
_symmetry_space_group_name_H-M    P1
_symmetry_Int_Tables_number       1
_space_group_crystal_system       triclinic
_cell_length_a                    16.706241
_cell_length_b                    16.769473
_cell_length_c                    19.829464
_cell_angle_alpha                 116.665464
_cell_angle_beta                  63.25893
_cell_angle_gamma                 100.183618
_cell_volume                      4431.31532155

loop_
_atom_site_label
_atom_site_type_symbol
_atom_type_description
_atom_site_fract_x
_atom_site_fract_y
_atom_site_fract_z
_atom_type_partial_charge
C1    C     C_R   0.035385 0.759972 0.015824 -0.204899
C2    C     C_R   0.234537 0.582434 0.837841 0.161632
C3    C     C_R   0.194648 0.432269 0.031342 -0.102693
C4    C     C_R   0.764157 0.420268 0.163708 0.535188
C5    C     C_R   0.986156 0.341506 0.762442 0.174515
C6    C     C_R   0.275017 0.441559 0.969492 0.077734
C7    C     C_R   0.941423 0.263959 0.762669 -0.127610
C8    C     C_R   0.234524 0.557438 0.761467 0.070679
C9    C     C_R   0.989353 0.229922 0.040530 -0.114467
C10   C     C_R   0.032086 0.145786 0.630253 0.456963
C11   C     C_R   0.947471 0.186755 0.689928 -0.047010
C12   C     C_R   0.764017 0.446467 0.240175 -0.040378
C13   C     C_R   0.869722 0.158427 0.678018 -0.330820
C14   C     C_R   0.875064 0.088949 0.603998 0.145407
C15   C     C_R   0.959485 0.048523 0.541861 0.018824
C16   C     C_R   0.815136 0.506113 0.911630 -0.235339
C17   C     C_R   0.038195 0.077866 0.554883 0.021905
C18   C     C_R   0.797428 0.059679 0.591280 -0.176111
C19   C     C_R   0.802777 0.990201 0.516795 -0.164400
C20   C     C_R   0.886321 0.949479 0.453637 -0.034456
C21   C     C_R   0.965133 0.977911 0.467229 -0.020657
C22   C     C_R   0.049520 0.934822 0.407013 -0.017521
C23   C     C_R   0.736928 0.463250 0.939747 -0.121347
C24   C     C_R   0.127490 0.967917 0.418983 -0.208891
C25   C     C_R   0.121764 0.038447 0.492497 -0.118546
C26   C     C_R   0.893492 0.878846 0.378025 0.380174
C27   C     C_R   0.976228 0.834144 0.322604 -0.147226
C28   C     C_R   0.964655 0.672686 0.246934 -0.082817
C29   C     C_R   0.053715 0.859358 0.336074 0.380358
C30   C     C_R   0.387643 0.509182 0.672604 -0.253846
C31   C     C_R   0.312702 0.551665 0.688118 0.014815
C32   C     C_R   0.310937 0.577414 0.630461 0.107994
C33   C     C_R   0.385595 0.554934 0.553620 0.071070
C34   C     C_R   0.982821 0.757087 0.249708 0.238805
C35   C     C_R   0.461317 0.510718 0.537954 0.030683
C36   C     C_R   0.461779 0.488176 0.597964 0.136847
C37   C     C_R   0.385196 0.572793 0.491098 -0.193410
C38   C     C_R   0.458837 0.548393 0.414813 -0.180339
C39   C     C_R   0.534035 0.506855 0.400409 0.159482
C40   C     C_R   0.744767 0.438926 0.994804 0.556142
C41   C     C_R   0.536295 0.487986 0.461836 0.007516
C42   C     C_R   0.613406 0.446622 0.447200 -0.050819
C43   C     C_R   0.610322 0.421300 0.506904 -0.174113
C44   C     C_R   0.534716 0.441746 0.581586 -0.187159
C45   C     C_R   0.260509 0.512062 0.957602 -0.158709
C46   C     C_R   0.607848 0.485418 0.325584 -0.351009
C47   C     C_R   0.685601 0.450097 0.312768 -0.012327
C48   C     C_R   0.690636 0.431248 0.372564 0.520915
C49   C     C_R   0.669948 0.435711 0.904624 0.149877
C50   C     C_R   0.361277 0.391407 0.927967 -0.099024
C51   C     C_R   0.459020 0.312335 0.941006 0.188895
C52   C     C_R   0.035415 0.751439 0.170778 -0.072442
C53   C     C_R   0.372624 0.334473 0.957648 -0.253333
C54   C     C_R   0.437384 0.412229 0.868428 0.443706
C55   C     C_R   0.520861 0.411071 0.868727 0.007817
C56   C     C_R   0.922887 0.261604 0.836636 0.464955
C57   C     C_R   0.531564 0.360572 0.905718 -0.047612
C58   C     C_R   0.610963 0.367359 0.915101 -0.263633
C59   C     C_R   0.661916 0.481423 0.863723 -0.290297
C60   C     C_R   0.590814 0.465848 0.841018 0.221224
C61   C     C_R   0.775689 0.153565 0.149307 0.139203
C62   C     C_R   0.955281 0.864857 0.002850 0.120587
C63   C     C_R   0.911194 0.959247 0.960620 -0.197656
C64   C     C_R   0.839901 0.493879 0.240732 -0.132058
C65   C     C_R   0.955092 0.882493 0.940094 -0.179508
C66   C     C_R   0.918230 0.928771 0.085769 -0.226644
C67   C     C_R   0.160632 0.506687 0.759599 -0.216273
C68   C     C_R   0.874016 0.005972 0.106992 0.157878
C69   C     C_R   0.868080 0.019882 0.044099 0.178595
C70   C     C_R   0.817430 0.093051 0.066135 -0.386641
C71   C     C_R   0.783085 0.141935 0.211785 0.553444
C72   C     C_R   0.832224 0.067509 0.190438 -0.434182
C73   C     C_R   0.955925 0.693028 0.941438 0.204676
C74   C     C_R   0.983245 0.776157 0.984979 0.011165
C75   C     C_3   0.299350 0.729722 0.855827 -0.907654
C76   C     C_3   0.938303 0.358048 0.668089 -0.881961
C77   C     C_3   0.243498 0.720491 0.679447 -0.928706
C78   C     C_R   0.024167 0.312042 0.075931 0.503228
C79   C     C_3   0.397931 0.206561 0.008557 -0.889634
C80   C     C_3   0.646350 0.487007 0.715596 -0.857777
C81   C     C_3   0.825771 0.704880 0.922003 -0.930725
C82   C     C_R   0.952574 0.243405 0.995970 -0.132729
H1    H     H_    0.074354 0.808703 0.045401 0.120810
H2    H     H_    0.386610 0.488995 0.717870 0.172205
H3    H     H_    0.327844 0.604594 0.500280 0.161756
H4    H     H_    0.457304 0.562688 0.367228 0.135108
H5    H     H_    0.606870 0.501632 0.278726 0.164002
H6    H     H_    0.838833 0.517137 0.856419 0.151032
H7    H     H_    0.664832 0.384362 0.496389 0.146818
H8    H     H_    0.532866 0.420813 0.626567 0.165050
H9    H     H_    0.622775 0.324995 0.937649 0.172078
H10   H     H_    0.708639 0.532331 0.852044 0.136266
H11   H     H_    0.314158 0.310534 0.996086 0.157440
H12   H     H_    0.140920 0.476895 0.708793 0.126079
H13   H     H_    0.809100 0.102982 0.019366 0.175298
H14   H     H_    0.931829 0.654090 0.298552 0.098747
H15   H     H_    0.908644 0.969810 0.911564 0.137763
H16   H     H_    0.836775 0.057063 0.238747 0.148581
H17   H     H_    0.985012 0.834697 0.875655 0.145703
H18   H     H_    0.918842 0.915622 0.134338 0.134564
H19   H     H_    0.069526 0.805263 0.154322 0.101512
H20   H     H_    0.863761 0.518342 0.288780 0.154713
H21   H     H_    0.308248 0.540199 0.916510 0.153382
H22   H     H_    0.847538 0.159322 0.826499 0.319255
H23   H     H_    0.912582 0.196418 0.966696 0.194406
H24   H     H_    0.045676 0.282396 0.149494 0.320065
H25   H     H_    0.259537 0.672257 0.938596 0.169668
H26   H     H_    0.333592 0.781325 0.892238 0.249594
H27   H     H_    0.234858 0.759027 0.872329 0.243702
H28   H     H_    0.344030 0.710624 0.789028 0.265686
H29   H     H_    0.994934 0.454384 0.743351 0.146064
H30   H     H_    0.945499 0.404747 0.640069 0.235395
H31   H     H_    0.866594 0.358724 0.710834 0.249429
H32   H     H_    0.960392 0.290770 0.616373 0.266923
H33   H     H_    0.093842 0.200029 0.703537 0.314445
H34   H     H_    0.182919 0.384332 0.056510 0.151213
H35   H     H_    0.678694 0.326995 0.170918 0.316931
H36   H     H_    0.784209 0.902801 0.377916 0.312901
H37   H     H_    0.162236 0.803068 0.309775 0.317095
H38   H     H_    0.173540 0.606594 0.682792 0.171162
H39   H     H_    0.242200 0.748657 0.742351 0.255149
H40   H     H_    0.186391 0.750569 0.683638 0.250759
H41   H     H_    0.306770 0.738465 0.636847 0.261316
H42   H     H_    0.777927 0.422310 0.408570 0.303496
H43   H     H_    0.529696 0.210367 0.925661 0.172519
H44   H     H_    0.422125 0.162562 0.024376 0.253390
H45   H     H_    0.805783 0.192083 0.725775 0.163492
H46   H     H_    0.364907 0.164772 0.966800 0.243720
H47   H     H_    0.349264 0.256226 0.067612 0.255975
H48   H     H_    0.585869 0.584183 0.835375 0.168853
H49   H     H_    0.633695 0.526408 0.688723 0.244789
H50   H     H_    0.637773 0.415188 0.680144 0.253003
H51   H     H_    0.716511 0.497249 0.709332 0.226421
H52   H     H_    0.377148 0.409269 0.804093 0.306260
H53   H     H_    0.751913 0.186154 0.329552 0.315373
H54   H     H_    0.623936 0.417672 0.057531 0.300957
H55   H     H_    0.936665 0.615287 0.834676 0.145885
H56   H     H_    0.732427 0.090169 0.639225 0.126851
H57   H     H_    0.801862 0.683110 0.872580 0.242337
H58   H     H_    0.817535 0.778401 0.955736 0.269653
H59   H     H_    0.782954 0.676184 0.967022 0.261528
H60   H     H_    0.740670 0.967836 0.510556 0.139177
H61   H     H_    0.193552 0.940142 0.371939 0.150992
H62   H     H_    0.183158 0.061394 0.500291 0.183613
N1    N     N_R   0.036080 0.671900 0.995420 -0.052214
N2    N     N_R   0.867430 0.509300 0.948100 -0.075064
N3    N     N_R   0.003360 0.617250 0.167070 -0.052611
N4    N     N_R   0.825450 0.461270 0.995400 -0.074637
N5    N     N_R   0.045340 0.665280 0.119770 -0.055100
N6    N     N_R   0.883740 0.497640 0.167070 -0.088001
N7    N     N_R   0.987050 0.628910 0.948110 -0.072934
N8    N     N_R   0.174550 0.538730 0.004600 -0.052264
N9    N     N_2   0.282912 0.653483 0.875612 -0.111602
N10   N     N_2   0.993887 0.385978 0.713098 -0.099305
N11   N     N_2   0.235272 0.624644 0.648677 -0.114415
N12   N     N_R   0.954660 0.334720 0.880230 -0.090712
N13   N     N_2   0.473135 0.251226 0.967471 -0.101044
N14   N     N_2   0.583861 0.516286 0.802191 -0.065217
N15   N     N_2   0.918859 0.676558 0.884783 -0.120652
N16   N     N_R   0.116260 0.502360 0.832930 -0.053629
N17   N     N_R   0.012950 0.371090 0.051890 -0.085695
N18   N     N_R   0.963920 0.328100 0.004580 -0.069679
N19   N     N_R   0.165290 0.545350 0.880240 -0.079315
N20   N     N_R   0.132570 0.490700 0.051900 -0.035515
N21   N     N_R   0.996640 0.382750 0.832930 -0.115061
N22   N     N_R   0.834710 0.454650 0.119760 -0.083746
Ni1   Ni    Ni4+2 0.104370 0.604370 0.000010 0.204704
Ni2   Ni    Ni4+2 0.895630 0.395630 0.999990 0.307776
Ni3   Ni    Ni4+2 0.991920 0.505780 0.891500 0.172694
Ni4   Ni    Ni4+2 0.008080 0.494220 0.108500 0.263466
O1    O     O_3   0.866937 0.204743 0.869100 -0.762155
O2    O     O_3   0.684297 0.394093 0.038666 -0.708179
O3    O     O_3   0.047982 0.336462 0.140400 -0.771051
O4    O     O_3   0.109405 0.171252 0.643208 -0.767421
O5    O     O_3   0.719198 0.348911 0.128325 -0.689325
O6    O     O_3   0.821803 0.850066 0.356808 -0.752362
O7    O     O_3   0.131665 0.807913 0.278963 -0.751849
O8    O     O_3   0.771238 0.399101 0.355934 -0.723618
O9    O     O_3   0.431077 0.436897 0.813307 -0.775097
O10   O     O_3   0.740249 0.203331 0.292923 -0.725017

loop_
_geom_bond_atom_site_label_1
_geom_bond_atom_site_label_2
_ccdc_geom_bond_type
C61   C70   A    
C10   O4    S    
C81   H58   S    
C66   C68   A    
C79   H46   S    
C63   C65   A    
C80   H50   S    
C6    C45   A    
C27   C29   A    
C41   C42   A    
C14   C18   A    
N20   Ni4   S    
C35   C36   A    
N5    Ni1   S    
C56   N12   A    
C3    C6    A    
C48   O8    S    
N17   N18   A    
C39   C41   A    
C72   H16   S    
C64   H20   S    
C26   C27   A    
C50   C54   A    
C38   H4    S    
C81   N15   S    
C1    C74   A    
C37   H3    S    
C2    N9    S    
C22   C29   A    
C60   N14   S    
H53   O10   S    
H33   O4    S    
C3    H34   S    
C30   C31   A    
C12   C64   A    
H43   N13   S    
C23   C49   S    
N12   Ni2   S    
C10   C17   A    
C5    N10   S    
C79   H47   S    
C54   O9    S    
C16   N2    A    
C18   C19   A    
C73   C74   A    
C82   H23   S    
C66   H18   S    
C18   H56   S    
C77   H40   S    
C45   H21   S    
C46   C47   A    
C1    N1    A    
C63   C69   A    
C68   C69   A    
C75   H28   S    
C4    O5    S    
C78   O3    S    
C76   H32   S    
N16   Ni3   S    
C67   N16   A    
C51   C57   A    
C5    N21   A    
H52   O9    S    
C4    C12   A    
C58   H9    S    
H42   O8    S    
N3    Ni4   S    
C76   H30   S    
C9    C82   A    
C59   H10   S    
C55   C60   A    
C61   C71   A    
C81   H59   S    
H36   O6    S    
C59   C60   A    
C80   H49   S    
C29   O7    S    
C13   C14   A    
C73   N7    A    
N22   Ni2   S    
C7    C56   A    
C12   C47   S    
N2    N4    A    
C27   C34   S    
N21   Ni3   S    
C38   C39   A    
C52   H19   S    
C75   H27   S    
C50   C53   A    
H55   N15   S    
C53   H11   S    
N16   N19   A    
H54   O2    S    
C24   C25   A    
C65   H17   S    
C5    C7    A    
C62   C66   A    
C52   N5    A    
C82   N18   A    
C51   N13   S    
H38   N11   S    
C33   C37   A    
C80   H51   S    
C64   N6    A    
C51   C53   A    
C71   O10   S    
C7    C11   S    
C43   C44   A    
C37   C38   A    
C77   H41   S    
C67   H12   S    
C32   N11   S    
C75   N9    S    
C80   N14   S    
C47   C48   A    
C26   O6    S    
N19   Ni1   S    
C68   C72   A    
C76   H31   S    
C42   C48   A    
C6    C50   S    
H25   N9    S    
C3    N20   A    
C8    C67   A    
C39   C46   A    
N18   Ni2   S    
N17   Ni4   S    
C40   N4    A    
C24   H61   S    
C79   H44   S    
C16   C23   A    
H22   O1    S    
C56   O1    S    
N4    Ni2   S    
C22   C24   A    
C36   C44   A    
C25   H62   S    
C1    H1    S    
C42   C43   A    
C40   O2    S    
N8    Ni1   S    
C44   H8    S    
C46   H5    S    
N1    Ni1   S    
H48   N14   S    
C75   H26   S    
C81   H57   S    
C54   C55   A    
C28   N3    A    
C62   C65   A    
N3    N5    A    
C8    C31   S    
C31   C32   A    
C2    C8    A    
N8    N20   A    
N7    Ni3   S    
C2    N19   A    
C79   N13   S    
C15   C17   A    
N1    N7    A    
C19   H60   S    
C73   N15   S    
C34   C52   A    
C49   C59   A    
C30   C36   A    
C28   H14   S    
C45   N8    A    
C17   C25   A    
C32   C33   A    
C19   C20   A    
C55   C57   A    
C70   H13   S    
C71   C72   A    
C63   H15   S    
C77   N11   S    
C11   C13   A    
H35   O5    S    
C57   C58   A    
N6    Ni4   S    
C20   C26   A    
N12   N21   A    
C76   N10   S    
C33   C35   A    
H24   O3    S    
C4    N22   A    
C9    C78   A    
C43   H7    S    
C30   H2    S    
C69   C70   A    
C35   C41   A    
H29   N10   S    
C77   H39   S    
C10   C11   A    
C49   C58   A    
C28   C34   A    
C13   H45   S    
C15   C21   A    
C20   C21   A    
C78   N17   A    
N2    Ni3   S    
C16   H6    S    
C14   C15   A    
C62   C74   S    
H37   O7    S    
C21   C22   A    
C23   C40   A    
N6    N22   A    
