data_mof_unit_20227.cif
_audit_creation_date              2012-12-11T15:33:51-0500
_audit_creation_method            fapswitch 2.2
_symmetry_space_group_name_H-M    P1
_symmetry_Int_Tables_number       1
_space_group_crystal_system       triclinic
_cell_length_a                    27.123478
_cell_length_b                    7.208675
_cell_length_c                    22.697573
_cell_angle_alpha                 90.001035
_cell_angle_beta                  101.028913
_cell_angle_gamma                 90.000017
_cell_volume                      4355.96282227

loop_
_atom_site_label
_atom_site_type_symbol
_atom_type_description
_atom_site_fract_x
_atom_site_fract_y
_atom_site_fract_z
_atom_type_partial_charge
O1    O     O_R   0.207310 0.594030 0.676830 -0.537103
O2    O     O_R   0.792690 0.405970 0.323170 -0.537100
O3    O     O_R   0.292690 0.094030 0.823170 -0.537087
O4    O     O_R   0.707310 0.905970 0.176830 -0.537088
O5    O     O_R   0.197320 0.262370 0.795700 -0.531436
O6    O     O_R   0.802680 0.737630 0.204300 -0.531434
O7    O     O_R   0.302680 0.762370 0.704300 -0.531427
O8    O     O_R   0.697320 0.237630 0.295700 -0.531426
C1    C     C_R   0.183972 0.432531 0.810806 0.685306
C2    C     C_R   0.816027 0.567470 0.189194 0.685288
C3    C     C_R   0.316024 0.932527 0.689191 0.685220
C4    C     C_R   0.683976 0.067473 0.310809 0.685220
O9    O     O_R   0.201410 0.264250 0.675590 -0.533723
O10   O     O_R   0.798590 0.735750 0.324410 -0.533722
O11   O     O_R   0.298590 0.764250 0.824410 -0.533711
O12   O     O_R   0.701410 0.235750 0.175590 -0.533712
O13   O     O_R   0.296810 0.094940 0.702210 -0.527515
O14   O     O_R   0.703190 0.905060 0.297790 -0.527517
O15   O     O_R   0.203190 0.594940 0.797790 -0.527493
O16   O     O_R   0.796810 0.405060 0.202210 -0.527499
C5    C     C_R   0.189796 0.432530 0.653464 0.676666
C6    C     C_R   0.810204 0.567470 0.346536 0.676663
C7    C     C_R   0.310204 0.932533 0.846536 0.676692
C8    C     C_R   0.689796 0.067467 0.153464 0.676683
O17   O     O_3   0.281300 0.427390 0.758870 -0.367180
O18   O     O_3   0.718700 0.572610 0.241130 -0.367181
O19   O     O_3   0.218700 0.927390 0.741130 -0.367188
O20   O     O_3   0.781300 0.072610 0.258870 -0.367185
V1    V     V_3+5 0.244190 0.152150 0.748350 1.465261
V2    V     V_3+5 0.755810 0.847850 0.251650 1.465262
V3    V     V_3+5 0.255810 0.652150 0.751650 1.465266
V4    V     V_3+5 0.744190 0.347850 0.248350 1.465268
C9    C     C_R   0.654981 0.062406 0.094968 -0.039174
C10   C     C_R   0.345019 0.937594 0.905032 -0.039173
C11   C     C_R   0.845020 0.562420 0.405032 -0.039175
C12   C     C_R   0.154980 0.437579 0.594967 -0.039176
C13   C     C_R   0.639899 0.123049 0.988460 -0.101856
C14   C     C_R   0.360101 0.876951 0.011540 -0.101865
C15   C     C_R   0.860107 0.623167 0.511535 -0.101855
C16   C     C_R   0.139893 0.376832 0.488465 -0.101855
C17   C     C_R   0.672543 0.114541 0.043633 -0.192214
C18   C     C_R   0.327457 0.885459 0.956367 -0.192216
C19   C     C_R   0.827462 0.614626 0.456363 -0.192213
C20   C     C_R   0.172538 0.385374 0.543636 -0.192215
C21   C     C_R   0.603900 0.019098 0.090808 -0.180813
C22   C     C_R   0.396099 0.980902 0.909192 -0.180815
C23   C     C_R   0.896098 0.519072 0.409194 -0.180829
C24   C     C_R   0.103902 0.480927 0.590806 -0.180835
C25   C     C_R   0.569176 0.029718 0.034947 0.044531
C26   C     C_R   0.430824 0.970282 0.965053 0.044532
C27   C     C_R   0.930824 0.529727 0.465053 0.044529
C28   C     C_R   0.069176 0.470272 0.534946 0.044529
C29   C     C_R   0.588409 0.082666 0.983323 0.090656
C30   C     C_R   0.411591 0.917334 0.016677 0.090660
C31   C     C_R   0.911596 0.582750 0.516674 0.090657
C32   C     C_R   0.088404 0.417249 0.483326 0.090657
C33   C     C_R   0.516297 0.992070 0.028738 0.015751
C34   C     C_R   0.483703 0.007930 0.971262 0.015750
C35   C     C_R   0.983702 0.492047 0.471263 0.015757
C36   C     C_R   0.016298 0.507952 0.528737 0.015761
C37   C     C_R   0.504970 0.060379 0.921687 -0.247985
C38   C     C_R   0.495030 0.939620 0.078312 -0.247985
C39   C     C_R   0.995035 0.560477 0.578307 -0.248007
C40   C     C_R   0.004965 0.439522 0.421693 -0.248002
C41   C     C_R   0.556366 0.097012 0.927112 0.337098
C42   C     C_R   0.443634 0.902987 0.072888 0.337095
C43   C     C_R   0.943640 0.597140 0.572882 0.337092
C44   C     C_R   0.056359 0.402859 0.427118 0.337091
H1    H     H_    0.407275 0.017822 0.867713 0.094302
H2    H     H_    0.592725 0.982179 0.132287 0.094303
H3    H     H_    0.092730 0.517898 0.632282 0.094280
H4    H     H_    0.907270 0.482102 0.367717 0.094288
H5    H     H_    0.288255 0.849996 0.953633 0.124787
H6    H     H_    0.711744 0.150003 0.046367 0.124788
H7    H     H_    0.211738 0.349878 0.546371 0.124785
H8    H     H_    0.788262 0.650122 0.453628 0.124785
H9    H     H_    0.655266 0.164148 0.949766 0.178255
H10   H     H_    0.344734 0.835851 0.050234 0.178250
H11   H     H_    0.844743 0.664324 0.550226 0.178257
H12   H     H_    0.155257 0.335676 0.449773 0.178256
C45   C     C_R   0.609046 0.909644 0.342909 0.360847
C46   C     C_R   0.390952 0.090358 0.657089 0.360846
C47   C     C_R   0.890897 0.409448 0.157015 0.360801
C48   C     C_R   0.109126 0.590630 0.843022 0.360776
C49   C     C_R   0.576148 0.896956 0.383463 -0.141511
C50   C     C_R   0.423849 0.103048 0.616535 -0.141511
C51   C     C_R   0.923790 0.396774 0.116456 -0.141465
C52   C     C_R   0.076237 0.603289 0.883585 -0.141455
C53   C     C_R   0.575160 0.032244 0.427822 -0.155438
C54   C     C_R   0.424839 0.967757 0.572178 -0.155439
C55   C     C_R   0.924844 0.532272 0.072182 -0.155459
C56   C     C_R   0.075157 0.467703 0.927827 -0.155484
C57   C     C_R   0.609786 0.182104 0.432345 0.391165
C58   C     C_R   0.390215 0.817893 0.567656 0.391163
C59   C     C_R   0.890289 0.682337 0.067745 0.391109
C60   C     C_R   0.109686 0.317560 0.932226 0.391078
C61   C     C_R   0.642944 0.194156 0.391963 -0.167345
C62   C     C_R   0.357057 0.805841 0.608038 -0.167346
C63   C     C_R   0.857128 0.694351 0.108124 -0.167272
C64   C     C_R   0.142845 0.305562 0.891844 -0.167255
C65   C     C_R   0.644160 0.057858 0.347950 -0.221599
C66   C     C_R   0.355840 0.942142 0.652049 -0.221601
C67   C     C_R   0.855845 0.557848 0.152055 -0.221718
C68   C     C_R   0.144153 0.442152 0.847946 -0.221758
N1    N     N_R   0.513532 0.169007 0.483686 -0.248652
N2    N     N_R   0.486467 0.830994 0.516313 -0.248651
N3    N     N_R   0.986570 0.668976 0.016454 -0.248705
N4    N     N_R   0.013431 0.330995 0.983555 -0.248703
N5    N     N_R   0.478140 0.153230 0.516922 -0.253027
N6    N     N_R   0.521859 0.846771 0.483076 -0.253026
N7    N     N_R   0.021962 0.653174 0.983218 -0.253002
N8    N     N_R   0.978039 0.346796 0.016792 -0.252992
C69   C     C_R   0.463561 0.983826 0.533670 0.510762
C70   C     C_R   0.536437 0.016175 0.466329 0.510760
C71   C     C_R   0.036438 0.483781 0.966335 0.510755
C72   C     C_R   0.963563 0.516190 0.033674 0.510722
O21   O     O_3   0.576116 0.148424 0.877615 -0.640597
H13   H     H_    0.548991 0.152404 0.841509 0.303194
O22   O     O_3   0.423884 0.851575 0.122384 -0.640600
H14   H     H_    0.451009 0.847594 0.158491 0.303194
O23   O     O_3   0.923894 0.648626 0.622374 -0.640605
H15   H     H_    0.951021 0.652631 0.658479 0.303152
O24   O     O_3   0.076106 0.351372 0.377625 -0.640605
H16   H     H_    0.048979 0.347368 0.341521 0.303164
H17   H     H_    0.482467 0.074889 0.877526 0.122310
H18   H     H_    0.517533 0.925110 0.122474 0.122310
H19   H     H_    0.017540 0.575026 0.622466 0.122243
H20   H     H_    0.982460 0.424973 0.377534 0.122264
O25   O     O_3   0.604401 0.777286 0.298265 -0.632027
H21   H     H_    0.615651 0.831451 0.262995 0.282787
O26   O     O_3   0.395597 0.222719 0.701733 -0.632025
H22   H     H_    0.384349 0.168551 0.737004 0.282786
O27   O     O_3   0.895488 0.276883 0.201589 -0.631991
H23   H     H_    0.884314 0.331039 0.236910 0.282828
O28   O     O_3   0.104559 0.723292 0.798479 -0.631975
H24   H     H_    0.115701 0.669147 0.763136 0.282849
H25   H     H_    0.549577 0.783101 0.378524 0.180146
H26   H     H_    0.450420 0.216905 0.621473 0.180149
H27   H     H_    0.950310 0.282762 0.121330 0.180204
H28   H     H_    0.049737 0.717366 0.878737 0.180255
O29   O     O_3   0.614028 0.315924 0.476481 -0.620322
H29   H     H_    0.602354 0.263417 0.511671 0.313567
O30   O     O_3   0.385974 0.684069 0.523521 -0.620324
H30   H     H_    0.397646 0.736575 0.488330 0.313566
O31   O     O_3   0.886119 0.816411 0.023696 -0.620327
H31   H     H_    0.897795 0.764060 0.988486 0.313590
O32   O     O_3   0.113831 0.183387 0.976241 -0.620322
H32   H     H_    0.102185 0.235724 0.011474 0.313590
H33   H     H_    0.669659 0.307566 0.396979 0.162148
H34   H     H_    0.330342 0.692428 0.603024 0.162151
H35   H     H_    0.830464 0.807921 0.103170 0.162277
H36   H     H_    0.169488 0.191925 0.896772 0.162329

loop_
_geom_bond_atom_site_label_1
_geom_bond_atom_site_label_2
_ccdc_geom_bond_type
O17   V3    S    
C63   C67   A    
C48   O28   S    
O1    C5    A    
C51   C55   A    
O19   V1    S    
C9    C21   A    
O3    C7    A    
O32   H32   S    
C59   O31   S    
O1    V3    S    
O15   V3    S    
O31   H31   S    
C25   C33   A    
O28   H24   S    
C5    C12   S    
C45   C65   A    
C64   H36   S    
O7    C3    A    
C6    C11   S    
C35   C40   A    
C26   C30   A    
C47   C67   A    
C36   C39   A    
C39   H19   S    
C58   O30   S    
C40   C44   A    
N4    C71   A    
O9    V1    S    
C2    C67   S    
C14   C18   A    
C62   H34   S    
O4    C8    A    
C59   C63   A    
C58   C62   A    
O30   H30   S    
C56   C60   A    
O13   V1    S    
C55   C72   S    
O2    V4    S    
C54   C69   S    
O3    V1    S    
C52   H28   S    
C22   H1    S    
C28   C36   A    
C17   H6    S    
C1    O15   A    
C64   C68   A    
C15   C31   A    
C52   C56   A    
C2    O16   A    
C16   C32   A    
C10   C18   A    
O2    C6    A    
C16   H12   S    
C10   C22   A    
C11   C19   A    
N6    C70   A    
C16   C20   A    
N5    C69   A    
C13   C29   A    
C34   C37   A    
O11   C7    A    
C11   C23   A    
C35   C36   A    
O12   C8    A    
C53   C57   A    
O10   V2    S    
C43   O23   S    
C44   O24   S    
C45   C49   A    
C54   C58   A    
O5    V1    S    
C23   H4    S    
C39   C43   A    
O7    V3    S    
C38   C42   A    
N2    C69   A    
C26   C34   A    
N1    C70   A    
O24   H16   S    
C50   C54   A    
C38   H18   S    
C49   C53   A    
O18   V4    S    
C15   C19   A    
C14   H10   S    
C33   C38   A    
C62   C66   A    
C13   H9    S    
N4    N8    A    
C37   H17   S    
O8    V4    S    
C20   H7    S    
O5    C1    A    
C57   C61   A    
C45   O25   S    
C14   C30   A    
C21   C25   A    
O8    C4    A    
C7    C10   S    
C29   C41   A    
C40   H20   S    
C46   C66   A    
O9    C5    A    
O23   H15   S    
O14   V2    S    
O6    V2    S    
C42   O22   S    
O27   H23   S    
C48   C68   A    
C12   C20   A    
C27   C35   A    
C24   H3    S    
O26   H22   S    
C49   H25   S    
N8    C72   A    
C57   O29   S    
O25   H21   S    
O16   V4    S    
C19   H8    S    
C60   O32   S    
N1    N5    A    
C53   C70   S    
C3    O13   A    
C18   H5    S    
C61   H33   S    
C21   H2    S    
N3    N7    A    
C48   C52   A    
C51   H27   S    
C47   C51   A    
O6    C2    A    
C23   C27   A    
O22   H14   S    
O11   V3    S    
C30   C42   A    
O12   V4    S    
C22   C26   A    
C4    C65   S    
C8    C9    S    
C9    C17   A    
O10   C6    A    
O20   V2    S    
C31   C43   A    
C46   C50   A    
O21   H13   S    
C33   C34   A    
C63   H35   S    
C1    C68   S    
C25   C29   A    
C60   C64   A    
C32   C44   A    
C12   C24   A    
C3    C66   S    
C27   C31   A    
C13   C17   A    
C56   C71   S    
C61   C65   A    
N3    C72   A    
C47   O27   S    
C50   H26   S    
C55   C59   A    
C37   C41   A    
C24   C28   A    
N2    N6    A    
C4    O14   A    
C41   O21   S    
N7    C71   A    
C46   O26   S    
O29   H29   S    
O4    V2    S    
C28   C32   A    
C15   H11   S    
