data_mof_unit_36825.cif
_audit_creation_date              2012-12-11T14:50:38-0500
_audit_creation_method            fapswitch 2.2
_symmetry_space_group_name_H-M    P1
_symmetry_Int_Tables_number       1
_space_group_crystal_system       triclinic
_cell_length_a                    20.705831
_cell_length_b                    7.157024
_cell_length_c                    20.289244
_cell_angle_alpha                 89.835519
_cell_angle_beta                  101.599901
_cell_angle_gamma                 90.173977
_cell_volume                      2945.27467402

loop_
_atom_site_label
_atom_site_type_symbol
_atom_type_description
_atom_site_fract_x
_atom_site_fract_y
_atom_site_fract_z
_atom_type_partial_charge
O1    O     O_R   0.423690 0.494470 0.435930 -0.528782
O2    O     O_R   0.576310 0.994470 0.564070 -0.528426
O3    O     O_R   0.556070 0.822310 0.435760 -0.535010
O4    O     O_R   0.443930 0.322310 0.564240 -0.535539
C1    C     C_R   0.575706 0.656044 0.420969 0.719387
C2    C     C_R   0.424408 0.155286 0.579110 0.718830
O5    O     O_R   0.422940 0.824080 0.428040 -0.556361
O6    O     O_R   0.577060 0.324080 0.571960 -0.556560
O7    O     O_R   0.442240 0.995960 0.556300 -0.527111
O8    O     O_R   0.557760 0.495960 0.443700 -0.528373
C3    C     C_R   0.399062 0.656084 0.410166 0.762281
C4    C     C_R   0.600953 0.156132 0.589797 0.761609
O9    O     O_3   0.506490 0.661310 0.542090 -0.380336
O10   O     O_3   0.493510 0.161310 0.457910 -0.380991
V1    V     V_3+5 0.498800 0.935560 0.492190 1.404134
V2    V     V_3+5 0.501200 0.435560 0.507810 1.401744
C5    C     C_R   0.837452 0.080610 0.858513 -0.077021
C6    C     C_R   0.162669 0.580787 0.141348 -0.074267
C7    C     C_R   0.661908 0.154118 0.643469 -0.191614
C8    C     C_R   0.338176 0.654051 0.356393 -0.191521
C9    C     C_R   0.766640 0.309237 0.693684 0.408355
C10   C     C_R   0.233912 0.809812 0.305647 0.407747
C11   C     C_R   0.709882 0.292501 0.641972 -0.381609
C12   C     C_R   0.290431 0.792471 0.357600 -0.382219
C13   C     C_R   0.669819 0.030129 0.698752 0.327359
C14   C     C_R   0.330259 0.530528 0.301186 0.327262
C15   C     C_R   0.724981 0.050771 0.752820 0.003154
C16   C     C_R   0.275130 0.551059 0.247069 0.004262
C17   C     C_R   0.773885 0.188425 0.749714 0.032114
C18   C     C_R   0.226452 0.688705 0.249917 0.032396
C19   C     C_R   0.829558 0.202820 0.803174 -0.175265
C20   C     C_R   0.170801 0.703045 0.196447 -0.175168
C21   C     C_R   0.787690 0.950359 0.862021 -0.145377
C22   C     C_R   0.212249 0.450689 0.138018 -0.147817
C23   C     C_R   0.731748 0.938430 0.810857 -0.135609
C24   C     C_R   0.268210 0.438881 0.189174 -0.136255
H1    H     H_    0.868060 0.304065 0.800969 0.154093
H2    H     H_    0.132462 0.804231 0.198490 0.153072
H3    H     H_    0.792137 0.856855 0.904795 0.131236
H4    H     H_    0.207647 0.357221 0.095392 0.124913
H5    H     H_    0.694385 0.838366 0.816970 0.152307
H6    H     H_    0.305449 0.339011 0.183165 0.150880
H7    H     H_    0.701827 0.391026 0.600596 0.134896
H8    H     H_    0.298593 0.890813 0.398862 0.135434
C25   C     C_3   0.269976 0.225192 0.824176 -0.196268
C26   C     C_3   0.731944 0.727083 0.176343 -0.162759
C27   C     C_3   0.239900 0.900181 0.785092 -0.217092
C28   C     C_3   0.759169 0.400263 0.216011 -0.208326
C29   C     C_3   0.281788 0.911316 0.727828 -0.245474
C30   C     C_3   0.717393 0.413783 0.273311 -0.156600
H9    H     H_    0.295625 0.163968 0.872733 0.123159
H10   H     H_    0.706027 0.670748 0.126964 0.185195
H11   H     H_    0.198613 0.800389 0.768200 0.175354
H12   H     H_    0.800526 0.302377 0.234270 0.091319
H13   H     H_    0.249540 0.850913 0.682127 0.143061
H14   H     H_    0.749768 0.353763 0.319076 0.119476
C31   C     C_1   0.379146 0.146051 0.624960 -0.158129
C32   C     C_1   0.621233 0.649039 0.375348 -0.156844
C33   C     C_3   0.209969 0.097286 0.793827 0.122685
C34   C     C_3   0.790298 0.595351 0.206689 0.059252
C35   C     C_3   0.320649 0.234727 0.776316 0.226400
C36   C     C_3   0.680929 0.738231 0.223931 0.247420
C37   C     C_3   0.294420 0.121212 0.710425 0.093181
C38   C     C_3   0.706200 0.624325 0.290176 0.066515
C39   C     C_3   0.226157 0.203542 0.676478 0.246571
C40   C     C_3   0.775090 0.704065 0.323950 0.236018
C41   C     C_3   0.175754 0.171236 0.723021 -0.409780
C42   C     C_3   0.825184 0.669856 0.277153 -0.431076
C43   C     C_1   0.341045 0.136580 0.663179 0.040463
C44   C     C_1   0.659528 0.641003 0.337308 0.020497
C45   C     C_1   0.160580 0.089535 0.838473 0.098013
C46   C     C_1   0.839463 0.585826 0.161741 -0.037777
C47   C     C_1   0.121351 0.086315 0.875656 -0.124621
C48   C     C_1   0.878572 0.583572 0.124401 -0.155227
H15   H     H_    0.147935 0.301692 0.727118 0.214129
H16   H     H_    0.852992 0.800363 0.271765 0.166304
H17   H     H_    0.138346 0.067110 0.699039 0.100051
H18   H     H_    0.862494 0.566048 0.301362 0.124561
H19   H     H_    0.325808 0.382764 0.760906 0.142909
H20   H     H_    0.676312 0.886396 0.239074 0.139316
H21   H     H_    0.208823 0.124926 0.628573 0.042113
H22   H     H_    0.792049 0.624920 0.371900 0.051411
O11   O     O_R   0.942280 0.741210 0.056360 -0.529878
O12   O     O_R   0.057720 0.241210 0.943640 -0.530584
O13   O     O_R   0.077070 0.409690 0.071960 -0.538342
O14   O     O_R   0.922930 0.909690 0.928040 -0.538067
C49   C     C_R   0.101344 0.577940 0.088955 0.692994
C50   C     C_R   0.898713 0.077883 0.910984 0.689196
O15   O     O_R   0.943940 0.411580 0.064250 -0.537883
O16   O     O_R   0.056060 0.911580 0.935750 -0.526874
O17   O     O_R   0.923670 0.239840 0.935920 -0.537085
O18   O     O_R   0.076330 0.739840 0.064080 -0.535476
C51   C     C_R   0.924364 0.579148 0.078919 0.710640
C52   C     C_R   0.075565 0.079871 0.921067 0.707582
O19   O     O_3   0.993540 0.572620 0.957940 -0.369955
O20   O     O_3   0.006460 0.072620 0.042060 -0.374445
V3    V     V_3+5 0.001200 0.298330 0.007800 1.446211
V4    V     V_3+5 0.998800 0.798330 0.992200 1.464256
C53   C     C_2   0.277996 0.830345 0.852798 0.408776
H23   H     H_    0.330576 0.806685 0.862277 0.028161
O21   O     O_2   0.249982 0.808830 0.899856 -0.526493
C54   C     C_2   0.724114 0.327850 0.147396 0.386961
H24   H     H_    0.753150 0.306490 0.109156 0.107575
O22   O     O_2   0.664801 0.301213 0.132255 -0.536098
C55   C     C_2   0.343789 0.792876 0.738577 0.373724
H25   H     H_    0.384639 0.819039 0.779956 0.084464
O23   O     O_2   0.349829 0.670980 0.698294 -0.539242
C56   C     C_2   0.655134 0.296084 0.264486 0.424898
H26   H     H_    0.612170 0.329388 0.226418 0.142594
O24   O     O_2   0.651151 0.167799 0.303276 -0.553066
O25   O     O_3   0.232579 0.397805 0.664399 -0.549071
C57   C     C_3   0.187841 0.457431 0.606016 0.129524
H27   H     H_    0.174668 0.604807 0.614028 0.125981
H28   H     H_    0.140642 0.376959 0.596651 0.085032
C58   C     C_3   0.220682 0.449354 0.544809 -0.295587
H29   H     H_    0.266542 0.534794 0.554798 0.222149
H30   H     H_    0.234196 0.302908 0.535702 0.168552
C59   C     C_3   0.174829 0.523525 0.481878 -0.896967
H31   H     H_    0.129394 0.437033 0.469940 0.228517
H32   H     H_    0.200151 0.518563 0.438563 0.236151
H33   H     H_    0.160979 0.670286 0.489823 0.226326
O26   O     O_3   0.769874 0.898446 0.336034 -0.559658
C60   C     C_3   0.815944 0.956939 0.393603 0.110742
H34   H     H_    0.829643 0.103943 0.385072 0.123219
H35   H     H_    0.862688 0.875088 0.402091 0.090493
C61   C     C_3   0.784509 0.949952 0.455799 -0.284877
H36   H     H_    0.739265 0.037358 0.446785 0.219981
H37   H     H_    0.770195 0.804057 0.465238 0.169110
C62   C     C_3   0.832011 0.021744 0.518010 -0.899146
H38   H     H_    0.877018 0.933874 0.528779 0.228942
H39   H     H_    0.807800 0.016430 0.562125 0.235382
H40   H     H_    0.846411 0.168354 0.509979 0.227062
C63   C     C_2   0.252108 0.413796 0.846164 0.359860
H41   H     H_    0.289243 0.486421 0.882140 0.057978
O27   O     O_2   0.197083 0.479971 0.828314 -0.519083
C64   C     C_2   0.757344 0.914581 0.160798 0.325974
H42   H     H_    0.778855 0.006523 0.201431 0.067945
O28   O     O_2   0.756989 0.958866 0.102550 -0.539003
O29   O     O_3   0.812541 0.452888 0.694840 -0.563488
C65   C     C_3   0.825279 0.493571 0.630375 0.101658
H43   H     H_    0.788353 0.595905 0.604465 0.081654
H44   H     H_    0.823775 0.366423 0.598591 0.111219
C66   C     C_3   0.893532 0.582747 0.637625 -0.293038
H45   H     H_    0.901138 0.625486 0.587039 0.137611
H46   H     H_    0.896341 0.709935 0.669422 0.198294
C67   C     C_3   0.948345 0.447591 0.668574 -0.711034
H47   H     H_    0.943629 0.407636 0.720320 0.242935
H48   H     H_    0.997028 0.515892 0.671232 0.200010
H49   H     H_    0.946273 0.319778 0.637259 0.207621
O30   O     O_3   0.188607 0.954581 0.303801 -0.563566
C68   C     C_3   0.175847 0.997203 0.367990 0.102550
H50   H     H_    0.213439 0.098132 0.393807 0.080877
H51   H     H_    0.176168 0.870542 0.400025 0.111060
C69   C     C_3   0.108272 0.089803 0.360093 -0.289423
H52   H     H_    0.100669 0.133668 0.410462 0.137181
H53   H     H_    0.106675 0.216637 0.328043 0.197014
C70   C     C_3   0.052521 0.957128 0.329101 -0.720211
H54   H     H_    0.057221 0.916318 0.277519 0.241925
H55   H     H_    0.004350 0.027893 0.326023 0.194375
H56   H     H_    0.053403 0.829629 0.360629 0.208955
O31   O     O_3   0.618483 0.911243 0.704880 -0.566336
C71   C     C_3   0.633498 0.726964 0.688040 0.106856
H57   H     H_    0.683998 0.682435 0.713169 0.115045
H58   H     H_    0.630090 0.715276 0.632839 0.112567
C72   C     C_3   0.583336 0.592668 0.708573 -0.243985
H59   H     H_    0.532644 0.636011 0.684121 0.211935
H60   H     H_    0.591741 0.449742 0.691418 0.160071
C73   C     C_3   0.588876 0.586709 0.784646 -0.769606
H61   H     H_    0.637616 0.530281 0.809625 0.221872
H62   H     H_    0.549850 0.495017 0.796842 0.208015
H63   H     H_    0.582077 0.727868 0.804450 0.247565
O32   O     O_3   0.381735 0.413197 0.295014 -0.566510
C74   C     C_3   0.367026 0.228069 0.311768 0.105388
H64   H     H_    0.316688 0.182304 0.286447 0.115900
H65   H     H_    0.370228 0.215357 0.366934 0.112599
C75   C     C_3   0.417614 0.095981 0.291444 -0.243587
H66   H     H_    0.468115 0.140009 0.316450 0.210750
H67   H     H_    0.409196 0.952158 0.308189 0.160038
C76   C     C_3   0.412853 0.092766 0.215438 -0.767714
H68   H     H_    0.364441 0.035017 0.189899 0.220802
H69   H     H_    0.452390 0.003415 0.203424 0.209198
H70   H     H_    0.419347 0.235096 0.196037 0.248019
O33   O     O_3   0.381857 0.158463 0.809493 -0.573951
C77   C     C_3   0.427176 0.300667 0.835465 0.070611
H71   H     H_    0.406389 0.392746 0.870123 0.063929
H72   H     H_    0.439279 0.386883 0.793798 0.134571
C78   C     C_3   0.490477 0.212924 0.875177 -0.306867
H73   H     H_    0.525009 0.326002 0.897122 0.154708
H74   H     H_    0.478814 0.128226 0.917313 0.193059
C79   C     C_3   0.524204 0.088887 0.831043 -0.649073
H75   H     H_    0.533267 0.166750 0.786368 0.226174
H76   H     H_    0.493181 0.964870 0.813784 0.233777
H77   H     H_    0.572272 0.040206 0.860619 0.203223
O34   O     O_3   0.619422 0.663821 0.190536 -0.555982
C80   C     C_3   0.575641 0.807509 0.162761 0.097756
H78   H     H_    0.598152 0.897300 0.128436 0.123733
H79   H     H_    0.563085 0.895817 0.203467 0.126443
C81   C     C_3   0.512289 0.722138 0.122009 -0.311991
H80   H     H_    0.478638 0.836666 0.099821 0.146826
H81   H     H_    0.524194 0.638022 0.080060 0.204294
C82   C     C_3   0.477016 0.598042 0.165168 -0.645798
H82   H     H_    0.468061 0.674699 0.209947 0.223402
H83   H     H_    0.506927 0.472161 0.182201 0.238632
H84   H     H_    0.428810 0.552191 0.134950 0.197750

loop_
_geom_bond_atom_site_label_1
_geom_bond_atom_site_label_2
_ccdc_geom_bond_type
C66   C67   S    
C40   C42   S    
C10   O30   S    
C72   H59   S    
C29   C37   S    
C15   C17   A    
C5    C50   S    
C30   C38   S    
C82   H82   S    
C24   H6    S    
O25   C57   S    
O1    C3    A    
C65   C66   S    
O2    C4    A    
C2    O7    A    
C37   C39   S    
O31   C71   S    
O19   V4    S    
C11   H7    S    
C60   H34   S    
C27   C29   S    
C74   H64   S    
C56   H26   S    
C28   H12   S    
C55   O23   D    
C21   H3    S    
C1    C32   S    
C26   C36   S    
C25   H9    S    
C22   H4    S    
O12   V3    S    
C36   H20   S    
C65   H44   S    
C67   H47   S    
O14   C50   A    
C60   H35   S    
C2    C31   S    
C34   C46   S    
C1    O8    A    
C58   H29   S    
O11   C51   A    
C26   H10   S    
C27   C53   S    
C77   H71   S    
C68   C69   S    
C25   C35   S    
C35   C37   S    
C59   H31   S    
C39   O25   S    
C78   C79   S    
C36   C38   S    
C79   H77   S    
C33   C41   S    
C39   H21   S    
C73   H63   S    
C8    C12   A    
C13   O31   S    
C58   H30   S    
O11   V4    S    
C41   H17   S    
C79   H76   S    
C68   H50   S    
C40   O26   S    
O16   C52   A    
C81   H80   S    
C38   C44   S    
C69   H53   S    
C27   H11   S    
C76   H70   S    
C28   C30   S    
O34   C80   S    
C14   O32   S    
C70   H55   S    
C49   O18   A    
C70   H54   S    
C82   H83   S    
C48   C51   S    
C72   H60   S    
C5    C21   A    
C47   C52   S    
C23   H5    S    
C57   H28   S    
C57   H27   S    
C28   C34   S    
C67   H48   S    
O13   C49   A    
C42   H18   S    
C3    C8    S    
C35   O33   S    
O18   V4    S    
C37   C43   S    
C65   H43   S    
C69   C70   S    
C46   C48   T    
C45   C47   T    
C32   C44   T    
C60   C61   S    
C29   C55   S    
O5    V1    S    
C61   C62   S    
C39   C41   S    
C29   H13   S    
C9    C17   A    
C30   H14   S    
C76   H68   S    
O20   V4    S    
C59   H33   S    
C38   C40   S    
O4    V2    S    
C7    C11   A    
O33   C77   S    
C79   H75   S    
C40   H22   S    
C67   H49   S    
O5    C3    A    
C53   H23   S    
C50   O17   A    
O6    C4    A    
C58   C59   S    
C28   C54   S    
O20   V3    S    
C81   C82   S    
O1    V2    S    
O12   C52   A    
O17   V3    S    
C54   O22   D    
O2    V1    S    
C6    C22   A    
C16   C24   A    
C69   H52   S    
C74   H65   S    
C80   H79   S    
C64   O28   D    
C73   H61   S    
C53   O21   D    
C72   C73   S    
C20   H2    S    
C9    C11   A    
C31   C43   T    
C63   H41   S    
C12   H8    S    
C82   H84   S    
C10   C12   A    
O4    C2    A    
C41   H15   S    
C75   C76   S    
C9    O29   S    
O3    V1    S    
O32   C74   S    
C71   H57   S    
C74   C75   S    
C66   H46   S    
C25   C33   S    
C61   H37   S    
C10   C18   A    
C26   C34   S    
O10   V1    S    
C71   C72   S    
C25   C63   S    
C30   C56   S    
C64   H42   S    
O3    C1    A    
O29   C65   S    
O19   V3    S    
C70   H56   S    
C42   H16   S    
C55   H25   S    
C14   C16   A    
C6    C49   S    
C77   C78   S    
C15   C23   A    
C62   H40   S    
C75   H66   S    
C62   H38   S    
C16   C18   A    
C17   C19   A    
C71   H58   S    
O8    V2    S    
C18   C20   A    
C56   O24   D    
C8    C14   A    
C35   H19   S    
C61   H36   S    
C5    C19   A    
C4    C7    S    
C73   H62   S    
C21   C23   A    
C77   H72   S    
C22   C24   A    
C68   H51   S    
O15   C51   A    
C54   H24   S    
O14   V4    S    
C59   H32   S    
C78   H74   S    
O13   V3    S    
C7    C13   A    
C27   C33   S    
C80   H78   S    
C80   C81   S    
C19   H1    S    
C26   C64   S    
C78   H73   S    
C6    C20   A    
C34   C42   S    
O6    V2    S    
O9    V2    S    
O15   V3    S    
C63   O27   D    
C36   O34   S    
O30   C68   S    
C81   H81   S    
C76   H69   S    
O26   C60   S    
O16   V4    S    
C57   C58   S    
C66   H45   S    
O7    V1    S    
C33   C45   S    
C75   H67   S    
C62   H39   S    
C13   C15   A    
