data_mof_unit_46445.cif
_audit_creation_date              2012-10-26T21:24:46-0400
_audit_creation_method            fapswitch 2.2
_symmetry_space_group_name_H-M    P1
_symmetry_Int_Tables_number       1
_space_group_crystal_system       triclinic
_cell_length_a                    9.617339
_cell_length_b                    10.867564
_cell_length_c                    15.487437
_cell_angle_alpha                 88.46205
_cell_angle_beta                  73.538792
_cell_angle_gamma                 90.546599
_cell_volume                      1551.54614804

loop_
_atom_site_label
_atom_site_type_symbol
_atom_type_description
_atom_site_fract_x
_atom_site_fract_y
_atom_site_fract_z
_atom_type_partial_charge
C1    C     C_R   0.998021 0.263012 0.502909 0.548952
C2    C     C_R   0.227134 0.535211 0.041838 0.068729
C3    C     C_R   0.314141 0.471737 0.087997 0.054089
C4    C     C_R   0.917488 0.495866 0.672044 0.542827
C5    C     C_R   0.089201 0.575610 0.088575 -0.068013
C6    C     C_R   0.039448 0.559721 0.181603 -0.087369
C7    C     C_R   0.260428 0.455957 0.182320 -0.114143
C8    C     C_R   0.118913 0.065048 0.501423 -0.005548
C9    C     C_R   0.993217 0.130508 0.510940 0.005817
C10   C     C_R   0.861795 0.062642 0.530279 -0.119345
C11   C     C_R   0.863125 0.933199 0.532732 -0.089432
C12   C     C_R   0.662935 0.452393 0.904061 -0.017426
C13   C     C_R   0.995733 0.869898 0.512693 0.004486
C14   C     C_R   0.121014 0.940880 0.502180 -0.012222
C15   C     C_3   0.283058 0.939480 0.476532 -0.090460
C16   C     C_R   0.999119 0.737204 0.503472 0.555042
C17   C     C_3   0.278899 0.081438 0.476040 -0.194434
C18   C     C_R   0.607416 0.535318 0.424767 0.121784
C19   C     C_R   0.539986 0.445135 0.569341 0.102358
C20   C     C_R   0.391341 0.450882 0.570352 0.009766
C21   C     C_R   0.461811 0.529791 0.423176 0.164585
C22   C     C_3   0.479126 0.645345 0.366671 -0.117669
C23   C     C_R   0.749032 0.381611 0.948046 0.093085
C24   C     C_3   0.635895 0.653818 0.370553 -0.098399
C25   C     C_R   0.082191 0.499838 0.327931 0.546218
C26   C     C_R   0.869578 0.472207 0.769792 -0.013932
C27   C     C_R   0.126576 0.503304 0.229147 -0.011885
C28   C     C_R   0.899969 0.366875 0.903306 0.023810
C29   C     C_R   0.956123 0.408530 0.813682 -0.182539
C30   C     C_R   0.728372 0.500394 0.816627 -0.110279
C31   C     C_2   0.337895 0.880630 0.549570 0.213819
C32   C     C_2   0.572773 0.369228 0.641576 0.243826
C33   C     C_2   0.466592 0.626008 0.273321 0.225331
C34   C     C_R   0.513751 0.473046 0.948037 0.026299
C35   C     C_2   0.660214 0.763274 0.421102 0.235101
C36   C     C_2   0.006376 0.312463 0.945757 0.296897
C37   C     C_R   0.455018 0.433280 0.039167 0.016763
C38   C     C_R   0.536603 0.353242 0.077724 -0.082362
C39   C     C_R   0.679646 0.323334 0.032286 0.280501
C40   C     C_R   0.420282 0.530665 0.903617 -0.098140
C41   C     C_R   0.279132 0.559295 0.949650 -0.119988
Cu1   Cu    Cu3+1 0.140670 0.499980 0.500000 0.929462
Cu2   Cu    Cu3+1 0.859330 0.500020 0.500000 0.958661
H1    H     H_    0.021404 0.622570 0.053394 0.128556
H2    H     H_    0.718488 0.645185 0.304732 0.174174
H3    H     H_    0.935545 0.596214 0.216536 0.138079
H4    H     H_    0.211749 0.604322 0.913220 0.115967
H5    H     H_    0.067889 0.390216 0.777633 0.124632
H6    H     H_    0.671346 0.558866 0.781545 0.134002
H7    H     H_    0.488082 0.307085 0.141872 0.102750
H8    H     H_    0.451082 0.553129 0.832576 0.144767
H9    H     H_    0.685190 0.200304 0.125887 0.330830
H10   H     H_    0.311096 0.784907 0.569456 0.131044
H11   H     H_    0.673479 0.320838 0.629783 0.162135
H12   H     H_    0.758930 0.108683 0.542611 0.152874
H13   H     H_    0.384366 0.674603 0.251006 0.118596
H14   H     H_    0.607162 0.767779 0.492664 0.130931
H15   H     H_    0.096744 0.261146 0.905261 0.110999
H16   H     H_    0.760853 0.883573 0.549194 0.167528
H17   H     H_    0.330726 0.904126 0.408218 0.104280
H18   H     H_    0.314892 0.126598 0.529794 0.190299
H19   H     H_    0.322269 0.124583 0.407614 0.130713
H20   H     H_    0.307506 0.411056 0.626564 0.162056
H21   H     H_    0.323631 0.413010 0.221773 0.150954
H22   H     H_    0.406398 0.716981 0.402260 0.079932
N1    N     N_R   0.648210 0.500930 0.499430 -0.281340
N2    N     N_R   0.352300 0.500890 0.499430 -0.279288
O1    O     O_R   0.118810 0.319640 0.500000 -0.500828
O2    O     O_2   0.414634 0.937940 0.585766 -0.521926
O3    O     O_2   0.484041 0.355871 0.715381 -0.559473
O4    O     O_2   0.547177 0.556450 0.222303 -0.530001
O5    O     O_2   0.737236 0.848800 0.381385 -0.497220
O6    O     O_2   0.001026 0.331667 0.023872 -0.445400
O7    O     O_R   0.881230 0.319680 0.499990 -0.525208
O8    O     O_R   0.055580 0.499970 0.629840 -0.510076
O9    O     O_R   0.818000 0.500010 0.629830 -0.524472
O10   O     O_R   0.118770 0.680320 0.500010 -0.524442
O11   O     O_R   0.881190 0.680360 0.500000 -0.492370
O12   O     O_R   0.182000 0.499990 0.370170 -0.503768
O13   O     O_R   0.944420 0.500030 0.370160 -0.483870
O14   O     O_3   0.748588 0.231449 0.066964 -0.641039

loop_
_geom_bond_atom_site_label_1
_geom_bond_atom_site_label_2
_ccdc_geom_bond_type
C25   O13   A    
C34   C37   A    
C15   H17   S    
C20   N2    A    
C19   C20   A    
Cu2   O11   S    
C12   C23   A    
Cu1   O8    S    
C18   C24   S    
C1    O7    A    
C28   C29   A    
C3    C7    A    
C38   C39   A    
C2    C41   A    
C18   C21   A    
C1    O1    A    
C7    C27   A    
C19   N1    A    
C16   O10   A    
C4    O8    A    
C17   H18   S    
C8    C9    A    
C9    C10   A    
Cu2   O7    S    
Cu1   O12   S    
C13   C14   A    
C21   N2    A    
Cu1   O1    S    
C11   H16   S    
C19   C32   S    
C32   H11   S    
C24   C35   S    
C29   H5    S    
C1    C9    S    
C39   O14   S    
C10   C11   A    
C32   O3    D    
Cu2   O13   S    
C22   H22   S    
C37   C38   A    
C17   H19   S    
C6    C27   A    
C41   H4    S    
C23   C28   A    
C31   H10   S    
C10   H12   S    
C3    C37   A    
Cu1   O10   S    
C40   C41   A    
C30   H6    S    
C35   O5    D    
C26   C30   A    
Cu1   N2    S    
C22   C24   S    
C2    C5    A    
C18   N1    A    
Cu1   Cu2   S    
C24   H2    S    
C12   C34   A    
Cu2   O9    S    
C15   C17   S    
C22   C33   S    
C8    C14   A    
C6    H3    S    
C12   C30   A    
C25   O12   A    
C5    H1    S    
C4    C26   S    
C15   C31   S    
C38   H7    S    
C25   C27   S    
C40   H8    S    
C36   H15   S    
C8    C17   S    
C35   H14   S    
C20   H20   S    
C2    C3    A    
C11   C13   A    
C5    C6    A    
C33   H13   S    
Cu2   N1    S    
C23   C39   A    
C16   O11   A    
H9    O14   S    
C7    H21   S    
C4    O9    A    
C36   O6    D    
C33   O4    D    
C31   O2    D    
C28   C36   S    
C26   C29   A    
C13   C16   S    
C14   C15   S    
C34   C40   A    
C21   C22   S    
