data_mof_unit_15880.cif
_audit_creation_date              2012-12-10T17:19:21-0500
_audit_creation_method            fapswitch 2.2
_symmetry_space_group_name_H-M    P1
_symmetry_Int_Tables_number       1
_space_group_crystal_system       triclinic
_cell_length_a                    15.043875
_cell_length_b                    10.747623
_cell_length_c                    9.608303
_cell_angle_alpha                 90.199868
_cell_angle_beta                  90.056134
_cell_angle_gamma                 92.687877
_cell_volume                      1551.80747067

loop_
_atom_site_label
_atom_site_type_symbol
_atom_type_description
_atom_site_fract_x
_atom_site_fract_y
_atom_site_fract_z
_atom_type_partial_charge
C1    C     C_R   0.498982 0.262742 0.499798 0.790689
C2    C     C_R   0.908567 0.556253 0.386744 0.090316
C3    C     C_R   0.951107 0.413551 0.731983 -0.220901
C4    C     C_R   0.043607 0.412595 0.731344 -0.237510
C5    C     C_R   0.091866 0.460026 0.617099 0.111452
C6    C     C_R   0.047124 0.509953 0.502065 0.045061
C7    C     C_R   0.095498 0.559707 0.387063 0.050286
C8    C     C_R   0.049645 0.613247 0.274736 -0.006757
C9    C     C_R   0.956412 0.608209 0.274591 -0.261753
C10   C     C_R   0.184250 0.458075 0.616153 -0.257979
C11   C     C_R   0.232232 0.502601 0.500689 -0.074998
C12   C     C_R   0.328858 0.499474 0.500059 0.782162
C13   C     C_R   0.188240 0.552261 0.386790 -0.254808
C14   C     C_R   0.333945 0.119367 0.553640 -0.183438
C15   C     C_R   0.255071 0.049078 0.577008 -0.139913
C16   C     C_R   0.254884 0.919480 0.575370 -0.172432
C17   C     C_R   0.333724 0.859423 0.551911 -0.171917
C18   C     C_R   0.414256 0.928785 0.527569 0.102185
C19   C     C_R   0.414283 0.060249 0.527771 0.088694
C20   C     C_R   0.494600 0.128685 0.499306 -0.090508
C21   C     C_R   0.572541 0.068911 0.468564 -0.188032
C22   C     C_R   0.572607 0.940369 0.469013 -0.214992
C23   C     C_R   0.499129 0.737152 0.500091 0.764006
C24   C     C_R   0.494704 0.870631 0.500016 -0.074828
C25   C     C_R   0.618611 0.665507 0.144599 -0.145083
C26   C     C_R   0.676943 0.745862 0.072817 -0.221715
C27   C     C_R   0.676985 0.745774 0.929385 -0.199347
C28   C     C_R   0.618686 0.665340 0.856828 -0.135172
C29   C     C_R   0.558336 0.581258 0.925598 0.204665
C30   C     C_R   0.558305 0.581270 0.075113 0.214558
C31   C     C_R   0.444333 0.422908 0.073468 -0.055879
C32   C     C_R   0.444335 0.422962 0.925632 -0.054933
C33   C     C_R   0.671213 0.501104 0.500090 0.785280
C34   C     C_R   0.815769 0.552025 0.386109 -0.245831
C35   C     C_R   0.768139 0.503927 0.500688 -0.068758
C36   C     C_R   0.813227 0.459669 0.616696 -0.247881
C37   C     C_R   0.905863 0.460805 0.617743 0.115153
C38   C     C_R   0.953895 0.509308 0.502230 0.060884
Cu1   Cu    Cu3+1 0.499990 0.499990 0.640660 0.931339
Cu2   Cu    Cu3+1 0.500010 0.500010 0.359340 0.936046
H1    H     H_    0.780688 0.587810 0.297340 0.149838
H2    H     H_    0.331251 0.219808 0.554470 0.122209
H3    H     H_    0.193805 0.095357 0.595777 0.139905
H4    H     H_    0.193445 0.865190 0.592540 0.134754
H5    H     H_    0.330873 0.758800 0.551580 0.134618
H6    H     H_    0.633776 0.894896 0.446138 0.125394
H7    H     H_    0.398682 0.359652 0.128242 0.137873
H8    H     H_    0.623991 0.673671 0.254334 0.191206
H9    H     H_    0.722414 0.808820 0.129259 0.147154
H10   H     H_    0.722443 0.808743 0.873581 0.150888
H11   H     H_    0.623928 0.673442 0.747124 0.196291
H12   H     H_    0.776169 0.422338 0.705148 0.158523
H13   H     H_    0.398672 0.359749 0.870157 0.133442
H14   H     H_    0.914927 0.376493 0.821295 0.145872
H15   H     H_    0.077466 0.374774 0.820201 0.145017
H16   H     H_    0.218753 0.419716 0.704213 0.149837
H17   H     H_    0.227083 0.585028 0.298401 0.174217
H18   H     H_    0.921085 0.647776 0.188066 0.150210
H19   H     H_    0.633697 0.122213 0.445550 0.140472
N1    N     N_R   0.500860 0.501210 0.147910 -0.199014
N2    N     N_R   0.500890 0.501290 0.852040 -0.198778
O1    O     O_R   0.499990 0.319640 0.618810 -0.575468
O2    O     O_R   0.500000 0.319660 0.381240 -0.571573
O3    O     O_R   0.370250 0.499960 0.618800 -0.585031
O4    O     O_R   0.370260 0.499980 0.381230 -0.580200
O5    O     O_R   0.500000 0.680340 0.618760 -0.593291
O6    O     O_R   0.500010 0.680360 0.381190 -0.590451
O7    O     O_R   0.629740 0.500020 0.618770 -0.601180
O8    O     O_R   0.629750 0.500040 0.381200 -0.598171
C39   C     C_R   0.096888 0.679821 0.159538 0.108411
C40   C     C_R   0.154677 0.783432 0.188189 -0.159668
C41   C     C_R   0.199654 0.845934 0.080046 -0.122534
C42   C     C_R   0.186470 0.806652 0.942539 -0.113964
C43   C     C_R   0.127853 0.705277 0.912773 -0.133614
C44   C     C_R   0.082945 0.642072 0.020771 -0.151295
H20   H     H_    0.165161 0.815251 0.294306 0.136800
H21   H     H_    0.244661 0.924922 0.102866 0.136625
H22   H     H_    0.221502 0.855136 0.859214 0.139539
H23   H     H_    0.117276 0.675852 0.806017 0.144301
H24   H     H_    0.037919 0.563393 0.996595 0.133428

loop_
_geom_bond_atom_site_label_1
_geom_bond_atom_site_label_2
_ccdc_geom_bond_type
Cu2   N1    S    
Cu1   O7    S    
C35   C36   A    
C1    O1    A    
C7    C8    A    
Cu1   O3    S    
C26   C27   A    
C37   C38   A    
Cu2   O2    S    
C18   C24   A    
C23   O5    A    
C28   C29   A    
C17   H5    S    
C32   N2    A    
C21   H19   S    
C5    C6    A    
C12   O3    A    
C28   H11   S    
C13   H17   S    
C33   O7    A    
C15   C16   A    
C18   C19   A    
C34   C35   A    
C42   C43   A    
C23   O6    A    
C41   H21   S    
C19   C20   A    
C8    C9    A    
Cu2   O6    S    
C30   N1    A    
C23   C24   S    
C6    C38   A    
C39   C40   A    
C10   H16   S    
C44   H24   S    
C16   H4    S    
C36   H12   S    
C27   H10   S    
C33   O8    A    
C14   H2    S    
C2    C34   A    
C31   H7    S    
C21   C22   A    
C34   H1    S    
C1    O2    A    
Cu1   N2    S    
C29   N2    A    
Cu2   O8    S    
C43   C44   A    
C26   H9    S    
Cu1   Cu2   S    
C41   C42   A    
C25   C26   A    
C31   N1    A    
C29   C30   A    
C2    C38   A    
C31   C32   A    
C42   H22   S    
C17   C18   A    
C25   H8    S    
C3    H14   S    
C22   H6    S    
C43   H23   S    
C4    H15   S    
Cu1   O5    S    
C22   C24   A    
C3    C4    A    
C32   H13   S    
C27   C28   A    
C25   C30   A    
Cu1   O1    S    
C9    H18   S    
C1    C20   S    
C14   C19   A    
C4    C5    A    
C11   C12   S    
C6    C7    A    
C12   O4    A    
C8    C39   S    
Cu2   O4    S    
C15   H3    S    
C5    C10   A    
C11   C13   A    
C40   H20   S    
C33   C35   S    
C10   C11   A    
C7    C13   A    
C40   C41   A    
C20   C21   A    
C3    C37   A    
C36   C37   A    
C39   C44   A    
C14   C15   A    
C2    C9    A    
C16   C17   A    
