data_mof_unit_27214.cif
_audit_creation_date              2013-03-05T16:05:18-0500
_audit_creation_method            fapswitch 2.2
_symmetry_space_group_name_H-M    P1
_symmetry_Int_Tables_number       1
_space_group_crystal_system       triclinic
_cell_length_a                    27.224491
_cell_length_b                    7.193388
_cell_length_c                    22.809472
_cell_angle_alpha                 89.997421
_cell_angle_beta                  101.429692
_cell_angle_gamma                 89.996941
_cell_volume                      4378.33791524

loop_
_atom_site_label
_atom_site_type_symbol
_atom_site_description
_atom_site_fract_x
_atom_site_fract_y
_atom_site_fract_z
_atom_type_partial_charge
O1    O     O_R   0.707300 0.594030 0.176840 -0.583984
O2    O     O_R   0.292700 0.405970 0.823160 -0.583986
O3    O     O_R   0.792700 0.094030 0.323160 -0.583996
O4    O     O_R   0.207300 0.905970 0.676840 -0.583997
O5    O     O_R   0.697330 0.262360 0.295660 -0.551512
O6    O     O_R   0.302670 0.737640 0.704340 -0.551513
O7    O     O_R   0.802670 0.762360 0.204340 -0.551515
O8    O     O_R   0.197330 0.237640 0.795660 -0.551515
C1    C     C_R   0.684283 0.432285 0.311223 0.969220
C2    C     C_R   0.315717 0.567715 0.688777 0.969222
C3    C     C_R   0.815717 0.932283 0.188777 0.969251
C4    C     C_R   0.184283 0.067717 0.811224 0.969251
O9    O     O_R   0.701410 0.264250 0.175600 -0.583322
O10   O     O_R   0.298590 0.735750 0.824400 -0.583321
O11   O     O_R   0.798590 0.764250 0.324400 -0.583347
O12   O     O_R   0.201410 0.235750 0.675600 -0.583348
O13   O     O_R   0.796800 0.094950 0.202240 -0.590266
O14   O     O_R   0.203200 0.905050 0.797760 -0.590266
O15   O     O_R   0.703200 0.594950 0.297760 -0.590260
O16   O     O_R   0.296800 0.405050 0.702240 -0.590261
C5    C     C_R   0.689743 0.432559 0.153483 0.916103
C6    C     C_R   0.310257 0.567441 0.846516 0.916106
C7    C     C_R   0.810257 0.932543 0.346517 0.916113
C8    C     C_R   0.189743 0.067457 0.653483 0.916114
O17   O     O_3   0.781290 0.427390 0.258880 -0.262209
O18   O     O_3   0.218710 0.572610 0.741120 -0.262210
O19   O     O_3   0.718710 0.927390 0.241120 -0.262188
O20   O     O_3   0.281290 0.072610 0.758880 -0.262190
V1    V     V_3+5 0.744190 0.152150 0.248350 1.225538
V2    V     V_3+5 0.255810 0.847850 0.751650 1.225538
V3    V     V_3+5 0.755810 0.652150 0.251650 1.225540
V4    V     V_3+5 0.244190 0.347850 0.748350 1.225541
C9    C     C_R   0.154728 0.062172 0.595210 -0.101686
C10   C     C_R   0.845272 0.937828 0.404790 -0.101683
C11   C     C_R   0.345269 0.562073 0.904787 -0.101623
C12   C     C_R   0.654731 0.437927 0.095213 -0.101624
C13   C     C_R   0.139161 0.119851 0.488756 -0.159961
C14   C     C_R   0.860839 0.880149 0.511244 -0.159965
C15   C     C_R   0.360783 0.618805 0.011289 -0.159908
C16   C     C_R   0.639217 0.381195 0.988711 -0.159905
C17   C     C_R   0.172036 0.112536 0.543821 -0.147864
C18   C     C_R   0.827964 0.887464 0.456179 -0.147866
C19   C     C_R   0.327924 0.611794 0.956208 -0.148031
C20   C     C_R   0.672076 0.388206 0.043792 -0.148028
C21   C     C_R   0.103709 0.019723 0.591221 -0.221488
C22   C     C_R   0.896291 0.980277 0.408779 -0.221490
C23   C     C_R   0.396307 0.519981 0.908758 -0.221410
C24   C     C_R   0.603693 0.480019 0.091242 -0.221413
C25   C     C_R   0.068997 0.029241 0.535507 0.106348
C26   C     C_R   0.931003 0.970759 0.464493 0.106348
C27   C     C_R   0.431001 0.529175 0.964490 0.106348
C28   C     C_R   0.568999 0.470824 0.035509 0.106349
C29   C     C_R   0.088063 0.079961 0.484161 0.167957
C30   C     C_R   0.911937 0.920039 0.515839 0.167959
C31   C     C_R   0.411899 0.579226 0.015870 0.167951
C32   C     C_R   0.588101 0.420774 0.984130 0.167948
C33   C     C_R   0.016233 0.992644 0.528902 0.057195
C34   C     C_R   0.983767 0.007356 0.471097 0.057195
C35   C     C_R   0.483778 0.492853 0.971086 0.057189
C36   C     C_R   0.516222 0.507147 0.028914 0.057189
C37   C     C_R   0.005180 0.057594 0.421864 -0.176377
C38   C     C_R   0.994820 0.942406 0.578136 -0.176377
C39   C     C_R   0.494773 0.556711 0.078182 -0.176332
C40   C     C_R   0.505227 0.443288 0.921818 -0.176329
C41   C     C_R   0.056110 0.092682 0.428422 -0.217674
C42   C     C_R   0.943890 0.907318 0.571578 -0.217674
C43   C     C_R   0.443831 0.591552 0.071632 -0.217673
C44   C     C_R   0.556169 0.408447 0.928368 -0.217672
H1    H     H_    0.070659 0.131374 0.389184 0.144141
H2    H     H_    0.929341 0.868626 0.610816 0.144141
H3    H     H_    0.429254 0.629718 0.110897 0.144122
H4    H     H_    0.570746 0.370281 0.889103 0.144123
H5    H     H_    0.907585 0.015907 0.367530 0.115277
H6    H     H_    0.092415 0.984093 0.632470 0.115277
H7    H     H_    0.592374 0.515189 0.132513 0.115227
H8    H     H_    0.407626 0.484811 0.867487 0.115229
H9    H     H_    0.788855 0.852689 0.453551 0.131214
H10   H     H_    0.211145 0.147311 0.546449 0.131218
H11   H     H_    0.711203 0.353734 0.046404 0.131273
H12   H     H_    0.288797 0.646266 0.953596 0.131268
H13   H     H_    0.153680 0.159258 0.449582 0.131111
H14   H     H_    0.846320 0.840742 0.550417 0.131109
H15   H     H_    0.346236 0.657694 0.050489 0.131117
H16   H     H_    0.653764 0.342306 0.949511 0.131119
H17   H     H_    0.983521 0.071696 0.377190 0.144366
H18   H     H_    0.016479 0.928304 0.622810 0.144366
H19   H     H_    0.516413 0.570448 0.122877 0.144352
H20   H     H_    0.483587 0.429551 0.877123 0.144354
C45   C     C_R   0.856564 0.104835 0.116099 -0.249513
C46   C     C_R   0.143439 0.895164 0.883902 -0.249523
C47   C     C_R   0.643439 0.604821 0.383906 -0.249528
C48   C     C_R   0.356556 0.395188 0.616088 -0.249525
H21   H     H_    0.829823 0.215735 0.117051 0.200026
H22   H     H_    0.170180 0.784265 0.882950 0.200029
H23   H     H_    0.670181 0.715707 0.382958 0.200015
H24   H     H_    0.329810 0.284312 0.617032 0.199994
C49   C     C_R   0.892870 0.128085 0.080570 0.385026
C50   C     C_R   0.107132 0.871907 0.919431 0.385014
C51   C     C_R   0.607135 0.628069 0.419438 0.385022
C52   C     C_R   0.392860 0.371938 0.580556 0.385020
C53   C     C_R   0.927789 0.983866 0.078100 -0.137083
C54   C     C_R   0.072215 0.016132 0.921905 -0.137090
C55   C     C_R   0.572213 0.483868 0.421902 -0.137074
C56   C     C_R   0.427786 0.516126 0.578097 -0.137058
C57   C     C_R   0.926545 0.824385 0.113257 -0.163163
C58   C     C_R   0.073459 0.175614 0.886749 -0.163150
C59   C     C_R   0.573453 0.324408 0.386740 -0.163180
C60   C     C_R   0.426550 0.675578 0.613265 -0.163183
H25   H     H_    0.953422 0.714006 0.112134 0.198464
H26   H     H_    0.046582 0.285993 0.887873 0.198462
H27   H     H_    0.546575 0.214044 0.387859 0.198446
H28   H     H_    0.453431 0.785934 0.612149 0.198434
C61   C     C_R   0.891051 0.803468 0.149677 0.366829
C62   C     C_R   0.108951 0.196531 0.850326 0.366848
C63   C     C_R   0.608946 0.303493 0.350318 0.366798
C64   C     C_R   0.391056 0.696495 0.649686 0.366777
C65   C     C_R   0.854842 0.944221 0.151095 -0.284872
C66   C     C_R   0.145160 0.055778 0.848907 -0.284875
C67   C     C_R   0.645158 0.444228 0.348905 -0.284839
C68   C     C_R   0.354841 0.555772 0.651095 -0.284823
C69   C     C_R   0.016081 0.964241 0.061058 -0.138507
C70   C     C_R   0.983924 0.035760 0.938948 -0.138505
C71   C     C_R   0.483919 0.464335 0.438940 -0.138505
C72   C     C_R   0.516080 0.535653 0.561060 -0.138511
H29   H     H_    0.029168 0.937513 0.108304 0.129522
H30   H     H_    0.970836 0.062488 0.891702 0.129523
H31   H     H_    0.470830 0.437687 0.391691 0.129522
H32   H     H_    0.529169 0.562301 0.608309 0.129521
C73   C     C_R   0.050937 0.972330 0.023459 -0.050598
C74   C     C_R   0.949067 0.027671 0.976548 -0.050598
C75   C     C_R   0.449062 0.472421 0.476540 -0.050596
C76   C     C_R   0.550937 0.527567 0.523460 -0.050599
H33   H     H_    0.090303 0.951954 0.042379 0.127359
H34   H     H_    0.909701 0.048046 0.957627 0.127369
H35   H     H_    0.409695 0.452124 0.457616 0.127372
H36   H     H_    0.590305 0.547866 0.542384 0.127364
C77   C     C_R   0.035178 0.006976 0.961940 0.188720
C78   C     C_R   0.964827 0.993024 0.038066 0.188706
C79   C     C_R   0.464824 0.506969 0.538062 0.188700
C80   C     C_R   0.535175 0.493020 0.461938 0.188715
N1    N     N_R   0.894764 0.301225 0.049380 0.233855
O21   O     O_R   0.854141 0.398324 0.032031 -0.405106
O22   O     O_R   0.937638 0.374629 0.045263 -0.392799
N2    N     N_R   0.105235 0.698757 0.950615 0.233855
O23   O     O_R   0.062358 0.625384 0.954744 -0.392804
O24   O     O_R   0.145852 0.601610 0.967944 -0.405103
N3    N     N_R   0.605245 0.801187 0.450637 0.233856
O25   O     O_R   0.645869 0.898258 0.467984 -0.405080
O26   O     O_R   0.562372 0.874603 0.454766 -0.392787
N4    N     N_R   0.394745 0.198828 0.549351 0.233852
O27   O     O_R   0.437615 0.125378 0.545231 -0.392775
O28   O     O_R   0.354116 0.101798 0.531989 -0.405084
Br1   Br    Br    0.896702 0.582206 0.197858 -0.520310
Br2   Br    Br    0.103297 0.417785 0.802142 -0.520300
Br3   Br    Br    0.603292 0.082264 0.302130 -0.520314
Br4   Br    Br    0.396716 0.917710 0.697882 -0.520319

loop_
_geom_bond_atom_site_label_1
_geom_bond_atom_site_label_2
_geom_bond_distance
_ccdc_geom_bond_type
O17   V3    1.754112 S    
C51   C55   1.415728 A    
O1    C5    1.326880 A    
O19   V1    1.754192 S    
C9    C21   1.407375 A    
C16   H16   1.083948 S    
C72   C79   1.405297 A    
O3    C7    1.326905 A    
N3    O25   1.301520 A    
C10   C18   1.395024 A    
O1    V3    1.984345 S    
C11   C23   1.407355 A    
C25   C33   1.438649 A    
C33   C38   1.411022 A    
C5    C12   1.474627 S    
C47   C67   1.410314 A    
O7    C3    1.340240 A    
C6    C11   1.474627 S    
C38   H18   1.076174 S    
C35   C40   1.411026 A    
C26   C30   1.419542 A    
C58   C62   1.401651 A    
C36   C39   1.411030 A    
C46   C66   1.410303 A    
C57   C61   1.401651 A    
N3    O26   1.301378 A    
C23   H8    1.077082 S    
C14   C18   1.391333 A    
C75   H35   1.083037 S    
N1    O22   1.301381 A    
C58   H26   1.083445 S    
O4    C8    1.326905 A    
C25   C29   1.419542 A    
C44   H4    1.084378 S    
C48   H24   1.083076 S    
O13   V1    1.980888 S    
C31   C43   1.393972 A    
C72   C76   1.400712 A    
O2    V4    1.984346 S    
O3    V1    1.984284 S    
C57   H25   1.083443 S    
C28   C36   1.438631 A    
C1    O15   1.338435 A    
C52   C56   1.415723 A    
C15   C31   1.403864 A    
C76   C80   1.405886 A    
C2    O16   1.338432 A    
C16   C32   1.403864 A    
O2    C6    1.326879 A    
C39   H19   1.076161 S    
C54   C58   1.403909 A    
C10   C22   1.407373 A    
C62   Br2   1.922876 S    
C11   C19   1.395016 A    
C16   C20   1.391342 A    
C27   C31   1.419539 A    
C76   H36   1.083037 S    
C72   H32   1.083072 S    
C71   C75   1.400712 A    
C34   C37   1.411022 A    
O11   C7    1.325719 A    
O15   V3    1.980892 S    
C35   C36   1.438356 A    
O12   C8    1.325719 A    
C14   H14   1.083945 S    
C45   H21   1.083081 S    
C24   H7    1.077082 S    
C13   H13   1.083946 S    
C74   H34   1.083042 S    
O10   V2    1.998520 S    
C46   H22   1.083089 S    
O5    V1    1.991506 S    
C53   C57   1.403913 A    
C39   C43   1.387946 A    
O7    V3    1.991521 S    
C38   C42   1.387954 A    
O8    V4    1.991523 S    
C2    C68   1.497836 S    
N2    O24   1.301538 A    
C61   Br1   1.922882 S    
C17   H10   1.083757 S    
O18   V4    1.754111 S    
C15   C19   1.391342 A    
C52   N4    1.440289 S    
C19   H12   1.083749 S    
C50   C54   1.415736 A    
C47   H23   1.083079 S    
C71   C80   1.405299 A    
C64   C68   1.417908 A    
C45   C49   1.406817 A    
C21   H6    1.077079 S    
C54   C77   1.489942 S    
C26   C34   1.438649 A    
C69   C78   1.405297 A    
C70   H30   1.083076 S    
C69   H29   1.083073 S    
N4    O28   1.301517 A    
C37   C41   1.387957 A    
C71   H31   1.083071 S    
C14   C30   1.403854 A    
C21   C25   1.427146 A    
O8    C4    1.340240 A    
C7    C10   1.474675 S    
C49   N1    1.440293 S    
O9    C5    1.325741 A    
C59   C63   1.401655 A    
C62   C66   1.417909 A    
C37   H17   1.076174 S    
C61   C65   1.417914 A    
O6    V2    1.991506 S    
C45   C65   1.410309 A    
C63   Br3   1.922884 S    
O14   V2    1.980882 S    
C1    C67   1.497841 S    
C73   H33   1.083039 S    
C12   C20   1.395016 A    
C27   C35   1.438634 A    
C3    C65   1.497838 S    
C40   C44   1.387946 A    
C56   C60   1.403915 A    
C29   C41   1.393982 A    
C48   C52   1.406823 A    
O16   V4    1.980894 S    
O9    V1    1.998518 S    
C51   N3    1.440295 S    
C3    O13   1.338429 A    
C50   N2    1.440293 S    
C59   H27   1.083443 S    
C20   H11   1.083748 S    
C8    C9    1.474674 S    
C70   C77   1.405294 A    
C69   C73   1.400707 A    
N2    O23   1.301395 A    
O6    C2    1.340246 A    
C23   C27   1.427110 A    
C53   C78   1.489941 S    
O11   V3    1.998630 S    
C30   C42   1.393984 A    
O12   V4    1.998631 S    
C70   C74   1.400701 A    
C22   C26   1.427148 A    
C63   C67   1.417913 A    
C4    C66   1.497832 S    
C56   C79   1.489936 S    
C9    C17   1.395023 A    
C60   C64   1.401654 A    
O20   V2    1.754193 S    
C48   C68   1.410309 A    
C13   C29   1.403855 A    
C32   C44   1.393974 A    
C55   C80   1.489933 S    
O10   C6    1.325742 A    
C33   C34   1.438392 A    
C42   H2    1.084373 S    
C41   H1    1.084371 S    
C40   H20   1.076162 S    
C12   C24   1.407355 A    
C43   H3    1.084378 S    
C13   C17   1.391335 A    
O4    V2    1.984284 S    
C64   Br4   1.922884 S    
C75   C79   1.405885 A    
C15   H15   1.083948 S    
C60   H28   1.083448 S    
C24   C28   1.427112 A    
C73   C77   1.405887 A    
C18   H9    1.083757 S    
C4    O14   1.338429 A    
N4    O27   1.301384 A    
C55   C59   1.403911 A    
O5    C1    1.340246 A    
C47   C51   1.406824 A    
N1    O21   1.301523 A    
C46   C50   1.406832 A    
C22   H5    1.077077 S    
C49   C53   1.415731 A    
C28   C32   1.419539 A    
C74   C78   1.405880 A    
