data_mof_unit_66091.cif
_audit_creation_date              2012-12-10T16:39:47-0500
_audit_creation_method            fapswitch 2.2
_symmetry_space_group_name_H-M    P1
_symmetry_Int_Tables_number       1
_space_group_crystal_system       triclinic
_cell_length_a                    10.911401
_cell_length_b                    10.926698
_cell_length_c                    16.044982
_cell_angle_alpha                 91.107758
_cell_angle_beta                  97.854277
_cell_angle_gamma                 98.68335
_cell_volume                      1871.74463461

loop_
_atom_site_label
_atom_site_type_symbol
_atom_type_description
_atom_site_fract_x
_atom_site_fract_y
_atom_site_fract_z
_atom_type_partial_charge
C1    C     C_R   0.837644 0.524015 0.518408 0.510603
C2    C     C_R   0.527812 0.835001 0.518252 0.533177
C3    C     C_R   0.473772 0.163176 0.481225 0.516795
C4    C     C_R   0.483687 0.515582 0.275971 0.512007
C5    C     C_R   0.516048 0.484144 0.723791 0.505258
C6    C     C_1   0.478389 0.519257 0.186448 0.075905
C7    C     C_2   0.472663 0.521674 0.021153 -0.130609
C8    C     C_2   0.549718 0.465791 0.979435 0.049842
C9    C     C_2   0.648564 0.397051 0.020587 0.610591
C10   C     C_3   0.945631 0.457372 0.323683 -0.268378
C11   C     C_3   0.996542 0.699873 0.637975 -0.251472
C12   C     C_1   0.535579 0.473235 0.888931 -0.024130
C13   C     C_2   0.343781 0.959478 0.424461 0.556182
C14   C     C_2   0.668681 0.027414 0.564864 0.591027
C15   C     C_1   0.475320 0.520893 0.111181 0.032243
C16   C     C_1   0.525388 0.478727 0.813473 0.040766
C17   C     C_2   0.024684 0.470172 0.472537 0.129013
C18   C     C_2   0.971714 0.533331 0.528307 0.144873
C19   C     C_2   0.457912 0.027579 0.477709 0.004469
C20   C     C_2   0.542750 0.967654 0.523834 0.029351
C21   C     C_R   0.160676 0.476106 0.481459 0.544422
H1    H     H_    0.403328 0.570040 0.986227 0.121130
H2    H     H_    0.977194 0.767033 0.588574 0.181614
H3    H     H_    0.197215 0.820300 0.413017 0.337087
H4    H     H_    0.829852 0.140149 0.554220 0.344922
H5    H     H_    0.740478 0.339893 0.127102 0.340203
H6    H     H_    0.864317 0.353096 0.414492 0.264516
H7    H     H_    0.897253 0.539575 0.326288 0.161892
H8    H     H_    0.893032 0.391623 0.272984 0.163716
H9    H     H_    0.041527 0.486647 0.308026 0.170836
H10   H     H_    0.074867 0.536590 0.647084 0.260806
H11   H     H_    0.068492 0.747853 0.688442 0.163181
H12   H     H_    0.909952 0.667505 0.665647 0.142599
N1    N     N_2   0.950595 0.397237 0.403312 -0.517435
N2    N     N_2   0.042986 0.595820 0.602734 -0.499219
O1    O     O_3   0.500000 0.500000 0.500000 -0.468429
O2    O     O_R   0.566290 0.591070 0.323460 -0.532906
O3    O     O_R   0.580640 0.419420 0.684420 -0.522906
O4    O     O_R   0.407770 0.434760 0.307690 -0.530219
O5    O     O_R   0.445300 0.554750 0.684430 -0.540801
O6    O     O_2   0.711659 0.346806 0.976925 -0.486250
O7    O     O_R   0.670848 0.389266 0.108103 -0.701230
O8    O     O_2   0.311466 0.994559 0.354065 -0.471126
O9    O     O_R   0.272002 0.857740 0.455155 -0.679631
O10   O     O_2   0.706902 0.001675 0.636619 -0.504962
O11   O     O_R   0.746051 0.106782 0.519771 -0.672928
O12   O     O_R   0.452040 0.769470 0.559450 -0.485538
O13   O     O_R   0.554760 0.223750 0.537250 -0.515640
O14   O     O_R   0.782610 0.596300 0.470630 -0.546341
O15   O     O_R   0.210590 0.410470 0.432660 -0.520737
O16   O     O_R   0.777820 0.443700 0.559450 -0.536692
O17   O     O_R   0.228980 0.549520 0.537250 -0.518323
O18   O     O_R   0.592170 0.786730 0.470640 -0.537970
O19   O     O_R   0.401030 0.220040 0.432660 -0.498301
Zn1   Zn    Zn3+2 0.408180 0.591840 0.569080 0.984553
Zn2   Zn    Zn3+2 0.608390 0.616500 0.442190 0.966385
Zn3   Zn    Zn3+2 0.381900 0.393170 0.419650 0.994024
Zn4   Zn    Zn3+2 0.601540 0.398480 0.569080 0.978184

loop_
_geom_bond_atom_site_label_1
_geom_bond_atom_site_label_2
_ccdc_geom_bond_type
O17   Zn1   S    
O13   Zn4   S    
O1    Zn2   S    
C2    O12   A    
C7    H1    S    
C18   N2    S    
C10   H9    S    
C9    O6    D    
C19   C20   D    
C4    O4    A    
C13   O8    D    
C8    C12   S    
O5    Zn1   S    
C7    C15   S    
C17   C18   D    
C9    O7    S    
O12   Zn1   S    
C7    C8    D    
C10   N1    S    
O1    Zn1   S    
C5    O3    A    
C3    C19   S    
C1    O16   A    
C10   H8    S    
C1    C18   S    
C11   N2    S    
C21   O15   A    
C11   H2    S    
C11   H11   S    
C14   O10   D    
O1    Zn4   S    
C21   O17   A    
H6    N1    S    
H3    O9    S    
C3    O19   A    
H10   N2    S    
C5    O5    A    
C17   N1    S    
C13   C19   S    
O15   Zn3   S    
C2    C20   S    
O4    Zn3   S    
O14   Zn2   S    
C14   C20   S    
C3    O13   A    
C11   H12   S    
C4    O2    A    
H5    O7    S    
C4    C6    S    
O1    Zn3   S    
O18   Zn2   S    
C10   H7    S    
O16   Zn4   S    
C5    C16   S    
C6    C15   T    
O3    Zn4   S    
O2    Zn2   S    
C1    O14   A    
H4    O11   S    
O19   Zn3   S    
C13   O9    S    
C17   C21   S    
C12   C16   T    
C8    C9    S    
C14   O11   S    
C2    O18   A    
