data_mof_unit_59370.cif
_audit_creation_date              2012-12-11T15:48:32-0500
_audit_creation_method            fapswitch 2.2
_symmetry_space_group_name_H-M    P1
_symmetry_Int_Tables_number       1
_space_group_crystal_system       triclinic
_cell_length_a                    10.917474
_cell_length_b                    10.955695
_cell_length_c                    18.747706
_cell_angle_alpha                 90.60334
_cell_angle_beta                  90.381109
_cell_angle_gamma                 60.384733
_cell_volume                      1949.33664284

loop_
_atom_site_label
_atom_site_type_symbol
_atom_type_description
_atom_site_fract_x
_atom_site_fract_y
_atom_site_fract_z
_atom_type_partial_charge
Br1   Br    Br    0.684497 0.948019 0.359926 -0.535504
C1    C     C_R   0.239976 0.645423 0.610488 0.546764
C2    C     C_R   0.579173 0.139559 0.709284 -0.181423
C3    C     C_R   0.574938 0.147163 0.782536 -0.173190
C4    C     C_R   0.654287 0.622618 0.600615 0.551599
C5    C     C_3   0.936622 0.090926 0.786472 -0.271003
C6    C     C_3   0.931983 0.098164 0.705718 -0.278909
C7    C     C_R   0.675638 0.162550 0.671796 0.016740
C8    C     C_R   0.182630 0.666306 0.835592 0.011986
C9    C     C_R   0.155332 0.575352 0.794339 0.017893
C10   C     C_R   0.163668 0.573319 0.720397 -0.004144
C11   C     C_R   0.217456 0.761247 0.726559 -0.172766
C12   C     C_3   0.667016 0.553400 0.799731 -0.253281
C13   C     C_R   0.216783 0.757808 0.800598 -0.179996
C14   C     C_3   0.229277 0.419198 0.797657 -0.283232
C15   C     C_3   0.236112 0.417466 0.716987 -0.270339
C16   C     C_R   0.630711 0.224996 0.601676 0.560027
C17   C     C_R   0.196666 0.664833 0.685126 0.011923
C18   C     C_R   0.671703 0.673755 0.171967 0.009303
C19   C     C_R   0.791842 0.606048 0.215205 0.039684
C20   C     C_R   0.784615 0.603697 0.287834 0.054644
C21   C     C_R   0.530975 0.743910 0.279393 -0.146668
C22   C     C_R   0.540153 0.749292 0.204943 -0.182866
C23   C     C_3   0.698289 0.673947 0.812234 0.051672
C24   C     C_3   0.914473 0.460087 0.211454 -0.268106
C25   C     C_3   0.912051 0.460179 0.292164 -0.277491
C26   C     C_R   0.653754 0.663804 0.320958 0.057565
C27   C     C_R   0.627630 0.191502 0.168444 0.022797
C28   C     C_R   0.220223 0.649300 0.401977 0.546474
C29   C     C_R   0.537732 0.168249 0.211418 -0.010878
C30   C     C_R   0.521024 0.205139 0.281794 0.019602
C31   C     C_R   0.652979 0.324790 0.265896 -0.175874
C32   C     C_R   0.674834 0.282101 0.193626 -0.171517
C33   C     C_3   0.536729 0.035067 0.225250 -0.219114
C34   C     C_3   0.670228 0.648266 0.676033 0.056301
C35   C     C_3   0.520154 0.074499 0.303615 0.046713
C36   C     C_R   0.587596 0.273548 0.311953 0.031668
C37   C     C_R   0.061248 0.718625 0.193577 0.023715
C38   C     C_R   0.004961 0.829351 0.242718 0.028992
C39   C     C_R   0.046699 0.806948 0.313171 0.077864
C40   C     C_R   0.641209 0.622705 0.392278 0.563618
C41   C     C_R   0.185772 0.558159 0.289222 -0.177927
C42   C     C_R   0.148592 0.581532 0.217788 -0.161671
C43   C     C_3   0.004290 0.965948 0.241590 -0.278581
C44   C     C_3   0.048833 0.942009 0.319126 -0.263954
C45   C     C_3   0.817598 0.629152 0.690697 -0.247137
C46   C     C_R   0.143184 0.672355 0.336411 0.032330
C47   C     C_R   0.701918 0.100332 0.895339 0.542783
C48   C     C_R   0.722769 0.687842 0.888375 0.543963
C49   C     C_R   0.119690 0.705260 0.906269 0.546893
C50   C     C_R   0.671641 0.113393 0.101895 0.538896
C51   C     C_R   0.696512 0.689526 0.097593 0.537134
C52   C     C_R   0.577215 0.298132 0.388565 0.582240
C53   C     C_R   0.029010 0.745816 0.118901 0.564164
C54   C     C_3   0.573678 0.811251 0.781989 -0.234149
C55   C     C_3   0.558847 0.797244 0.701314 -0.240107
C56   C     C_3   0.651246 0.537854 0.719323 -0.215406
C57   C     C_3   0.834202 0.643059 0.771074 -0.217887
C58   C     C_R   0.682572 0.152253 0.822264 0.016711
C59   C     C_R   0.780637 0.173464 0.784949 -0.007482
C60   C     C_R   0.775129 0.181931 0.710660 0.008574
Cr1   Cr    Cr6+3 0.392960 0.397920 0.502240 1.014355
Cr2   Cr    Cr6+3 0.398340 0.708480 0.501250 1.011729
Cr3   Cr    Cr6+3 0.708670 0.393570 0.496460 1.011322
Cr4   Cr    Cr6+3 0.937650 0.938540 0.007610 1.002365
Cr5   Cr    Cr6+3 0.625330 0.937370 0.994520 0.999846
Cr6   Cr    Cr6+3 0.937940 0.625230 0.001190 1.004352
H1    H     H_    0.594020 0.899160 0.791925 0.145820
H2    H     H_    0.968290 0.994954 0.678953 0.149872
H3    H     H_    0.473572 0.836151 0.809217 0.116709
H4    H     H_    0.232934 0.834178 0.830209 0.129830
H5    H     H_    0.161172 0.378959 0.818671 0.131867
H6    H     H_    0.333096 0.377086 0.824464 0.143810
H7    H     H_    0.344080 0.373737 0.695942 0.177800
H8    H     H_    0.170386 0.378204 0.690915 0.125252
H9    H     H_    0.427448 0.794517 0.303561 0.137596
H10   H     H_    0.445707 0.809568 0.173555 0.125932
H11   H     H_    0.009831 0.454238 0.188495 0.154632
H12   H     H_    0.733218 0.431395 0.702610 0.148024
H13   H     H_    0.887072 0.384223 0.187103 0.127279
H14   H     H_    0.894170 0.376638 0.313841 0.149607
H15   H     H_    0.002945 0.463498 0.316858 0.153383
H16   H     H_    0.691546 0.391388 0.286318 0.123737
H17   H     H_    0.734666 0.311349 0.159126 0.117976
H18   H     H_    0.639054 0.941157 0.211460 0.176995
H19   H     H_    0.441816 0.037588 0.201749 0.115071
H20   H     H_    0.417184 0.096247 0.325976 0.130639
H21   H     H_    0.259717 0.452187 0.305545 0.129601
H22   H     H_    0.195608 0.493280 0.181041 0.135223
H23   H     H_    0.923882 0.542850 0.790018 0.143794
H24   H     H_    0.897154 0.055262 0.234269 0.166667
H25   H     H_    0.573221 0.877404 0.672448 0.119401
H26   H     H_    0.085863 0.964805 0.205951 0.146665
H27   H     H_    0.155838 0.928035 0.327612 0.139895
H28   H     H_    0.966336 0.017955 0.355980 0.180662
H29   H     H_    0.859424 0.728581 0.781260 0.126789
H30   H     H_    0.831463 0.709575 0.661616 0.123332
H31   H     H_    0.754016 0.453476 0.821225 0.131147
H32   H     H_    0.546446 0.547596 0.708118 0.126868
H33   H     H_    0.239199 0.837241 0.702037 0.133695
H34   H     H_    0.901298 0.524074 0.672023 0.133909
H35   H     H_    0.450903 0.817545 0.689678 0.136073
H36   H     H_    0.568351 0.575663 0.827681 0.119815
H37   H     H_    0.497673 0.127800 0.682071 0.131192
H38   H     H_    0.491934 0.135998 0.807502 0.137840
H39   H     H_    0.973247 0.984326 0.807334 0.174970
H40   H     H_    0.984204 0.149999 0.811719 0.127877
H41   H     H_    0.977866 0.160894 0.684127 0.133442
O1    O     O_R   0.507380 0.255700 0.581440 -0.525661
O2    O     O_R   0.837170 0.593410 0.915250 -0.527331
O3    O     O_R   0.065200 0.635530 0.931570 -0.494469
O4    O     O_R   0.280320 0.527350 0.578930 -0.502333
O5    O     O_R   0.068260 0.828890 0.091840 -0.519181
O6    O     O_R   0.798870 0.057410 0.079340 -0.519860
O7    O     O_R   0.584930 0.080350 0.076780 -0.516172
O8    O     O_R   0.626960 0.809650 0.067060 -0.504634
O9    O     O_R   0.816040 0.596610 0.076510 -0.525670
O10   O     O_R   0.045610 0.638500 0.081060 -0.510742
O11   O     O_3   0.833640 0.833710 0.001100 -0.266036
O12   O     O_R   0.524480 0.695810 0.424040 -0.497302
O13   O     O_R   0.260510 0.739590 0.584590 -0.528625
O14   O     O_R   0.532300 0.695080 0.573820 -0.502757
O15   O     O_R   0.744840 0.503500 0.576370 -0.526642
O16   O     O_R   0.699120 0.276560 0.571960 -0.494937
O17   O     O_R   0.498940 0.256500 0.419860 -0.483753
O18   O     O_R   0.272500 0.528080 0.429150 -0.528245
O19   O     O_R   0.252060 0.740380 0.423010 -0.525416
O20   O     O_R   0.736390 0.504290 0.414790 -0.539487
O21   O     O_R   0.691300 0.277290 0.422170 -0.490474
O22   O     O_3   0.499990 0.499990 0.499980 -0.283484
O23   O     O_R   0.089400 0.825690 0.930570 -0.527472
O24   O     O_R   0.818460 0.054440 0.929850 -0.500691
O25   O     O_R   0.606060 0.077150 0.915510 -0.534841
O26   O     O_R   0.646550 0.806680 0.917570 -0.509070

loop_
_geom_bond_atom_site_label_1
_geom_bond_atom_site_label_2
_ccdc_geom_bond_type
C2    H37   S    
C39   C46   A    
C20   C25   S    
C10   C17   A    
C1    C17   S    
C24   H13   S    
Cr4   O6    S    
Cr1   O22   S    
C18   C19   A    
C21   H9    S    
C48   O26   A    
Cr4   O24   S    
C54   H1    S    
C23   C54   S    
C14   H5    S    
C1    O4    A    
C42   H22   S    
Cr5   O8    S    
C28   C46   S    
C15   H7    S    
C9    C14   S    
C33   H19   S    
C37   C38   A    
C27   C50   S    
C12   C56   S    
C19   C24   S    
C14   C15   S    
C15   H8    S    
C53   O5    A    
C13   H4    S    
Cr2   O22   S    
C12   H31   S    
C56   H12   S    
C6    C60   S    
C57   H29   S    
C43   H26   S    
C16   O16   A    
Cr4   O23   S    
Cr5   O26   S    
C18   C51   S    
Cr3   O20   S    
C5    H40   S    
C12   H36   S    
C8    C9    A    
C7    C60   A    
C36   C52   S    
C51   O9    A    
C20   C26   A    
C58   C59   A    
C25   H15   S    
C28   O18   A    
C45   C57   S    
C40   O20   A    
C44   H27   S    
Cr2   O13   S    
C51   O8    A    
C35   H20   S    
C5    H39   S    
C39   C44   S    
C45   H34   S    
C50   O6    A    
Cr5   O7    S    
C29   C33   S    
C24   H11   S    
C5    C59   S    
C47   O25   A    
C2    C7    A    
C9    C10   A    
C38   C39   A    
Cr1   O18   S    
C24   C25   S    
Cr3   O16   S    
C4    O14   A    
C50   O7    A    
C30   C36   A    
C12   C23   S    
C59   C60   A    
C33   H18   S    
C18   C22   A    
C8    C13   A    
Cr5   O25   S    
C57   H23   S    
C10   C15   S    
C26   C40   S    
Cr6   O2    S    
C37   C53   S    
C54   C55   S    
Cr4   O11   S    
Cr1   O4    S    
C31   C36   A    
C22   H10   S    
Cr6   O9    S    
C38   C43   S    
C43   H24   S    
C52   O17   A    
Cr6   O3    S    
C14   H6    S    
C45   H30   S    
C11   C13   A    
C27   C32   A    
C25   H14   S    
Cr5   O11   S    
C28   O19   A    
C52   O21   A    
C41   C42   A    
C2    C3    A    
C44   H28   S    
Cr2   O14   S    
C43   C44   S    
C47   C58   S    
C1    O13   A    
C23   C48   S    
C31   H16   S    
C34   C55   S    
C30   C35   S    
Cr4   O5    S    
C21   C22   A    
C8    C49   S    
Cr3   O22   S    
C16   O1    A    
C6    H2    S    
Cr1   O17   S    
C5    C6    S    
Cr3   O21   S    
Cr3   O15   S    
C3    H38   S    
C4    O15   A    
C7    C16   S    
C34   C56   S    
C21   C26   A    
C31   C32   A    
C53   O10   A    
C55   H35   S    
C37   C42   A    
Cr2   O12   S    
C29   C30   A    
Cr1   O1    S    
C4    C34   S    
C3    C58   A    
C27   C29   A    
C49   O3    A    
C33   C35   S    
C41   C46   A    
C40   O12   A    
Cr6   O10   S    
C11   H33   S    
C54   H3    S    
C49   O23   A    
C32   H17   S    
C55   H25   S    
C41   H21   S    
C19   C20   A    
C23   C57   S    
C11   C17   A    
C6    H41   S    
C47   O24   A    
C34   C45   S    
Cr6   O11   S    
Cr2   O19   S    
Br1   C35   S    
C48   O2    A    
C56   H32   S    
