data_mof_unit_6002.cif
_audit_creation_date              2012-12-10T18:05:43-0500
_audit_creation_method            fapswitch 2.2
_symmetry_space_group_name_H-M    P1
_symmetry_Int_Tables_number       1
_space_group_crystal_system       triclinic
_cell_length_a                    10.918069
_cell_length_b                    10.826236
_cell_length_c                    9.584218
_cell_angle_alpha                 90.023414
_cell_angle_beta                  90.836504
_cell_angle_gamma                 90.318559
_cell_volume                      1132.73144349

loop_
_atom_site_label
_atom_site_type_symbol
_atom_type_description
_atom_site_fract_x
_atom_site_fract_y
_atom_site_fract_z
_atom_type_partial_charge
C1    C     C_R   0.499910 0.262278 0.499937 0.804732
C2    C     C_R   0.499816 0.737706 0.500045 0.786785
C3    C     C_R   0.872231 0.501481 0.504072 -0.095475
C4    C     C_R   0.128696 0.505517 0.495976 -0.088497
C5    C     C_R   0.942024 0.508670 0.628998 0.014042
C6    C     C_R   0.059285 0.508557 0.370684 0.013892
C7    C     C_R   0.495316 0.063758 0.373184 -0.138778
C8    C     C_R   0.503609 0.936178 0.626754 -0.156691
C9    C     C_R   0.495097 0.935985 0.373226 -0.153819
C10   C     C_R   0.503763 0.063942 0.626709 -0.164518
C11   C     C_R   0.499463 0.871648 0.500013 -0.040101
C12   C     C_R   0.499691 0.128300 0.499928 -0.038587
C13   C     C_R   0.476178 0.394390 0.073504 0.074361
C14   C     C_R   0.520865 0.606207 0.926412 0.001973
C15   C     C_R   0.476483 0.394354 0.925557 -0.010025
C16   C     C_R   0.519644 0.606388 0.074325 -0.013251
C17   C     C_R   0.262462 0.502602 0.498600 0.798980
C18   C     C_R   0.737882 0.500551 0.501412 0.807466
C19   C     C_R   0.205637 0.679814 0.073182 0.418944
C20   C     C_R   0.815195 0.452076 0.986627 0.409270
C21   C     C_R   0.154898 0.654011 0.202966 -0.149982
C22   C     C_R   0.860428 0.430349 0.853426 -0.148867
C23   C     C_R   0.112777 0.534347 0.233293 0.066157
C24   C     C_R   0.889256 0.530096 0.766722 0.073724
C25   C     C_R   0.120302 0.441157 0.132320 -0.108821
C26   C     C_R   0.874921 0.651523 0.814325 -0.114361
C27   C     C_R   0.171719 0.467096 0.002958 -0.226364
C28   C     C_R   0.830653 0.673123 0.947675 -0.207225
C29   C     C_R   0.214105 0.586329 0.973388 -0.162046
C30   C     C_R   0.800555 0.573740 0.033408 -0.189867
C31   C     C_R   0.932918 0.499007 0.376830 -0.195123
C32   C     C_R   0.068549 0.505168 0.623325 -0.227278
Cu1   Cu    Cu3+1 0.500000 0.500020 0.640660 0.955032
Cu2   Cu    Cu3+1 0.500000 0.499980 0.359340 0.979493
H1    H     H_    0.254769 0.606113 0.873626 0.175493
H2    H     H_    0.763098 0.592514 0.134703 0.159999
H3    H     H_    0.456623 0.309147 0.871056 0.126023
H4    H     H_    0.537561 0.692073 0.128667 0.135432
H5    H     H_    0.148853 0.726550 0.280438 0.149401
H6    H     H_    0.872988 0.336484 0.817372 0.154344
H7    H     H_    0.087582 0.348686 0.154350 0.170502
H8    H     H_    0.898563 0.729036 0.748354 0.142800
H9    H     H_    0.179374 0.394460 0.926052 0.154109
H10   H     H_    0.818731 0.766809 0.984287 0.161505
H11   H     H_    0.882009 0.494884 0.280753 0.196078
H12   H     H_    0.120089 0.506623 0.719902 0.163341
H13   H     H_    0.491968 0.111625 0.274028 0.163256
H14   H     H_    0.506957 0.888317 0.725917 0.161193
H15   H     H_    0.491437 0.887957 0.274101 0.173651
H16   H     H_    0.507320 0.111958 0.725843 0.156511
H17   H     H_    0.456304 0.309178 0.127242 0.126117
H18   H     H_    0.539572 0.691716 0.872758 0.138061
N1    N     N_R   0.500030 0.500030 0.852070 -0.175590
N2    N     N_R   0.499970 0.499970 0.147930 -0.162238
O1    O     O_R   0.499990 0.319660 0.618740 -0.597106
O2    O     O_R   0.500010 0.680340 0.381260 -0.598763
O3    O     O_R   0.499990 0.319630 0.381170 -0.579636
O4    O     O_R   0.500010 0.680370 0.618830 -0.596650
O5    O     O_R   0.319650 0.500020 0.618780 -0.595375
O6    O     O_R   0.680350 0.499980 0.381220 -0.564059
O7    O     O_R   0.319640 0.500000 0.381210 -0.571384
O8    O     O_R   0.680360 0.500000 0.618790 -0.569832
Cl1   Cl    Cl    0.260283 0.828761 0.036302 -0.692586
Cl2   Cl    Cl    0.777190 0.326368 0.093455 -0.679771

loop_
_geom_bond_atom_site_label_1
_geom_bond_atom_site_label_2
_ccdc_geom_bond_type
Cu1   O1    S    
Cu2   O3    S    
C3    C31   A    
C16   H4    S    
C8    H14   S    
C20   Cl2   S    
Cu1   O4    S    
C1    O3    A    
C27   C29   A    
C29   H1    S    
C26   C28   A    
C21   H5    S    
C30   H2    S    
Cu2   O2    S    
C5    C32   A    
C22   H6    S    
C14   N1    A    
C2    O4    A    
Cu1   Cu2   S    
C1    O1    A    
Cu1   O5    S    
C10   H16   S    
C2    O2    A    
C20   C30   A    
Cu2   O6    S    
C9    C11   A    
C4    C32   A    
C1    C12   S    
C10   C12   A    
C17   O5    A    
C8    C11   A    
C2    C11   S    
C15   N1    A    
C22   C24   A    
C28   C30   A    
C19   C21   A    
C20   C22   A    
Cu2   N2    S    
C14   C16   A    
C13   C15   A    
C21   C23   A    
Cu1   N1    S    
C7    C12   A    
C16   N2    A    
C4    C6    A    
C25   C27   A    
C4    C17   S    
C25   H7    S    
C19   C29   A    
C27   H9    S    
C23   C25   A    
C9    H15   S    
C13   H17   S    
C26   H8    S    
C3    C18   S    
C8    C10   A    
C13   N2    A    
C31   H11   S    
C15   H3    S    
C18   O6    A    
C7    C9    A    
C18   O8    A    
C5    C24   S    
C6    C31   A    
C17   O7    A    
C6    C23   S    
C32   H12   S    
C28   H10   S    
Cu2   O7    S    
C14   H18   S    
C24   C26   A    
C19   Cl1   S    
Cu1   O8    S    
C3    C5    A    
C7    H13   S    
