data_mof_unit_62014.cif
_audit_creation_date              2012-12-10T17:46:12-0500
_audit_creation_method            fapswitch 2.2
_symmetry_space_group_name_H-M    P1
_symmetry_Int_Tables_number       1
_space_group_crystal_system       triclinic
_cell_length_a                    37.331963
_cell_length_b                    30.385703
_cell_length_c                    21.734783
_cell_angle_alpha                 89.999148
_cell_angle_beta                  54.464474
_cell_angle_gamma                 89.999426
_cell_volume                      20063.1561717

loop_
_atom_site_label
_atom_site_type_symbol
_atom_type_description
_atom_site_fract_x
_atom_site_fract_y
_atom_site_fract_z
_atom_type_partial_charge
C1    C     C_R   0.085097 0.499967 0.414959 0.784992
C2    C     C_R   0.914903 0.499967 0.585042 0.784986
C3    C     C_R   0.585097 0.999967 0.414957 0.785045
C4    C     C_R   0.414903 0.999967 0.585044 0.785040
C5    C     C_R   0.999662 0.499224 0.815681 -0.082875
C6    C     C_R   0.000337 0.499226 0.184313 -0.082670
C7    C     C_R   0.499666 0.999227 0.815682 -0.083894
C8    C     C_R   0.500331 0.999230 0.184312 -0.083626
C9    C     C_R   0.021379 0.531131 0.760090 0.042155
C10   C     C_R   0.978769 0.531234 0.239752 0.041986
C11   C     C_R   0.521256 0.031221 0.760221 0.041953
C12   C     C_R   0.478933 0.031352 0.239577 0.041746
C13   C     C_3   0.048081 0.572149 0.737897 -0.078625
C14   C     C_3   0.952253 0.572371 0.261750 -0.078822
C15   C     C_3   0.547793 0.072344 0.738199 -0.078456
C16   C     C_3   0.452647 0.072634 0.261336 -0.078718
C17   C     C_3   0.047377 0.572729 0.667365 -0.511029
C18   C     C_3   0.952955 0.572949 0.332284 -0.510682
C19   C     C_3   0.547093 0.072921 0.667662 -0.510691
C20   C     C_3   0.453342 0.073209 0.331877 -0.510234
C21   C     C_R   0.202587 0.462571 0.278115 -0.165800
C22   C     C_R   0.797413 0.462569 0.721882 -0.165808
C23   C     C_R   0.702585 0.962579 0.278066 -0.165785
C24   C     C_R   0.297415 0.962575 0.721927 -0.165795
C25   C     C_R   0.156710 0.462418 0.324477 -0.181435
C26   C     C_R   0.843290 0.462416 0.675520 -0.181465
C27   C     C_R   0.656708 0.962427 0.324433 -0.181449
C28   C     C_R   0.343292 0.962423 0.675559 -0.181488
C29   C     C_R   0.133438 0.499957 0.366680 -0.027243
C30   C     C_R   0.866562 0.499957 0.633322 -0.027242
C31   C     C_R   0.633437 0.999956 0.366672 -0.027365
C32   C     C_R   0.366563 0.999956 0.633331 -0.027365
C33   C     C_R   0.156725 0.537501 0.362349 -0.180267
C34   C     C_R   0.843275 0.537503 0.637659 -0.180230
C35   C     C_R   0.656725 0.037492 0.362372 -0.180329
C36   C     C_R   0.343274 0.037495 0.637643 -0.180281
C37   C     C_R   0.202602 0.537388 0.316893 -0.164658
C38   C     C_R   0.797397 0.537389 0.683115 -0.164663
C39   C     C_R   0.702603 0.037377 0.316913 -0.164825
C40   C     C_R   0.297396 0.037380 0.683103 -0.164835
C41   C     C_R   0.225790 0.499994 0.274272 0.099969
C42   C     C_R   0.774210 0.499993 0.725730 0.099964
C43   C     C_R   0.725789 0.999992 0.274257 0.099783
C44   C     C_R   0.274211 0.999991 0.725746 0.099778
C45   C     C_R   0.999832 0.499944 0.618933 0.806033
C46   C     C_R   0.000168 0.499945 0.381064 0.806047
C47   C     C_R   0.499835 0.999944 0.618933 0.806058
C48   C     C_R   0.500166 0.999945 0.381064 0.806075
C49   C     C_R   0.297427 0.513357 0.255131 -0.165633
C50   C     C_R   0.702573 0.513359 0.744870 -0.165634
C51   C     C_R   0.797423 0.013305 0.255148 -0.165802
C52   C     C_R   0.202577 0.013312 0.744856 -0.165807
C53   C     C_R   0.343302 0.513042 0.209404 -0.181177
C54   C     C_R   0.656698 0.513044 0.790597 -0.181182
C55   C     C_R   0.843298 0.012990 0.209425 -0.179700
C56   C     C_R   0.156702 0.012996 0.790578 -0.179706
C57   C     C_R   0.366538 0.500031 0.133409 -0.029273
C58   C     C_R   0.633462 0.500030 0.866591 -0.029268
C59   C     C_R   0.866536 0.000026 0.133407 -0.030092
C60   C     C_R   0.133464 0.000025 0.866594 -0.030085
C61   C     C_R   0.343188 0.487029 0.104018 -0.179563
C62   C     C_R   0.656811 0.487025 0.895981 -0.179561
C63   C     C_R   0.843188 0.987069 0.103990 -0.181007
C64   C     C_R   0.156811 0.987061 0.896008 -0.181008
C65   C     C_R   0.297308 0.486700 0.150109 -0.166532
C66   C     C_R   0.702692 0.486695 0.849892 -0.166535
C67   C     C_R   0.797308 0.986740 0.150076 -0.166677
C68   C     C_R   0.202691 0.986731 0.849923 -0.166682
C69   C     C_R   0.274173 0.500019 0.225835 0.099413
C70   C     C_R   0.725827 0.500018 0.774166 0.099414
C71   C     C_R   0.774171 0.000015 0.225825 0.099174
C72   C     C_R   0.225829 0.000014 0.774178 0.099177
C73   C     C_R   0.000000 0.633382 0.000007 -0.014889
C74   C     C_R   0.500001 0.133381 0.000010 -0.014928
C75   C     C_R   0.000001 0.725515 0.000011 0.102442
C76   C     C_R   0.500001 0.225514 0.000015 0.102430
C77   C     C_R   0.500004 0.725751 0.000000 0.100442
C78   C     C_R   0.000000 0.225762 0.999998 0.100449
C79   C     C_R   0.000000 0.414807 1.000000 0.775938
C80   C     C_R   0.500000 0.914805 0.999999 0.775921
C81   C     C_R   0.039401 0.656692 0.951432 -0.148820
C82   C     C_R   0.960601 0.656692 0.048588 -0.149263
C83   C     C_R   0.539390 0.156690 0.951355 -0.148785
C84   C     C_R   0.460612 0.156690 0.048673 -0.149377
C85   C     C_R   0.999925 0.500012 0.881482 0.797919
C86   C     C_R   0.000075 0.500013 0.118516 0.797887
C87   C     C_R   0.499925 0.000014 0.881483 0.797910
C88   C     C_R   0.500074 0.000017 0.118514 0.797872
C89   C     C_R   0.000000 0.585029 0.000002 0.791493
C90   C     C_R   0.500000 0.085028 0.000003 0.791578
C91   C     C_R   0.500000 0.366419 0.000004 -0.061461
C92   C     C_R   1.000000 0.866420 0.000003 -0.061450
C93   C     C_R   0.500000 0.414866 0.000001 0.807290
C94   C     C_R   1.000000 0.914866 0.000001 0.807400
C95   C     C_R   0.414897 0.500001 0.085073 0.787602
C96   C     C_R   0.585103 0.500001 0.914926 0.787601
C97   C     C_R   0.914896 0.999999 0.085073 0.787720
C98   C     C_R   0.085103 0.999999 0.914927 0.787718
C99   C     C_R   0.494790 0.343156 0.060497 -0.222585
C100  C     C_R   0.505210 0.343153 0.939514 -0.222590
C101  C     C_R   0.994754 0.843156 0.060525 -0.222606
C102  C     C_R   0.005246 0.843154 0.939484 -0.222610
C103  C     C_R   0.500001 0.585063 0.999999 0.786737
C104  C     C_R   0.000000 0.085065 1.000000 0.786855
C105  C     C_R   0.037488 0.297323 0.981697 -0.167619
C106  C     C_R   0.962512 0.297323 0.018301 -0.167624
C107  C     C_R   0.462438 0.797311 0.056322 -0.168277
C108  C     C_R   0.537569 0.797313 0.943680 -0.168281
C109  C     C_R   0.037621 0.343191 0.981106 -0.182610
C110  C     C_R   0.962379 0.343192 0.018892 -0.182598
C111  C     C_R   0.462306 0.843180 0.055994 -0.182296
C112  C     C_R   0.537698 0.843181 0.944004 -0.182249
C113  C     C_R   0.000000 0.366471 1.000000 -0.025630
C114  C     C_R   0.500001 0.866463 0.999999 -0.029485
C115  C     C_R   0.494643 0.297214 0.060972 -0.008957
C116  C     C_R   0.505358 0.297210 0.939046 -0.008970
C117  C     C_R   0.994606 0.797214 0.061000 -0.008946
C118  C     C_R   0.005395 0.797211 0.939014 -0.008955
C119  C     C_R   0.000000 0.274133 0.999998 0.100345
C120  C     C_R   0.500004 0.774123 0.000002 0.099596
C121  C     C_R   0.513651 0.702563 0.933963 -0.167548
C122  C     C_R   0.486357 0.702561 0.066037 -0.167564
C123  C     C_R   0.986576 0.202573 0.960875 -0.167557
C124  C     C_R   0.013425 0.202572 0.039121 -0.167565
C125  C     C_R   0.513321 0.656695 0.934104 -0.181675
C126  C     C_R   0.486684 0.656692 0.065894 -0.181666
C127  C     C_R   0.986902 0.156704 0.960367 -0.181536
C128  C     C_R   0.013098 0.156703 0.039630 -0.181532
C129  C     C_R   0.500002 0.633409 0.999999 -0.028031
C130  C     C_R   0.000000 0.133415 0.999999 -0.029525
C131  C     C_R   0.500001 0.273915 0.000011 -0.013379
C132  C     C_R   0.000001 0.773916 0.000008 -0.013367
C133  C     C_R   0.039342 0.702533 0.951333 -0.130709
C134  C     C_R   0.960660 0.702533 0.048690 -0.130829
C135  C     C_R   0.539331 0.202531 0.951257 -0.130677
C136  C     C_R   0.460672 0.202531 0.048774 -0.130840
C137  C     C_R   0.020382 0.531800 0.698895 0.088003
C138  C     C_R   0.979765 0.531896 0.300948 0.088080
C139  C     C_R   0.520261 0.031883 0.699022 0.087916
C140  C     C_R   0.479925 0.032006 0.300779 0.088014
C141  C     C_R   0.999120 0.499588 0.686052 -0.074208
C142  C     C_R   0.000879 0.499588 0.313942 -0.074390
C143  C     C_R   0.499127 0.999587 0.686050 -0.074548
C144  C     C_R   0.500870 0.999587 0.313945 -0.074780
C145  C     C_R   0.977090 0.466019 0.740850 -0.201710
C146  C     C_R   0.022759 0.465920 0.259294 -0.201642
C147  C     C_R   0.477229 0.965932 0.740718 -0.201951
C148  C     C_R   0.522574 0.965806 0.259468 -0.201864
C149  C     C_R   0.976777 0.466251 0.806027 -0.195105
C150  C     C_R   0.023070 0.466149 0.194118 -0.195178
C151  C     C_R   0.476915 0.966163 0.805895 -0.195651
C152  C     C_R   0.522886 0.966032 0.194293 -0.195756
Cu1   Cu    Cu3+1 1.000000 0.544020 0.500000 0.953911
Cu2   Cu    Cu3+1 0.500000 0.044020 0.500000 0.953898
Cu3   Cu    Cu3+1 1.000000 0.455930 0.500000 0.946242
Cu4   Cu    Cu3+1 0.500000 0.955930 0.500000 0.945890
Cu5   Cu    Cu3+1 0.955930 0.499910 0.044070 0.974154
Cu6   Cu    Cu3+1 0.044070 0.499910 0.955930 0.974233
Cu7   Cu    Cu3+1 0.455930 0.999910 0.044070 0.973765
Cu8   Cu    Cu3+1 0.544070 0.999910 0.955930 0.973875
Cu9   Cu    Cu3+1 0.499980 0.499990 0.061820 0.947764
Cu10  Cu    Cu3+1 0.500020 0.499990 0.938180 0.947765
Cu11  Cu    Cu3+1 0.999980 0.999990 0.061820 0.947513
Cu12  Cu    Cu3+1 0.000020 0.999990 0.938180 0.947512
H1    H     H_    0.959727 0.440169 0.733929 0.155516
H2    H     H_    0.040005 0.439990 0.266329 0.155644
H3    H     H_    0.459967 0.940012 0.733698 0.156225
H4    H     H_    0.539686 0.939784 0.266632 0.156388
H5    H     H_    0.220029 0.566650 0.314232 0.132400
H6    H     H_    0.779971 0.566653 0.685780 0.132402
H7    H     H_    0.720031 0.066631 0.314278 0.132665
H8    H     H_    0.279968 0.066637 0.685746 0.132667
H9    H     H_    0.360565 0.523359 0.233314 0.151221
H10   H     H_    0.639435 0.523364 0.766688 0.151217
H11   H     H_    0.860558 0.023269 0.233359 0.152689
H12   H     H_    0.139442 0.023281 0.766646 0.152682
H13   H     H_    0.360364 0.476712 0.045657 0.152110
H14   H     H_    0.639635 0.476706 0.954342 0.152108
H15   H     H_    0.860366 0.976789 0.045611 0.152075
H16   H     H_    0.139633 0.976775 0.954385 0.152070
H17   H     H_    0.279837 0.476557 0.126481 0.132046
H18   H     H_    0.720162 0.476550 0.873519 0.132041
H19   H     H_    0.779838 0.976632 0.126429 0.132188
H20   H     H_    0.220161 0.976618 0.873568 0.132180
H21   H     H_    0.066804 0.279902 0.966990 0.131640
H22   H     H_    0.933196 0.279903 0.033006 0.131636
H23   H     H_    0.433063 0.779890 0.099970 0.132242
H24   H     H_    0.566945 0.779893 0.900034 0.132249
H25   H     H_    0.066979 0.360419 0.966601 0.150371
H26   H     H_    0.933021 0.360420 0.033398 0.150358
H27   H     H_    0.432882 0.860401 0.099929 0.153355
H28   H     H_    0.567120 0.860404 0.900067 0.153374
H29   H     H_    0.069901 0.720151 0.913537 0.133524
H30   H     H_    0.930101 0.720151 0.086488 0.133559
H31   H     H_    0.569882 0.220149 0.913398 0.133567
H32   H     H_    0.430121 0.220148 0.086634 0.133613
H33   H     H_    0.524042 0.719985 0.882602 0.131353
H34   H     H_    0.475965 0.719980 0.117400 0.131344
H35   H     H_    0.976360 0.219994 0.929999 0.131152
H36   H     H_    0.023640 0.219992 0.069997 0.131146
H37   H     H_    0.523886 0.639475 0.882502 0.150261
H38   H     H_    0.476119 0.639470 0.117495 0.150263
H39   H     H_    0.976514 0.139487 0.929593 0.151494
H40   H     H_    0.023486 0.139486 0.070404 0.151493
H41   H     H_    0.028389 0.600364 0.665761 0.207263
H42   H     H_    0.972066 0.600498 0.333764 0.207225
H43   H     H_    0.527996 0.100480 0.666165 0.207268
H44   H     H_    0.472604 0.100653 0.333210 0.207215
H45   H     H_    0.079777 0.566351 0.612880 0.189054
H46   H     H_    0.920524 0.566719 0.386795 0.189076
H47   H     H_    0.579520 0.066673 0.613156 0.189018
H48   H     H_    0.420875 0.067161 0.386417 0.189050
H49   H     H_    0.220003 0.433321 0.245919 0.131823
H50   H     H_    0.779997 0.433318 0.754074 0.131823
H51   H     H_    0.720000 0.933336 0.245842 0.131990
H52   H     H_    0.280000 0.933330 0.754142 0.131989
H53   H     H_    0.139469 0.433118 0.326707 0.149612
H54   H     H_    0.860531 0.433115 0.673286 0.149608
H55   H     H_    0.639465 0.933134 0.326639 0.149774
H56   H     H_    0.360535 0.933128 0.673345 0.149769
H57   H     H_    0.139495 0.566786 0.394624 0.150984
H58   H     H_    0.860504 0.566789 0.605388 0.150986
H59   H     H_    0.639497 0.066769 0.394674 0.151043
H60   H     H_    0.360502 0.066775 0.605350 0.151048
O1    O     O_R   0.064270 0.537170 0.435740 -0.587883
O2    O     O_R   0.935730 0.537170 0.564260 -0.587881
O3    O     O_R   0.564270 0.037170 0.435740 -0.587851
O4    O     O_R   0.435730 0.037170 0.564260 -0.587851
O5    O     O_R   0.435710 0.499990 0.116480 -0.588406
O6    O     O_R   0.564290 0.499990 0.883520 -0.588406
O7    O     O_R   0.935710 0.999990 0.116480 -0.586471
O8    O     O_R   0.064290 0.999990 0.883520 -0.586470
O9    O     O_R   0.435700 0.499990 0.012100 -0.586195
O10   O     O_R   0.564300 0.499990 0.987900 -0.586196
O11   O     O_R   0.935700 0.999990 0.012100 -0.588257
O12   O     O_R   0.064300 0.999990 0.987900 -0.588257
O13   O     O_R   0.500010 0.564260 0.052180 -0.587559
O14   O     O_R   0.499990 0.564260 0.947820 -0.587556
O15   O     O_R   0.000010 0.064260 0.052180 -0.587710
O16   O     O_R   0.999990 0.064260 0.947820 -0.587710
O17   O     O_R   0.064230 0.462780 0.435770 -0.589054
O18   O     O_R   0.935770 0.462780 0.564230 -0.589059
O19   O     O_R   0.564230 0.962780 0.435770 -0.589100
O20   O     O_R   0.435770 0.962780 0.564230 -0.589109
O21   O     O_R   0.000000 0.537170 0.590170 -0.581191
O22   O     O_R   0.000000 0.537170 0.409830 -0.581207
O23   O     O_R   0.500000 0.037170 0.590170 -0.581133
O24   O     O_R   0.500000 0.037170 0.409830 -0.581154
O25   O     O_R   0.999960 0.462780 0.590210 -0.588988
O26   O     O_R   0.000040 0.462780 0.409790 -0.589032
O27   O     O_R   0.499960 0.962780 0.590210 -0.589167
O28   O     O_R   0.500040 0.962780 0.409790 -0.589221
O29   O     O_R   0.962790 0.435650 0.037200 -0.589370
O30   O     O_R   0.037210 0.435650 0.962800 -0.589337
O31   O     O_R   0.462790 0.935650 0.037200 -0.589744
O32   O     O_R   0.537210 0.935650 0.962800 -0.589708
O33   O     O_R   0.962770 0.499920 0.947050 -0.583200
O34   O     O_R   0.037230 0.499920 0.052950 -0.583160
O35   O     O_R   0.462770 0.999920 0.947050 -0.580972
O36   O     O_R   0.537230 0.999920 0.052950 -0.580916
O37   O     O_R   0.037170 0.499970 0.872660 -0.577194
O38   O     O_R   0.962830 0.499970 0.127340 -0.577179
O39   O     O_R   0.537170 0.999970 0.872660 -0.579349
O40   O     O_R   0.462830 0.999970 0.127340 -0.579334
O41   O     O_R   0.962770 0.564180 0.037230 -0.586996
O42   O     O_R   0.037230 0.564180 0.962770 -0.586997
O43   O     O_R   0.462770 0.064180 0.037230 -0.586873
O44   O     O_R   0.537230 0.064180 0.962770 -0.586873
O45   O     O_R   0.499950 0.435720 0.052230 -0.588051
O46   O     O_R   0.500050 0.435720 0.947770 -0.588048
O47   O     O_R   0.999950 0.935720 0.052230 -0.588027
O48   O     O_R   0.000050 0.935720 0.947770 -0.588024
H61   H     H_    0.280054 0.523488 0.313630 0.133700
H62   H     H_    0.719946 0.523493 0.686372 0.133696
H63   H     H_    0.780047 0.023402 0.313665 0.134037
H64   H     H_    0.219953 0.023414 0.686342 0.134031
H65   H     H_    0.070193 0.639556 0.913207 0.154991
H66   H     H_    0.929808 0.639556 0.086813 0.155066
H67   H     H_    0.570173 0.139554 0.913065 0.155049
H68   H     H_    0.429829 0.139553 0.086961 0.155150
C153  C     C_1   0.489591 0.274586 0.124068 0.236007
N1    N     N_1   0.485544 0.256425 0.174567 -0.257415
C154  C     C_1   0.510411 0.274579 0.875953 0.235970
N2    N     N_1   0.514459 0.256415 0.825456 -0.257310
C155  C     C_1   0.989513 0.774585 0.124130 0.235964
N3    N     N_1   0.985433 0.756423 0.174655 -0.257423
C156  C     C_1   0.010488 0.774581 0.875887 0.235935
N4    N     N_1   0.014569 0.756417 0.825363 -0.257349
H69   H     H_    0.490707 0.360725 0.107614 0.161488
H70   H     H_    0.509293 0.360719 0.892395 0.161484
H71   H     H_    0.990642 0.860725 0.107666 0.161462
H72   H     H_    0.009358 0.860721 0.892341 0.161460
H73   H     H_    0.959323 0.440591 0.847991 0.144922
H74   H     H_    0.040405 0.440409 0.152273 0.144801
H75   H     H_    0.459565 0.940433 0.847755 0.147549
H76   H     H_    0.540084 0.940202 0.152584 0.147392
C157  C     C_1   0.024012 0.608649 0.790994 0.238811
N5    N     N_1   0.005055 0.637352 0.832794 -0.263504
C158  C     C_1   0.976488 0.608761 0.208486 0.238892
N6    N     N_1   0.995573 0.637378 0.166555 -0.263468
C159  C     C_1   0.523577 0.108748 0.791440 0.239214
N7    N     N_1   0.504505 0.137374 0.833353 -0.263532
C160  C     C_1   0.477086 0.108890 0.207872 0.239320
N8    N     N_1   0.496332 0.137399 0.165784 -0.263492
C161  C     C_1   0.091827 0.564709 0.721209 0.275514
N9    N     N_1   0.126250 0.558836 0.708128 -0.283349
C162  C     C_1   0.908476 0.565126 0.278460 0.275390
N10   N     N_1   0.874030 0.559407 0.291559 -0.283338
C163  C     C_1   0.591566 0.065076 0.721495 0.274866
N11   N     N_1   0.626008 0.059340 0.708400 -0.283839
C164  C     C_1   0.408834 0.065631 0.278070 0.274706
N12   N     N_1   0.374360 0.060104 0.291188 -0.283817

loop_
_geom_bond_atom_site_label_1
_geom_bond_atom_site_label_2
_ccdc_geom_bond_type
C111  H27   S    
Cu5   Cu6   S    
Cu6   O42   S    
C55   C59   A    
C26   H54   S    
C108  C120  A    
C101  H71   S    
C74   C83   A    
C47   O23   A    
C23   H51   S    
C159  N7    T    
C126  H38   S    
C61   H13   S    
C151  H75   S    
Cu1   O1    S    
C18   H46   S    
C83   H67   S    
C35   C39   A    
Cu10  O14   S    
C76   C131  S    
C97   O11   A    
C47   C143  S    
C5    C149  A    
C48   C144  S    
C89   O42   A    
C117  C132  A    
C142  C146  A    
C46   O26   A    
C100  H70   S    
C77   C122  A    
C146  C150  A    
C11   C15   S    
C12   C16   S    
Cu7   O40   S    
Cu8   O39   S    
C43   C71   S    
C91   C100  A    
C36   H60   S    
C141  C145  A    
C66   H18   S    
C49   H61   S    
C28   H56   S    
C49   C69   A    
Cu12  O11   S    
C51   C71   A    
C73   C81   A    
C25   C29   A    
C27   C31   A    
C150  H74   S    
C140  C144  A    
C28   C32   A    
C106  H22   S    
C52   H64   S    
C87   O35   A    
C30   C34   A    
C126  C129  A    
C110  H26   S    
C82   C134  A    
C6    C10   A    
C52   C72   A    
C160  N8    T    
C68   C72   A    
Cu1   O22   S    
C50   H62   S    
C92   C94   S    
C79   O29   A    
C3    C31   S    
C118  C156  S    
C4    C32   S    
C147  H3    S    
Cu9   O5    S    
C15   C163  S    
C19   H47   S    
C107  C120  A    
Cu11  O15   S    
C2    O2    A    
C41   C69   S    
C104  O16   A    
C68   H20   S    
Cu7   O35   S    
C80   O32   A    
C152  H76   S    
C108  H24   S    
Cu8   O44   S    
C57   C61   A    
C59   C63   A    
C60   C64   A    
Cu12  O8    S    
C54   H10   S    
C90   O43   A    
C50   C70   A    
C48   O24   A    
C74   C90   S    
C66   C70   A    
C49   C53   A    
C44   C72   S    
C51   C55   A    
C20   H48   S    
Cu3   O18   S    
C61   C65   A    
C134  H30   S    
C93   O45   A    
C19   C139  S    
Cu11  O47   S    
C116  C154  S    
C17   C137  S    
C10   C138  A    
C85   O33   A    
C86   O38   A    
C29   C33   A    
C14   C162  S    
C112  C114  A    
Cu3   O25   S    
C75   C134  A    
C23   C43   A    
C5    C9    A    
C56   H12   S    
C64   C68   A    
C123  H35   S    
C8    C152  A    
Cu5   O29   S    
C37   H5    S    
C74   C84   A    
C42   C70   S    
C9    C13   S    
Cu4   O20   S    
C45   O25   A    
Cu10  O9    S    
C139  C143  A    
Cu5   O33   S    
C98   O8    A    
C39   H7    S    
Cu11  O12   S    
C47   O27   A    
C5    C85   S    
C16   C164  S    
C82   H66   S    
C76   C135  A    
C62   C66   A    
C46   O22   A    
C10   C14   S    
Cu2   O4    S    
C8    C88   S    
C147  C151  A    
Cu6   O30   S    
C121  C125  A    
C125  C129  A    
C123  C127  A    
C8    C12   A    
C94   O48   A    
C98   O12   A    
C122  H34   S    
C78   C123  A    
C2    O18   A    
C67   H19   S    
C26   C30   A    
C79   C113  S    
C21   H49   S    
C117  C155  S    
C87   O39   A    
C75   C132  S    
C88   O40   A    
C21   C25   A    
C107  C111  A    
C24   C28   A    
C80   C114  S    
C32   C36   A    
C81   C133  A    
C92   C102  A    
C6    C86   S    
C51   H63   S    
C2    C30   S    
C17   H41   S    
C24   H52   S    
C103  O14   A    
C84   H68   S    
C89   O41   A    
C37   C41   A    
C77   C121  A    
C40   C44   A    
Cu2   O23   S    
C133  H29   S    
C154  N2    T    
C91   C99   A    
C4    O20   A    
C33   H57   S    
C58   C62   A    
C27   H55   S    
C106  C119  A    
C25   H53   S    
C100  C116  A    
Cu7   O31   S    
C77   C120  S    
Cu9   Cu10  S    
C46   C142  S    
C145  H1    S    
C115  C153  S    
C15   C19   S    
C125  H37   S    
C50   C54   A    
C13   C161  S    
C136  H32   S    
C17   H45   S    
C99   C115  A    
Cu9   O13   S    
C15   C159  S    
C149  H73   S    
C128  H40   S    
C18   C138  S    
C11   C139  A    
C86   O34   A    
C105  C109  A    
C9    C137  A    
C7    C87   S    
Cu1   O21   S    
C12   C140  A    
Cu1   Cu3   S    
Cu2   Cu4   S    
C124  C128  A    
Cu5   O38   S    
C104  C130  S    
C45   C141  S    
C38   H6    S    
Cu4   O27   S    
C53   H9    S    
C162  N10   T    
C148  C152  A    
Cu1   O2    S    
C138  C142  A    
C45   O21   A    
C53   C57   A    
C115  C131  A    
Cu9   O45   S    
Cu6   O34   S    
C33   C37   A    
C108  C112  A    
C143  C147  A    
C158  N6    T    
C155  N3    T    
C112  H28   S    
Cu7   Cu8   S    
C103  C129  S    
Cu10  O6    S    
C92   C101  A    
C7    C151  A    
Cu3   O17   S    
C148  H4    S    
C31   C35   A    
C3    O3    A    
C73   C82   A    
C40   H8    S    
C102  H72   S    
C1    O1    A    
C137  C141  A    
C84   C136  A    
C95   O5    A    
C128  C130  A    
C121  H33   S    
C75   C133  A    
C13   C17   S    
Cu5   O41   S    
C124  H36   S    
C101  C117  A    
Cu8   O32   S    
C78   C119  S    
C73   C89   S    
C1    C29   S    
C65   C69   A    
C16   C160  S    
C79   O30   A    
C111  C114  A    
C67   C71   A    
C4    O4    A    
C88   O36   A    
C135  H31   S    
C6    C150  A    
C56   C60   A    
C161  N9    T    
C22   C26   A    
C60   C98   S    
C96   O10   A    
C105  C119  A    
C127  H39   S    
C145  C149  A    
C104  O15   A    
C164  N12   T    
C48   O28   A    
C80   O31   A    
C157  N5    T    
C14   C18   S    
C90   O44   A    
Cu11  Cu12  S    
C144  C148  A    
C76   C136  A    
C65   H17   S    
C163  N11   T    
C7    C11   A    
C81   H65   S    
C38   C42   A    
Cu11  O7    S    
C64   H16   S    
C91   C93   S    
Cu7   O43   S    
C107  H23   S    
Cu8   O36   S    
C63   H15   S    
C105  H21   S    
C58   C96   S    
Cu9   O10   S    
C156  N4    T    
C109  H25   S    
Cu12  O16   S    
C23   C27   A    
C78   C124  A    
C83   C135  A    
C102  C118  A    
C16   C20   S    
C146  H2    S    
C97   O7    A    
C19   H43   S    
C13   C157  S    
Cu3   O26   S    
C63   C67   A    
C93   O46   A    
C36   C40   A    
C118  C132  A    
C39   C43   A    
C153  N1    T    
C14   C158  S    
C122  C126  A    
Cu4   O19   S    
C35   H59   S    
C103  O13   A    
Cu6   O37   S    
C3    O19   A    
C110  C113  A    
C55   H11   S    
C1    O17   A    
Cu2   O24   S    
C96   O6    A    
C22   H50   S    
Cu4   O28   S    
C59   C97   S    
C21   C41   A    
C20   H44   S    
C20   C140  S    
C54   C58   A    
Cu10  O46   S    
C34   C38   A    
C85   O37   A    
C62   H14   S    
C109  C113  A    
Cu2   O3    S    
C18   H42   S    
C127  C130  A    
C22   C42   A    
C116  C131  A    
C24   C44   A    
C94   O47   A    
Cu12  O48   S    
C34   H58   S    
C106  C110  A    
C57   C95   S    
C95   O9    A    
C99   H69   S    
C52   C56   A    
