data_mof_unit_39072.cif
_audit_creation_date              2012-12-10T17:42:43-0500
_audit_creation_method            fapswitch 2.2
_symmetry_space_group_name_H-M    P1
_symmetry_Int_Tables_number       1
_space_group_crystal_system       triclinic
_cell_length_a                    10.008917
_cell_length_b                    10.728335
_cell_length_c                    13.008632
_cell_angle_alpha                 92.678649
_cell_angle_beta                  72.780866
_cell_angle_gamma                 90.983564
_cell_volume                      1332.78049222

loop_
_atom_site_label
_atom_site_type_symbol
_atom_type_description
_atom_site_fract_x
_atom_site_fract_y
_atom_site_fract_z
_atom_type_partial_charge
C1    C     C_R   0.505595 0.737619 0.486695 0.883057
C2    C     C_R   0.387810 0.421108 0.805488 -0.158567
C3    C     C_R   0.311283 0.867614 0.392251 -0.138132
C4    C     C_R   0.426307 0.471942 0.697299 0.911978
C5    C     C_R   0.192023 0.926121 0.384125 -0.104128
C6    C     C_R   0.155802 0.042826 0.434088 -0.168043
C7    C     C_R   0.245922 0.105534 0.482630 -0.196213
C8    C     C_R   0.379281 0.055838 0.475484 0.104990
C9    C     C_R   0.401790 0.929521 0.443583 0.090237
C10   C     C_R   0.512989 0.868809 0.466466 -0.130949
C11   C     C_R   0.622161 0.936951 0.486965 -0.202719
C12   C     C_R   0.445040 0.431604 0.973443 0.018712
C13   C     C_R   0.612724 0.063831 0.501342 -0.220173
C14   C     C_R   0.491527 0.124655 0.498471 -0.106700
C15   C     C_R   0.828221 0.705091 0.593780 0.253641
C16   C     C_R   0.496804 0.259511 0.502082 0.837597
C17   C     C_R   0.895874 0.818972 0.593098 -0.320833
C18   C     C_R   0.027618 0.819428 0.606035 -0.328028
C19   C     C_R   0.097863 0.705305 0.603360 0.570516
C20   C     C_R   0.053611 0.599212 0.550815 0.045217
C21   C     C_R   0.910245 0.599011 0.549163 0.049281
C22   C     C_R   0.944793 0.404677 0.454118 -0.126719
C23   C     C_R   0.487877 0.409618 0.860723 0.049671
C24   C     C_R   0.087415 0.405345 0.453178 -0.117306
C25   C     C_R   0.576238 0.505187 0.296721 0.892388
C26   C     C_R   0.796456 0.500341 0.008231 0.154877
C27   C     C_R   0.620409 0.510006 0.179874 -0.172670
C28   C     C_R   0.249561 0.391037 0.858652 -0.220431
C29   C     C_R   0.207270 0.384407 0.970214 -0.264333
C30   C     C_R   0.298993 0.424656 0.029823 0.518931
C31   C     C_3   0.213836 0.797869 0.722456 0.089696
C32   C     C_3   0.317724 0.769281 0.782395 -0.703288
C33   C     C_3   0.115061 0.502908 0.175025 0.117803
C34   C     C_R   0.550923 0.461507 0.022765 0.002757
C35   C     C_3   0.105608 0.607028 0.260484 -0.800685
C36   C     C_R   0.694467 0.454583 0.961646 0.107119
C37   C     C_R   0.731868 0.407305 0.855593 -0.169664
C38   C     C_R   0.629026 0.382291 0.806189 -0.141303
C39   C     C_R   0.520067 0.517180 0.125755 0.235920
C40   C     C_R   0.761269 0.516180 0.119887 -0.261181
H1    H     H_    0.840368 0.539918 0.158732 0.170655
H2    H     H_    0.840398 0.392846 0.809754 0.164856
H3    H     H_    0.154514 0.329723 0.411468 0.161885
H4    H     H_    0.173382 0.378613 0.814771 0.197317
H5    H     H_    0.099269 0.360871 0.010047 0.154382
H6    H     H_    0.661205 0.344849 0.723889 0.167411
H7    H     H_    0.713861 0.891803 0.494177 0.172801
H8    H     H_    0.115493 0.831178 0.782593 0.175037
H9    H     H_    0.261570 0.872598 0.666476 0.125197
H10   H     H_    0.336603 0.854008 0.828560 0.212975
H11   H     H_    0.278405 0.693413 0.838805 0.274692
H12   H     H_    0.331991 0.774103 0.357759 0.173570
H13   H     H_    0.417294 0.740241 0.722931 0.261561
H14   H     H_    0.037978 0.428702 0.209094 0.146457
H15   H     H_    0.084788 0.547113 0.109588 0.159415
H16   H     H_    0.175272 0.588523 0.310047 0.285110
H17   H     H_    0.996019 0.617097 0.312493 0.213084
H18   H     H_    0.136690 0.697103 0.221567 0.245989
H19   H     H_    0.122687 0.877536 0.345834 0.146155
H20   H     H_    0.056524 0.083853 0.437148 0.132399
H21   H     H_    0.204547 0.188708 0.529848 0.168850
H22   H     H_    0.700377 0.113791 0.516721 0.163295
H23   H     H_    0.905816 0.327156 0.414993 0.143076
H24   H     H_    0.836124 0.904392 0.615886 0.184092
H25   H     H_    0.064172 0.907766 0.630919 0.159617
I1    I     I_    0.689241 0.702112 0.751734 -0.334989
I2    I     I_    0.976857 0.590573 0.914889 -0.431548
I3    I     I_    0.444788 0.701507 0.130072 -0.371435
N1    N     N_R   0.856860 0.501200 0.500990 -0.113110
N2    N     N_R   0.142450 0.501280 0.501020 -0.117708
O1    O     O_R   0.385310 0.683220 0.500000 -0.594496
O2    O     O_3   0.251175 0.449653 0.141029 -0.617350
O3    O     O_R   0.614640 0.683250 0.500010 -0.616357
O4    O     O_R   0.328400 0.499950 0.653610 -0.534154
O5    O     O_R   0.557730 0.499970 0.653620 -0.598209
O6    O     O_R   0.385360 0.316750 0.499990 -0.643491
O7    O     O_R   0.614690 0.316780 0.500000 -0.636732
O8    O     O_R   0.442270 0.500030 0.346380 -0.597784
O9    O     O_R   0.671600 0.500050 0.346390 -0.621288
O10   O     O_3   0.188689 0.688931 0.664757 -0.539595
Zn1   Zn    Zn3+2 0.346880 0.499980 0.499990 0.981914
Zn2   Zn    Zn3+2 0.653120 0.500020 0.500010 0.944129

loop_
_geom_bond_atom_site_label_1
_geom_bond_atom_site_label_2
_ccdc_geom_bond_type
C33   H15   S    
C39   I3    S    
C32   H13   S    
C11   H7    S    
C19   C20   A    
C24   N2    A    
C7    C8    A    
C18   H25   S    
C12   C23   A    
C1    O1    A    
C35   H18   S    
C26   I2    S    
C36   C37   A    
C37   C38   A    
C18   C19   A    
C17   H24   S    
C5    C6    A    
C16   O7    A    
C37   H2    S    
N2    Zn1   S    
C7    H21   S    
C4    O5    A    
N1    Zn2   S    
C33   O2    S    
C22   H23   S    
C13   H22   S    
C27   C39   A    
C8    C9    A    
C14   C16   S    
C9    C10   A    
C22   N1    A    
C4    O4    A    
C25   O9    A    
C13   C14   A    
C20   N2    A    
C31   H9    S    
C5    H19   S    
C34   C39   A    
C6    H20   S    
C31   O10   S    
C15   I1    S    
C28   H4    S    
C25   O8    A    
C21   N1    A    
C2    C4    S    
C32   H11   S    
C29   C30   A    
C3    C9    A    
C31   C32   S    
C27   C40   A    
C17   C18   A    
C32   H10   S    
C26   C36   A    
C40   H1    S    
C31   H8    S    
C22   C24   A    
O4    Zn1   S    
C12   C34   A    
O3    Zn2   S    
C33   H14   S    
C15   C17   A    
C28   C29   A    
C8    C14   A    
C12   C30   A    
C35   H16   S    
C16   O6    A    
C1    C10   S    
C3    C5    A    
O6    Zn1   S    
O9    Zn2   S    
C30   O2    S    
C3    H12   S    
O5    Zn2   S    
C6    C7    A    
C25   C27   S    
C23   C38   A    
C35   H17   S    
C1    O3    A    
C11   C13   A    
O8    Zn1   S    
C26   C40   A    
O7    Zn2   S    
C33   C35   S    
C34   C36   A    
C19   O10   S    
C38   H6    S    
C10   C11   A    
C15   C21   A    
C20   C21   A    
C29   H5    S    
C2    C23   A    
C24   H3    S    
C2    C28   A    
O1    Zn1   S    
