data_mof_unit_16170.cif
_audit_creation_date              2012-12-11T15:42:51-0500
_audit_creation_method            fapswitch 2.2
_symmetry_space_group_name_H-M    P1
_symmetry_Int_Tables_number       1
_space_group_crystal_system       triclinic
_cell_length_a                    6.926764
_cell_length_b                    14.57091
_cell_length_c                    16.208941
_cell_angle_alpha                 90.472855
_cell_angle_beta                  89.949549
_cell_angle_gamma                 90.106385
_cell_volume                      1635.89719233

loop_
_atom_site_label
_atom_site_type_symbol
_atom_type_description
_atom_site_fract_x
_atom_site_fract_y
_atom_site_fract_z
_atom_type_partial_charge
O1    O     O_R   0.505810 0.583360 0.413880 -0.546887
O2    O     O_R   0.175870 0.595480 0.585520 -0.535565
O3    O     O_R   0.005540 0.416640 0.586120 -0.533287
C1    C     C_R   0.345372 0.616079 0.615950 0.681524
O4    O     O_R   0.176100 0.594390 0.414490 -0.551036
O5    O     O_R   0.005770 0.415540 0.413870 -0.515647
C2    C     C_R   0.345410 0.616434 0.385854 0.696286
O6    O     O_R   0.505580 0.584460 0.586130 -0.540650
O7    O     O_3   0.339190 0.441320 0.500000 -0.338600
V1    V     V_3+5 0.064350 0.510890 0.500000 1.511571
O8    O     O_R   0.676050 0.404520 0.414480 -0.532885
C3    C     C_R   0.845843 0.380252 0.387130 0.731665
O9    O     O_R   0.675830 0.405610 0.585510 -0.537557
C4    C     C_R   0.845403 0.381389 0.611732 0.746770
V2    V     V_3+5 0.564340 0.489110 0.500000 1.523268
O10   O     O_3   0.839370 0.558680 0.500000 -0.378610
C5    C     C_2   0.724637 0.209460 0.786115 -0.126126
C6    C     C_2   0.885125 0.187490 0.828418 -0.301853
H1    H     H_    0.589139 0.175497 0.800440 0.153634
H2    H     H_    0.017718 0.225653 0.818962 0.140802
C7    C     C_2   0.718477 0.284240 0.723941 -0.155127
C8    C     C_2   0.862380 0.304694 0.670555 -0.196758
H3    H     H_    0.584795 0.322941 0.720958 0.145272
C9    C     C_R   0.037832 0.195284 0.239297 -0.156135
H4    H     H_    0.168336 0.155588 0.230039 0.164372
C10   C     C_R   0.028067 0.256842 0.306093 0.376333
C11   C     C_R   0.858743 0.309696 0.319949 -0.123981
C12   C     C_R   0.700380 0.295751 0.266947 -0.159448
H5    H     H_    0.569020 0.334923 0.275275 0.167386
C13   C     C_R   0.710081 0.232435 0.201577 -0.142882
H6    H     H_    0.585244 0.223740 0.162062 0.130177
C14   C     C_R   0.879828 0.182324 0.186411 -0.114865
C15   C     C_R   0.201807 0.739481 0.706190 -0.128280
H7    H     H_    0.071059 0.736314 0.669697 0.139160
C16   C     C_R   0.211048 0.802521 0.771860 -0.141195
H8    H     H_    0.086967 0.845670 0.784124 0.123245
C17   C     C_R   0.379103 0.811064 0.820009 -0.053858
C18   C     C_R   0.536291 0.753872 0.801943 -0.192889
H9    H     H_    0.665892 0.758346 0.839293 0.123545
C19   C     C_R   0.527406 0.689168 0.737440 -0.027200
C20   C     C_R   0.359245 0.682129 0.687162 -0.088479
C21   C     C_R   0.199982 0.742774 0.301939 -0.184047
H10   H     H_    0.070431 0.738456 0.339236 0.157724
C22   C     C_R   0.208915 0.808219 0.239101 0.387620
C23   C     C_R   0.376631 0.815580 0.188788 -0.129823
C24   C     C_R   0.533864 0.757758 0.206116 -0.162040
H11   H     H_    0.664366 0.761139 0.169434 0.170694
C25   C     C_R   0.524650 0.693898 0.270217 -0.137408
H12   H     H_    0.648530 0.650455 0.281257 0.127004
C26   C     C_R   0.356796 0.685014 0.318386 -0.112229
O11   O     O_R   0.230120 0.912300 0.917180 -0.544881
O12   O     O_R   0.559740 0.902430 0.088770 -0.531792
O13   O     O_R   0.729930 0.081310 0.089370 -0.536900
C27   C     C_R   0.390143 0.881963 0.118952 0.753816
O14   O     O_R   0.559840 0.901330 0.917750 -0.548532
O15   O     O_R   0.730030 0.080210 0.917120 -0.544424
C28   C     C_R   0.390607 0.879256 0.888751 0.680239
O16   O     O_R   0.230020 0.913400 0.089430 -0.507394
O17   O     O_3   0.396460 0.055470 0.003290 -0.381777
V3    V     V_3+5 0.671360 0.985960 0.003250 1.472213
O18   O     O_R   0.059740 0.091300 0.917690 -0.548230
C29   C     C_R   0.890889 0.114451 0.890744 0.727364
O19   O     O_R   0.059640 0.092400 0.088720 -0.542535
C30   C     C_R   0.890556 0.114658 0.117462 0.762032
V4    V     V_3+5 0.171350 0.007820 0.003190 1.470081
O20   O     O_3   0.896380 0.938200 0.003220 -0.358462
C31   C     C_1   0.691428 0.628952 0.727457 0.280683
N1    N     N_1   0.822953 0.580730 0.719924 -0.370451
Cl1   Cl    Cl    0.007917 0.881722 0.230174 -0.662589
C32   C     C_1   0.034940 0.248797 0.663980 0.353986
N2    N     N_1   0.172826 0.204406 0.658347 -0.337175
Cl2   Cl    Cl    0.229007 0.260066 0.372778 -0.637979

loop_
_geom_bond_atom_site_label_1
_geom_bond_atom_site_label_2
_ccdc_geom_bond_type
C18   C19   A    
O19   V4    S    
C10   Cl2   S    
C16   H8    S    
C1    O6    A    
C23   C24   A    
C10   C11   A    
C7    C8    D    
C12   H5    S    
C16   C17   A    
C9    C10   A    
O5    C3    A    
C13   H6    S    
O13   C30   A    
C1    C20   S    
V2    O10   S    
O11   V4    S    
O12   V3    S    
C5    H1    S    
O8    V2    S    
C19   C31   S    
C32   N2    T    
O11   C28   A    
O7    V1    S    
C25   C26   A    
V3    O20   S    
O17   V3    S    
O9    C4    A    
C21   C22   A    
O13   V3    S    
O12   C27   A    
C15   H7    S    
C7    H3    S    
C24   C25   A    
C3    C11   S    
C31   N1    T    
C9    H4    S    
C14   C30   S    
O4    C2    A    
C6    C29   S    
C5    C7    S    
O15   V3    S    
O2    C1    A    
C9    C14   A    
C17   C18   A    
O16   V4    S    
C5    C6    D    
C22   Cl1   S    
O3    C4    A    
C21   C26   A    
O1    V2    S    
C25   H12   S    
C23   C27   S    
O6    V2    S    
O9    V2    S    
O15   C29   A    
C21   H10   S    
O2    V1    S    
C22   C23   A    
C27   O16   A    
C24   H11   S    
C19   C20   A    
O1    C2    A    
C2    C26   S    
O5    V1    S    
O8    C3    A    
C15   C20   A    
C4    C8    S    
O14   C28   A    
O7    V2    S    
O4    V1    S    
O3    V1    S    
V1    O10   S    
O17   V4    S    
C13   C14   A    
C18   H9    S    
C12   C13   A    
C15   C16   A    
C6    H2    S    
O18   C29   A    
O19   C30   A    
O18   V4    S    
V4    O20   S    
C11   C12   A    
O14   V3    S    
C8    C32   S    
C17   C28   S    
