data_mof_unit_23301.cif
_audit_creation_date              2012-10-26T19:17:55-0400
_audit_creation_method            fapswitch 2.2
_symmetry_space_group_name_H-M    P1
_symmetry_Int_Tables_number       1
_space_group_crystal_system       triclinic
_cell_length_a                    10.788978
_cell_length_b                    12.319207
_cell_length_c                    13.135107
_cell_angle_alpha                 116.490339
_cell_angle_beta                  76.241843
_cell_angle_gamma                 100.812424
_cell_volume                      1510.99773691

loop_
_atom_site_label
_atom_site_type_symbol
_atom_type_description
_atom_site_fract_x
_atom_site_fract_y
_atom_site_fract_z
_atom_type_partial_charge
C1    C     C_R   0.517633 0.855242 0.286128 0.520345
C2    C     C_R   0.294426 0.206717 0.247131 -0.096960
C3    C     C_R   0.375528 0.119335 0.166114 -0.126356
C4    C     C_R   0.737161 0.999040 0.499738 0.543598
C5    C     C_R   0.360389 0.003386 0.163443 -0.107452
C6    C     C_R   0.266225 0.975375 0.243775 -0.069603
C7    C     C_R   0.185574 0.063185 0.328190 0.058065
C8    C     C_R   0.304386 0.297842 0.023171 -0.125766
C9    C     C_R   0.448316 0.228966 0.838362 -0.002058
C10   C     C_R   0.651947 0.803795 0.094469 -0.129974
C11   C     C_R   0.700534 0.717152 0.986140 -0.004966
C12   C     C_R   0.619639 0.858134 0.810751 -0.097608
C13   C     C_R   0.639792 0.598494 0.945303 -0.108169
C14   C     C_R   0.528342 0.564974 0.011818 0.019649
C15   C     C_R   0.476862 0.656214 0.119652 0.016748
C16   C     C_R   0.477756 0.145108 0.714601 0.540449
C17   C     C_R   0.468408 0.443312 0.977369 0.022853
C18   C     C_R   0.360312 0.416897 0.051308 0.033364
C19   C     C_R   0.306054 0.509855 0.151939 -0.144495
C20   C     C_R   0.361120 0.628273 0.183838 -0.120046
C21   C     C_R   0.510481 0.347268 0.871295 -0.158285
C22   C     C_R   0.348247 0.202380 0.918754 0.001399
C23   C     C_R   0.037164 0.954943 0.566079 -0.161525
C24   C     C_R   0.543395 0.773303 0.162920 -0.026434
C25   C     C_R   0.686127 0.329603 0.304965 -0.001573
C26   C     C_R   0.330959 0.762878 0.651629 0.043149
C27   C     C_R   0.307946 0.676372 0.696378 -0.170779
C28   C     C_R   0.263004 0.998255 0.496686 0.535066
C29   C     C_R   0.379639 0.576306 0.644402 -0.149513
C30   C     C_R   0.471605 0.558786 0.543322 -0.016556
C31   C     C_R   0.497682 0.654460 0.505960 0.188950
C32   C     C_R   0.537332 0.450194 0.477647 -0.034177
C33   C     C_R   0.628561 0.440027 0.376401 0.041152
C34   C     C_R   0.129329 0.994736 0.491760 -0.003226
C35   C     C_R   0.660412 0.540391 0.348964 -0.181777
C36   C     C_R   0.598004 0.645164 0.413148 -0.098312
C37   C     C_R   0.512642 0.348842 0.505747 0.033657
C38   C     C_R   0.657867 0.234964 0.340217 0.059669
C39   C     C_R   0.646213 0.980313 0.829068 -0.104360
C40   C     C_R   0.742955 0.013833 0.753492 -0.063464
C41   C     C_R   0.814064 0.924979 0.659147 0.049164
C42   C     C_R   0.788635 0.802732 0.642577 -0.091354
C43   C     C_R   0.691168 0.769532 0.717889 -0.105289
C44   C     C_3   0.276404 0.078361 0.895079 -0.275288
C45   C     C_R   0.091837 0.029948 0.415474 -0.030457
C46   C     C_3   0.165831 0.059749 0.833393 -0.432952
C47   C     C_3   0.823689 0.749896 0.919280 -0.414157
C48   C     C_3   0.769993 0.305707 0.187921 -0.293375
C49   C     C_3   0.910332 0.348581 0.198649 -0.451742
C50   C     C_3   0.110066 0.278344 0.410752 -0.291980
C51   C     C_3   0.181897 0.386097 0.495051 -0.428292
C52   C     C_R   0.961717 0.025691 0.417350 -0.166957
C53   C     C_R   0.870596 0.995571 0.498191 -0.000335
C54   C     C_R   0.907854 0.958312 0.572663 -0.031248
C55   C     C_R   0.197614 0.180195 0.328104 0.049810
Cu1   Cu    Cu3+1 0.529370 0.098270 0.475420 0.922198
Cu2   Cu    Cu3+1 0.470630 0.901730 0.524580 0.913870
H1    H     H_    0.544065 0.832131 0.868736 0.110354
H2    H     H_    0.590824 0.048859 0.900943 0.092577
H3    H     H_    0.312344 0.697664 0.260478 0.136471
H4    H     H_    0.700868 0.150027 0.287812 0.115645
H5    H     H_    0.734883 0.540004 0.277363 0.117206
H6    H     H_    0.443643 0.348298 0.579693 0.119372
H7    H     H_    0.274516 0.839361 0.691256 0.120827
H8    H     H_    0.358645 0.512762 0.683341 0.099941
H9    H     H_    0.234322 0.686847 0.771430 0.097437
H10   H     H_    0.632038 0.717164 0.386658 0.182039
H11   H     H_    0.760722 0.108377 0.766932 0.090857
H12   H     H_    0.449431 0.141341 0.104521 0.105957
H13   H     H_    0.841640 0.732955 0.569612 0.103235
H14   H     H_    0.670714 0.675001 0.704040 0.114895
H15   H     H_    0.065779 0.924715 0.622135 0.118593
H16   H     H_    0.931290 0.047432 0.356082 0.115067
H17   H     H_    0.307064 0.295754 0.246633 0.111743
H18   H     H_    0.202885 0.066004 0.749752 0.169704
H19   H     H_    0.112447 0.969121 0.818053 0.115842
H20   H     H_    0.098250 0.130471 0.887336 0.146578
H21   H     H_    0.341497 0.005303 0.847276 0.162902
H22   H     H_    0.235445 0.070065 0.977694 0.134938
H23   H     H_    0.422438 0.935302 0.099554 0.105837
H24   H     H_    0.816054 0.833068 0.909271 0.142239
H25   H     H_    0.903117 0.768633 0.967006 0.126985
H26   H     H_    0.847745 0.675301 0.832029 0.123133
H27   H     H_    0.921776 0.445928 0.260023 0.151302
H28   H     H_    0.947848 0.292502 0.229059 0.137371
H29   H     H_    0.967501 0.337337 0.112790 0.137481
H30   H     H_    0.762983 0.206500 0.130538 0.125596
H31   H     H_    0.735847 0.349112 0.142836 0.145622
H32   H     H_    0.256488 0.430626 0.448042 0.162728
H33   H     H_    0.114269 0.454026 0.556937 0.137972
H34   H     H_    0.256894 0.885083 0.241068 0.086985
H35   H     H_    0.226243 0.354702 0.544090 0.159797
H36   H     H_    0.068482 0.310267 0.360551 0.125144
H37   H     H_    0.028856 0.246342 0.462837 0.158975
H38   H     H_    0.219980 0.491031 0.206237 0.099488
H39   H     H_    0.222264 0.279664 0.081490 0.099585
H40   H     H_    0.588275 0.362781 0.809297 0.115167
H41   H     H_    0.704116 0.893150 0.128479 0.115413
H42   H     H_    0.684185 0.534203 0.863003 0.098061
N1    N     N_R   0.573890 0.246290 0.438210 -0.239563
N2    N     N_R   0.426890 0.754320 0.561170 -0.226530
O1    O     O_R   0.536940 0.972510 0.318130 -0.504162
O2    O     O_R   0.487330 0.806530 0.359650 -0.520350
O3    O     O_R   0.705160 0.082990 0.479250 -0.508057
O4    O     O_R   0.655550 0.917010 0.520760 -0.502935
O5    O     O_R   0.512670 0.193470 0.640350 -0.508735
O6    O     O_R   0.463060 0.027490 0.681870 -0.498759
O7    O     O_R   0.344450 0.082990 0.479240 -0.483173
O8    O     O_R   0.294840 0.917010 0.520750 -0.521091

loop_
_geom_bond_atom_site_label_1
_geom_bond_atom_site_label_2
_ccdc_geom_bond_type
Cu2   O4    S    
C4    C53   S    
C27   C29   A    
C41   C42   A    
C11   C47   S    
C19   C20   A    
C8    H39   S    
C7    C55   A    
C46   H19   S    
C36   H10   S    
C53   C54   A    
C26   C27   A    
C31   N2    A    
C49   H27   S    
C3    H12   S    
C9    C16   S    
C12   C43   A    
C2    C55   A    
C26   N2    A    
C30   C31   A    
C51   H35   S    
C9    C22   A    
C6    H34   S    
C42   H13   S    
Cu1   Cu2   S    
C18   C19   A    
C47   H25   S    
C10   H41   S    
C26   H7    S    
Cu1   O7    S    
C16   O6    A    
C22   C44   S    
C35   C36   A    
C8    C22   A    
C48   H31   S    
C47   H26   S    
C20   H3    S    
C1    O2    A    
C2    H17   S    
C16   O5    A    
C38   H4    S    
C12   H1    S    
C28   C34   S    
C13   C14   A    
C14   C17   A    
C49   H29   S    
C46   H18   S    
C37   H6    S    
C44   C46   S    
C50   C51   S    
C15   C20   A    
Cu2   O2    S    
Cu2   O8    S    
C49   H28   S    
Cu1   O3    S    
C38   N1    A    
C52   H16   S    
C39   C40   A    
C50   H37   S    
C45   C52   A    
C10   C24   A    
C8    C18   A    
C13   H42   S    
C29   C30   A    
C25   C38   A    
C21   H40   S    
C23   C34   A    
C39   H2    S    
C17   C18   A    
C48   H30   S    
C34   C45   A    
C15   C24   A    
C32   C37   A    
C5    H23   S    
C25   C48   S    
Cu1   O5    S    
C29   H8    S    
C40   C41   A    
Cu2   O6    S    
C42   C43   A    
Cu1   N1    S    
C7    C45   S    
C19   H38   S    
C52   C53   A    
C23   C54   A    
C48   C49   S    
C43   H14   S    
C14   C15   A    
C23   H15   S    
C44   H22   S    
C3    C5    A    
C46   H20   S    
C50   H36   S    
C6    C7    A    
C28   O8    A    
Cu2   N2    S    
C4    O4    A    
C50   C55   S    
C32   C33   A    
C12   C39   A    
C44   H21   S    
C2    C3    A    
Cu1   O1    S    
C51   H33   S    
C27   H9    S    
C51   H32   S    
C30   C32   A    
C11   C13   A    
C9    C21   A    
C5    C6    A    
C28   O7    A    
C4    O3    A    
C33   C35   A    
C35   H5    S    
C47   H24   S    
C17   C21   A    
C41   C54   S    
C10   C11   A    
C1    C24   S    
C40   H11   S    
C31   C36   A    
C1    O1    A    
C37   N1    A    
C25   C33   A    
