data_mof_unit_18805.cif
_audit_creation_date              2012-12-10T17:53:13-0500
_audit_creation_method            fapswitch 2.2
_symmetry_space_group_name_H-M    P1
_symmetry_Int_Tables_number       1
_space_group_crystal_system       triclinic
_cell_length_a                    23.405088
_cell_length_b                    10.619072
_cell_length_c                    9.899841
_cell_angle_alpha                 89.800608
_cell_angle_beta                  89.621374
_cell_angle_gamma                 91.751614
_cell_volume                      2459.28948893

loop_
_atom_site_label
_atom_site_type_symbol
_atom_type_description
_atom_site_fract_x
_atom_site_fract_y
_atom_site_fract_z
_atom_type_partial_charge
C1    C     C_R   0.501694 0.260693 0.500267 0.842213
C2    C     C_R   0.123101 0.589079 0.588631 0.565417
C3    C     C_R   0.234222 0.550547 0.419026 0.212415
C4    C     C_R   0.389461 0.500276 0.500514 0.886140
C5    C     C_R   0.294176 0.558737 0.408488 0.109947
C6    C     C_R   0.327208 0.494776 0.503919 -0.162088
C7    C     C_R   0.300724 0.424797 0.607950 -0.283693
C8    C     C_R   0.241642 0.419279 0.622390 0.181808
C9    C     C_R   0.208324 0.481689 0.526617 0.208652
C10   C     C_R   0.765904 0.505464 0.383653 0.185472
C11   C     C_R   0.706686 0.472482 0.381459 0.103483
C12   C     C_R   0.963563 0.283624 0.464832 -0.179172
C13   C     C_R   0.673541 0.497854 0.499186 -0.079864
C14   C     C_R   0.700947 0.527236 0.621091 -0.313251
C15   C     C_R   0.759713 0.532613 0.627942 -0.155279
C16   C     C_R   0.501839 0.739479 0.499676 0.871557
C17   C     C_R   0.792389 0.522418 0.510766 0.294270
C18   C     C_R   0.595812 0.136707 0.631130 -0.256535
C19   C     C_R   0.639992 0.073812 0.693406 -0.132673
C20   C     C_R   0.640698 0.942229 0.692240 0.284250
C21   C     C_R   0.596846 0.874415 0.626397 -0.275885
C22   C     C_R   0.551115 0.937083 0.565283 0.073041
C23   C     C_R   0.022700 0.276912 0.466943 -0.172506
C24   C     C_R   0.550724 0.068922 0.567009 0.096552
C25   C     C_R   0.505725 0.128639 0.500375 -0.078984
C26   C     C_R   0.463477 0.062031 0.430027 -0.209315
C27   C     C_R   0.463611 0.933523 0.429351 -0.202914
C28   C     C_R   0.610777 0.497588 0.499332 0.855828
C29   C     C_R   0.506105 0.872017 0.498638 -0.081911
C30   C     C_R   0.424945 0.334623 0.141795 -0.156310
C31   C     C_R   0.387596 0.254181 0.072271 -0.198808
C32   C     C_R   0.387590 0.254384 0.932485 -0.200637
C33   C     C_R   0.424970 0.334974 0.861491 -0.155361
C34   C     C_R   0.056304 0.381541 0.506884 0.002635
C35   C     C_R   0.463047 0.418544 0.928519 0.173474
C36   C     C_R   0.463089 0.418416 0.073161 0.159049
C37   C     C_R   0.535477 0.577740 0.070691 -0.129040
C38   C     C_R   0.535476 0.577697 0.927473 -0.113774
C39   C     C_R   0.883768 0.618089 0.570907 0.495900
C40   C     C_R   0.877976 0.404513 0.494979 0.493314
C41   C     C_R   0.937059 0.395377 0.501543 0.009242
C42   C     C_R   0.970187 0.500946 0.543862 -0.062606
C43   C     C_R   0.943704 0.614051 0.580778 -0.062501
C44   C     C_3   0.681422 0.396922 0.263381 -0.408570
C45   C     C_R   0.030033 0.493133 0.547859 -0.021795
C46   C     C_3   0.657306 0.267680 0.308585 -0.783343
C47   C     C_3   0.689982 0.888907 0.897777 -0.778680
C48   C     C_3   0.951216 0.924440 0.551914 -0.678541
C49   C     C_3   0.174316 0.548709 0.220095 -0.769316
C50   C     C_3   0.326277 0.585216 0.174531 -0.716899
C51   C     C_3   0.215850 0.348417 0.742337 -0.353634
C52   C     C_3   0.229478 0.416009 0.874691 -0.890077
C53   C     C_3   0.800645 0.528344 0.254076 -0.446907
C54   C     C_3   0.825393 0.663188 0.245556 -0.840063
C55   C     C_R   0.063632 0.597209 0.590863 -0.053604
C56   C     C_R   0.037433 0.707800 0.631312 -0.235836
C57   C     C_R   0.978088 0.718285 0.624832 0.218186
C58   C     C_R   0.115864 0.378761 0.503698 0.464386
H1    H     H_    0.938773 0.201777 0.431781 0.186703
H2    H     H_    0.041953 0.190088 0.435841 0.187202
H3    H     H_    0.422331 0.328743 0.248891 0.204299
H4    H     H_    0.358510 0.191261 0.127394 0.154540
H5    H     H_    0.358499 0.191632 0.878526 0.154802
H6    H     H_    0.422759 0.329100 0.754471 0.199432
H7    H     H_    0.564446 0.641177 0.872869 0.143576
H8    H     H_    0.063047 0.788506 0.664452 0.192505
H9    H     H_    0.326340 0.374665 0.679871 0.167296
H10   H     H_    0.690582 0.215029 0.362554 0.266959
H11   H     H_    0.619654 0.275632 0.375641 0.253376
H12   H     H_    0.676984 0.542863 0.713198 0.176402
H13   H     H_    0.643686 0.212397 0.218716 0.240502
H14   H     H_    0.648761 0.450853 0.209334 0.226374
H15   H     H_    0.713956 0.374067 0.186768 0.197823
H16   H     H_    0.690948 0.786742 0.719881 0.232111
H17   H     H_    0.727770 0.838513 0.934628 0.247983
H18   H     H_    0.650904 0.845985 0.945647 0.225759
H19   H     H_    0.694829 0.989156 0.928341 0.246753
H20   H     H_    0.972175 0.874416 0.746761 0.218478
H21   H     H_    0.995020 0.954834 0.519029 0.206816
H22   H     H_    0.928111 0.008388 0.586329 0.245177
H23   H     H_    0.780147 0.546305 0.724874 0.162884
H24   H     H_    0.927837 0.882516 0.464810 0.256333
H25   H     H_    0.217691 0.705245 0.297358 0.257988
H26   H     H_    0.146167 0.609878 0.160505 0.242301
H27   H     H_    0.148050 0.467882 0.259093 0.263202
H28   H     H_    0.208065 0.513263 0.152438 0.241713
H29   H     H_    0.355251 0.692356 0.339592 0.227869
H30   H     H_    0.301368 0.640846 0.101811 0.238233
H31   H     H_    0.310911 0.485106 0.170999 0.240750
H32   H     H_    0.371824 0.589824 0.142322 0.243718
H33   H     H_    0.212275 0.512366 0.873085 0.281939
H34   H     H_    0.429594 0.109770 0.378241 0.141764
H35   H     H_    0.276323 0.422464 0.891818 0.266003
H36   H     H_    0.209348 0.362493 0.959957 0.253475
H37   H     H_    0.168768 0.336957 0.735251 0.218322
H38   H     H_    0.233088 0.252078 0.745701 0.209249
H39   H     H_    0.791709 0.731928 0.267282 0.269080
H40   H     H_    0.861223 0.677979 0.316585 0.266572
H41   H     H_    0.842378 0.681737 0.142107 0.249848
H42   H     H_    0.835586 0.460465 0.246015 0.237201
H43   H     H_    0.774386 0.517892 0.162262 0.200105
H44   H     H_    0.598111 0.238458 0.631831 0.170936
H45   H     H_    0.674350 0.128016 0.740351 0.155462
H46   H     H_    0.599276 0.772946 0.622816 0.142416
H47   H     H_    0.429768 0.881640 0.377352 0.145812
H48   H     H_    0.564455 0.641200 0.123855 0.145348
N1    N     N_R   0.852987 0.515874 0.524065 -0.346236
N2    N     N_R   0.147693 0.482372 0.542069 -0.337297
N3    N     N_R   0.499460 0.498800 0.142780 -0.121174
N4    N     N_R   0.499440 0.498720 0.857170 -0.119526
N5    N     N_2   0.686704 0.878162 0.752370 -0.291311
N6    N     N_2   0.953911 0.834658 0.661792 -0.249947
N7    N     N_2   0.199578 0.620541 0.329544 -0.283721
N8    N     N_2   0.320408 0.638549 0.308297 -0.309729
O1    O     O_R   0.500000 0.316780 0.614690 -0.636841
O2    O     O_R   0.583850 0.500050 0.614640 -0.633899
O3    O     O_R   0.583840 0.500030 0.385310 -0.611769
O4    O     O_2   0.856131 0.722926 0.605551 -0.532052
O5    O     O_2   0.845411 0.302830 0.459682 -0.576365
O6    O     O_2   0.142011 0.274550 0.460567 -0.575688
O7    O     O_2   0.156300 0.687403 0.630383 -0.567613
O8    O     O_R   0.500000 0.316750 0.385360 -0.631663
O9    O     O_R   0.416160 0.499970 0.614690 -0.629553
O10   O     O_R   0.416150 0.499950 0.385360 -0.628251
O11   O     O_R   0.500000 0.683250 0.614640 -0.610644
O12   O     O_R   0.500000 0.683220 0.385310 -0.616185
Zn1   Zn    Zn3+2 0.500000 0.500020 0.653130 0.931668
Zn2   Zn    Zn3+2 0.500000 0.499980 0.346870 0.927553

loop_
_geom_bond_atom_site_label_1
_geom_bond_atom_site_label_2
_ccdc_geom_bond_type
C49   N7    S    
C55   C56   A    
C22   C29   A    
C5    N8    S    
C27   C29   A    
C41   C42   A    
H25   N7    S    
C35   C36   A    
C7    C8    A    
C15   H23   S    
C53   C54   S    
C9    N2    S    
C39   N1    A    
C12   C23   A    
C26   C27   A    
C37   C38   A    
C18   C24   A    
C49   H26   S    
C47   H18   S    
C28   O3    A    
C17   N1    S    
C30   C31   A    
C56   H8    S    
C57   N6    S    
C27   H47   S    
C10   C17   A    
C26   H34   S    
O1    Zn1   S    
C56   C57   A    
C4    O10   A    
C18   C19   A    
C18   H44   S    
C10   C53   S    
C1    O8    A    
C46   H11   S    
C50   H31   S    
C12   H1    S    
C19   H45   S    
C50   H32   S    
C19   C20   A    
C53   H43   S    
C8    C9    A    
H29   N8    S    
O2    Zn1   S    
C13   C28   S    
C52   H36   S    
C38   N4    A    
C28   O2    A    
C16   O11   A    
C37   N3    A    
C50   H30   S    
N4    Zn1   S    
O10   Zn2   S    
C21   C22   A    
C1    C25   S    
C14   H12   S    
C31   H4    S    
C44   C46   S    
C53   H42   S    
C23   H2    S    
C51   C52   S    
C49   H27   S    
C52   H35   S    
C24   C25   A    
C4    C6    S    
C3    N7    S    
H16   N5    S    
C39   C43   A    
C25   C26   A    
C4    O9    A    
C50   N8    S    
C42   C45   A    
C46   H10   S    
C12   C41   A    
C3    C9    A    
C20   N5    S    
N3    Zn2   S    
O9    Zn1   S    
C31   C32   A    
C38   H7    S    
C23   C34   A    
C58   O6    S    
C11   C44   S    
C54   H39   S    
C34   C45   A    
C8    C51   S    
C46   H13   S    
C35   N4    A    
C40   N1    A    
C40   C41   A    
C48   N6    S    
C21   H46   S    
C22   C24   A    
C54   H41   S    
C42   C43   A    
C47   H19   S    
C48   H21   S    
C34   C58   A    
C2    O7    S    
C15   C17   A    
O12   Zn2   S    
C49   H28   S    
C32   H5    S    
C3    C5    A    
C6    C7    A    
C39   O4    S    
C51   H38   S    
C30   C36   A    
C2    C55   A    
C32   C33   A    
C48   H22   S    
C16   C29   S    
C47   H17   S    
C37   H48   S    
C11   C13   A    
C5    C6    A    
C33   H6    S    
C47   N5    S    
C2    N2    A    
C33   C35   A    
C48   H24   S    
C44   H14   S    
C58   N2    A    
O8    Zn2   S    
C44   H15   S    
O3    Zn2   S    
C10   C11   A    
C43   C57   A    
C7    H9    S    
C40   O5    S    
C20   C21   A    
C45   C55   A    
C30   H3    S    
C36   N3    A    
O11   Zn1   S    
C14   C15   A    
C54   H40   S    
C52   H33   S    
H20   N6    S    
C1    O1    A    
C13   C14   A    
C16   O12   A    
C51   H37   S    
