data_mof_unit_48884.cif
_audit_creation_date              2012-12-10T16:47:57-0500
_audit_creation_method            fapswitch 2.2
_symmetry_space_group_name_H-M    P1
_symmetry_Int_Tables_number       1
_space_group_crystal_system       triclinic
_cell_length_a                    7.809435
_cell_length_b                    8.623702
_cell_length_c                    10.745393
_cell_angle_alpha                 91.823751
_cell_angle_beta                  84.972437
_cell_angle_gamma                 93.651816
_cell_volume                      719.16321224

loop_
_atom_site_label
_atom_site_type_symbol
_atom_type_description
_atom_site_fract_x
_atom_site_fract_y
_atom_site_fract_z
_atom_type_partial_charge
C1    C     C_R   0.545223 0.794183 0.496960 0.863282
C2    C     C_2   0.569253 0.956783 0.498163 0.283414
C3    C     C_3   0.868296 0.316678 0.937680 -0.190012
C4    C     C_3   0.954507 0.308490 0.294031 0.026077
C5    C     C_3   0.046906 0.691583 0.706054 0.078978
C6    C     C_2   0.430757 0.043238 0.502078 0.281378
C7    C     C_R   0.502038 0.503783 0.737145 0.821811
C8    C     C_R   0.454784 0.205827 0.503133 0.854334
C9    C     C_R   0.499073 0.497457 0.263005 0.849404
C10   C     C_2   0.638486 0.516631 0.058399 0.370659
C11   C     C_2   0.497405 0.474875 0.132091 0.370872
C12   C     C_2   0.641726 0.480281 0.926010 0.341504
C13   C     C_2   0.510974 0.530139 0.867745 0.382665
F1    F     F_    0.777656 0.596502 0.102806 -0.667896
F2    F     F_    0.358262 0.395099 0.087375 -0.670634
F3    F     F_    0.387312 0.616349 0.928725 -0.653196
F4    F     F_    0.735116 0.017249 0.497859 -0.603609
F5    F     F_    0.264887 0.982786 0.502432 -0.604969
H1    H     H_    0.782499 0.242264 0.002626 0.132900
H2    H     H_    0.955988 0.396197 0.989600 0.231398
H3    H     H_    0.950026 0.238501 0.877852 0.208552
H4    H     H_    0.952706 0.415365 0.239070 0.175235
H5    H     H_    0.824379 0.250649 0.311168 0.166480
H6    H     H_    0.034028 0.226417 0.236430 0.166470
H7    H     H_    0.175390 0.752120 0.687590 0.183500
H8    H     H_    0.053081 0.584892 0.760550 0.171695
H9    H     H_    0.966305 0.771649 0.764892 0.142574
N1    N     N_2   0.950320 0.457950 0.466680 0.202893
N2    N     N_2   0.049680 0.542050 0.533320 0.189964
O1    O     O_R   0.389250 0.738570 0.508180 -0.608679
O2    O     O_3   0.030736 0.340414 0.406068 -0.488447
O3    O     O_3   0.968655 0.658552 0.594964 -0.505943
O4    O     O_R   0.678390 0.711630 0.486820 -0.524411
O5    O     O_R   0.355470 0.513470 0.691600 -0.650211
O6    O     O_R   0.644610 0.486520 0.670240 -0.572031
O7    O     O_R   0.321610 0.288370 0.513180 -0.535593
O8    O     O_R   0.610750 0.261430 0.491820 -0.603265
O9    O     O_R   0.355390 0.513480 0.329760 -0.562896
O10   O     O_R   0.644530 0.486530 0.308400 -0.659819
O11   O     O_3   0.773488 0.400972 0.859826 -0.622997
Zn1   Zn    Zn3+2 0.306940 0.517990 0.514260 1.110651
Zn2   Zn    Zn3+2 0.693060 0.482010 0.485740 1.117917

loop_
_geom_bond_atom_site_label_1
_geom_bond_atom_site_label_2
_ccdc_geom_bond_type
C12   O11   S    
C6    C8    S    
O1    Zn1   S    
C3    H1    S    
O10   Zn2   S    
C4    H4    S    
C7    C13   S    
C5    O3    S    
C1    O4    A    
C3    H2    S    
C2    F4    S    
C9    C11   S    
O7    Zn1   S    
C2    C6    D    
O5    Zn1   S    
C10   C12   S    
C5    H7    S    
O4    Zn2   S    
N1    Zn2   S    
C1    O1    A    
C7    O5    A    
C3    O11   S    
N2    O3    S    
C11   F2    S    
C10   C11   D    
C8    O7    A    
C4    H6    S    
C6    F5    S    
C3    H3    S    
C4    O2    S    
C8    O8    A    
C5    H8    S    
C9    O10   A    
C12   C13   D    
O9    Zn1   S    
C1    C2    S    
C10   F1    S    
C13   F3    S    
O8    Zn2   S    
O6    Zn2   S    
C4    H5    S    
N1    N2    D    
C9    O9    A    
N2    Zn1   S    
C5    H9    S    
C7    O6    A    
N1    O2    S    
