data_mof_unit_46933.cif
_audit_creation_date              2012-12-10T17:46:30-0500
_audit_creation_method            fapswitch 2.2
_symmetry_space_group_name_H-M    P1
_symmetry_Int_Tables_number       1
_space_group_crystal_system       triclinic
_cell_length_a                    20.782867
_cell_length_b                    21.55054
_cell_length_c                    14.788357
_cell_angle_alpha                 89.644141
_cell_angle_beta                  128.690881
_cell_angle_gamma                 90.252987
_cell_volume                      5169.69132719

loop_
_atom_site_label
_atom_site_type_symbol
_atom_type_description
_atom_site_fract_x
_atom_site_fract_y
_atom_site_fract_z
_atom_type_partial_charge
C1    C     C_R   0.599822 0.911593 0.627953 0.825979
C2    C     C_R   0.394049 0.084249 0.364766 0.872162
C3    C     C_R   0.399236 0.912159 0.371276 0.827826
C4    C     C_R   0.605562 0.083861 0.634714 0.860712
C5    C     C_R   0.100724 0.412283 0.628931 0.867448
C6    C     C_R   0.895967 0.586057 0.367048 0.862187
C7    C     C_R   0.896323 0.414210 0.367786 0.871943
C8    C     C_R   0.105869 0.584342 0.635014 0.852757
C9    C     C_R   0.348549 0.762962 0.942174 -0.268786
C10   C     C_R   0.644188 0.252710 0.028755 -0.249768
C11   C     C_R   0.648297 0.763211 0.054501 -0.228919
C12   C     C_R   0.293928 0.203809 0.891250 -0.259413
C13   C     C_R   0.858887 0.246935 0.967610 -0.270540
C14   C     C_R   0.206043 0.703534 0.110261 -0.252686
C15   C     C_R   0.140738 0.254542 0.045754 -0.265149
C16   C     C_R   0.745114 0.679074 0.841845 -0.250074
C17   C     C_R   0.321159 0.988616 0.662429 -0.247708
C18   C     C_R   0.675270 0.971777 0.336280 -0.239925
C19   C     C_R   0.821672 0.484691 0.662532 -0.259911
C20   C     C_R   0.177908 0.481418 0.337897 -0.251690
C21   C     C_R   0.351500 0.991901 0.601456 0.721859
C22   C     C_R   0.646575 0.983437 0.397915 0.748327
C23   C     C_R   0.851467 0.492167 0.601249 0.710767
C24   C     C_R   0.148031 0.489065 0.398842 0.718545
C25   C     C_R   0.488492 0.002677 0.776694 0.624467
C26   C     C_R   0.514469 0.008950 0.224518 0.610969
C27   C     C_R   0.987842 0.503466 0.776187 0.615869
C28   C     C_R   0.012620 0.504972 0.223646 0.611038
C29   C     C_R   0.461553 0.991802 0.844723 -0.163700
C30   C     C_R   0.537862 0.990774 0.155249 -0.155581
C31   C     C_R   0.962087 0.490171 0.844789 -0.155212
C32   C     C_R   0.038209 0.490475 0.155453 -0.157671
C33   C     C_R   0.375401 0.988980 0.783683 -0.223594
C34   C     C_R   0.621247 0.974380 0.215102 -0.222728
C35   C     C_R   0.876344 0.483083 0.783910 -0.208319
C36   C     C_R   0.123650 0.481684 0.216589 -0.222817
C37   C     C_R   0.515293 0.983782 0.969097 -0.218057
C38   C     C_R   0.482543 0.988834 0.030174 -0.216416
C39   C     C_R   0.016877 0.484814 0.969854 -0.214015
C40   C     C_R   0.983506 0.485179 0.030547 -0.203637
C41   C     C_R   0.395871 0.984838 0.964122 0.525729
C42   C     C_R   0.598029 0.963814 0.033399 0.541775
C43   C     C_R   0.897768 0.474175 0.964617 0.532307
C44   C     C_R   0.102600 0.473379 0.036255 0.528686
C45   C     C_R   0.343895 0.984318 0.843737 0.574290
C46   C     C_R   0.649683 0.959460 0.153673 0.598250
C47   C     C_R   0.845715 0.473458 0.844238 0.571277
C48   C     C_R   0.154317 0.471826 0.156590 0.584052
C49   C     C_R   0.673069 0.125874 0.719670 -0.298136
C50   C     C_R   0.345971 0.858518 0.303378 -0.295175
C51   C     C_R   0.325150 0.126841 0.279803 -0.288771
C52   C     C_R   0.644645 0.853127 0.686015 -0.312767
C53   C     C_R   0.173629 0.627866 0.719055 -0.290318
C54   C     C_R   0.832032 0.368682 0.286996 -0.283539
C55   C     C_R   0.831479 0.633013 0.287278 -0.285120
C56   C     C_R   0.153385 0.358452 0.696327 -0.288710
C57   C     C_R   0.812308 0.165541 0.827881 -0.122434
C58   C     C_R   0.233716 0.787420 0.236932 -0.149566
C59   C     C_R   0.200313 0.184175 0.207469 -0.133257
C60   C     C_R   0.701794 0.753801 0.691068 -0.130240
C61   C     C_R   0.293970 0.690274 0.786215 -0.135367
C62   C     C_R   0.693263 0.327984 0.177490 -0.143341
C63   C     C_R   0.719375 0.702584 0.230685 -0.127525
C64   C     C_R   0.267781 0.289356 0.767234 -0.152365
C65   C     C_R   0.752151 0.123209 0.748563 0.337534
C66   C     C_R   0.281782 0.837876 0.304723 0.344860
C67   C     C_R   0.260427 0.140961 0.284298 0.332549
C68   C     C_R   0.663433 0.809518 0.633944 0.351518
C69   C     C_R   0.236718 0.644921 0.712403 0.330580
C70   C     C_R   0.756050 0.364817 0.266808 0.331468
C71   C     C_R   0.777146 0.657551 0.305702 0.333840
C72   C     C_R   0.220237 0.340151 0.699848 0.344045
C73   C     C_R   0.659171 0.167500 0.778138 0.644191
C74   C     C_R   0.360233 0.827016 0.234343 0.627142
C75   C     C_R   0.322225 0.153002 0.190073 0.642024
C76   C     C_R   0.661978 0.837824 0.791717 0.642786
C77   C     C_R   0.176339 0.652679 0.809313 0.635787
C78   C     C_R   0.844361 0.332253 0.220711 0.636222
C79   C     C_R   0.822773 0.653559 0.189465 0.641229
C80   C     C_R   0.135486 0.324233 0.759285 0.638997
C81   C     C_R   0.725465 0.199467 0.876547 -0.023071
C82   C     C_R   0.302940 0.783767 0.150998 -0.014600
C83   C     C_R   0.252947 0.187283 0.100140 -0.021685
C84   C     C_R   0.686344 0.777322 0.837674 -0.042691
C85   C     C_R   0.243202 0.689816 0.896220 -0.019844
C86   C     C_R   0.777813 0.300835 0.120925 -0.013771
C87   C     C_R   0.755495 0.690954 0.103867 -0.023141
C88   C     C_R   0.192198 0.280933 0.843638 -0.019985
C89   C     C_R   0.799642 0.203376 0.892111 -0.068313
C90   C     C_R   0.245292 0.759374 0.163026 -0.067976
C91   C     C_R   0.196809 0.207953 0.116444 -0.060899
C92   C     C_R   0.712253 0.736977 0.791121 -0.074828
C93   C     C_R   0.296620 0.713567 0.876449 -0.062200
C94   C     C_R   0.703951 0.295315 0.106413 -0.066646
C95   C     C_R   0.708029 0.719381 0.130154 -0.071761
C96   C     C_R   0.253274 0.259066 0.836812 -0.062133
C97   C     C_R   0.719782 0.229251 0.957191 -0.014686
C98   C     C_R   0.302952 0.761388 0.060003 -0.020014
C99   C     C_R   0.242410 0.206004 0.999635 -0.007247
C100  C     C_R   0.688563 0.756470 0.931075 -0.014867
C101  C     C_R   0.253517 0.708545 0.996510 -0.007502
C102  C     C_R   0.783055 0.271973 0.038786 -0.013023
C103  C     C_R   0.736910 0.703512 0.995317 -0.007983
C104  C     C_R   0.189817 0.256927 0.932095 -0.019752
C105  C     C_R   0.346597 0.790795 0.025995 0.513395
C106  C     C_R   0.655586 0.215220 0.963255 0.508605
C107  C     C_R   0.637750 0.782239 0.955006 0.540627
C108  C     C_R   0.281135 0.173786 0.962570 0.505521
C109  C     C_R   0.847542 0.285261 0.032700 0.534068
C110  C     C_R   0.218075 0.674636 0.037670 0.508748
C111  C     C_R   0.141492 0.283029 0.960750 0.516898
C112  C     C_R   0.757175 0.661524 0.942958 0.486763
Cu1   Cu    Cu3+1 0.526640 0.000000 0.436960 1.123551
Cu2   Cu    Cu3+1 0.473360 1.000000 0.563040 1.112809
Cu3   Cu    Cu3+1 0.026640 0.500000 0.436960 1.122175
Cu4   Cu    Cu3+1 0.973360 0.500000 0.563040 1.130769
H1    H     H_    0.385331 0.783581 0.920891 0.132999
H2    H     H_    0.591589 0.244730 0.026425 0.141644
H3    H     H_    0.609490 0.782699 0.072760 0.137407
H4    H     H_    0.331685 0.182119 0.872999 0.137340
H5    H     H_    0.911975 0.253783 0.970700 0.133401
H6    H     H_    0.171026 0.680149 0.132103 0.143858
H7    H     H_    0.101012 0.272564 0.063523 0.132231
H8    H     H_    0.760696 0.647015 0.801941 0.149955
H9    H     H_    0.337659 0.706418 0.774153 0.181619
H10   H     H_    0.636395 0.323705 0.165664 0.188084
H11   H     H_    0.681134 0.722870 0.249280 0.192447
H12   H     H_    0.315678 0.273137 0.764093 0.186347
H13   H     H_    0.870743 0.166545 0.843610 0.185353
H14   H     H_    0.188265 0.769290 0.244031 0.189751
H15   H     H_    0.154834 0.197829 0.217313 0.184590
H16   H     H_    0.718747 0.721813 0.652790 0.193019
H17   H     H_    0.255236 0.984028 0.614308 0.245089
H18   H     H_    0.739389 0.959137 0.383759 0.243500
H19   H     H_    0.755873 0.479215 0.614549 0.241490
H20   H     H_    0.243370 0.473792 0.386119 0.244131
N1    N     N_R   0.433280 0.000000 0.657760 -0.266654
N2    N     N_R   0.566720 0.000000 0.342240 -0.268005
N3    N     N_R   0.933280 0.500000 0.657760 -0.257431
N4    N     N_R   0.066720 0.500000 0.342240 -0.263406
O1    O     O_R   0.600040 0.935040 0.546740 -0.543656
O2    O     O_R   0.399960 0.064960 0.453260 -0.546013
O3    O     O_R   0.399960 0.935040 0.453260 -0.564262
O4    O     O_R   0.600040 0.064960 0.546740 -0.564747
O5    O     O_R   0.100040 0.435040 0.546740 -0.555605
O6    O     O_R   0.899960 0.564960 0.453260 -0.548471
O7    O     O_R   0.899960 0.435040 0.453260 -0.559323
O8    O     O_R   0.100040 0.564960 0.546740 -0.558239
O9    O     O_R   0.555010 0.935070 0.653220 -0.511476
O10   O     O_R   0.444990 0.064930 0.346780 -0.478988
O11   O     O_R   0.444990 0.935070 0.346780 -0.509709
O12   O     O_R   0.555010 0.064930 0.653220 -0.485986
O13   O     O_R   0.055010 0.435070 0.653220 -0.503142
O14   O     O_R   0.944990 0.564930 0.346780 -0.485040
O15   O     O_R   0.944990 0.435070 0.346780 -0.511342
O16   O     O_R   0.055010 0.564930 0.653220 -0.481377
F1    F     F_    0.360005 0.973371 0.013816 -0.554378
F2    F     F_    0.627556 0.940774 0.980809 -0.542688
F3    F     F_    0.863667 0.457020 0.014627 -0.568170
F4    F     F_    0.137080 0.456237 0.987137 -0.562626
F5    F     F_    0.436441 0.830726 0.263515 -0.631591
F6    F     F_    0.579898 0.181604 0.730081 -0.603529
F7    F     F_    0.661772 0.883678 0.854101 -0.532101
F8    F     F_    0.390777 0.151635 0.197712 -0.620469
F9    F     F_    0.923480 0.320913 0.265152 -0.624104
F10   F     F_    0.109194 0.647200 0.804656 -0.621356
F11   F     F_    0.056942 0.325436 0.722137 -0.614310
F12   F     F_    0.884519 0.643254 0.183849 -0.619104
O17   O     O_3   0.266886 0.863573 0.374837 -0.630195
H21   H     H_    0.318534 0.859094 0.455417 0.349325
O18   O     O_3   0.773208 0.080508 0.702138 -0.642020
H22   H     H_    0.744105 0.041288 0.690819 0.373397
O19   O     O_3   0.644521 0.818800 0.527500 -0.645674
H23   H     H_    0.587654 0.835272 0.474525 0.366049
O20   O     O_3   0.254154 0.113934 0.362673 -0.652079
H24   H     H_    0.253213 0.068731 0.350776 0.386827
O21   O     O_3   0.741668 0.394753 0.334251 -0.627216
H25   H     H_    0.785468 0.380827 0.414912 0.365978
O22   O     O_3   0.243447 0.619516 0.633748 -0.662649
H26   H     H_    0.244005 0.574019 0.643516 0.387028
O23   O     O_3   0.238438 0.368736 0.635029 -0.629404
H27   H     H_    0.189297 0.363273 0.552886 0.361047
O24   O     O_3   0.780448 0.640165 0.397947 -0.661558
H28   H     H_    0.765460 0.595633 0.386194 0.383802
O25   O     O_3   0.381374 0.848698 0.067201 -0.595678
H29   H     H_    0.414109 0.859605 0.041493 0.329141
O26   O     O_3   0.609271 0.161777 0.913810 -0.686381
H30   H     H_    0.568635 0.158708 0.928082 0.311649
O27   O     O_3   0.571536 0.819408 0.873439 -0.659383
H31   H     H_    0.540804 0.831309 0.901664 0.325609
O28   O     O_3   0.299622 0.111735 0.989262 -0.636045
H32   H     H_    0.314739 0.094608 0.942745 0.331276
O29   O     O_3   0.895167 0.337999 0.083211 -0.597599
H33   H     H_    0.936499 0.340002 0.070129 0.322496
O30   O     O_3   0.202961 0.612054 0.014800 -0.660050
H34   H     H_    0.188762 0.594074 0.062269 0.321652
O31   O     O_3   0.100051 0.338303 0.912486 -0.595566
H35   H     H_    0.065813 0.347108 0.936404 0.328571
O32   O     O_3   0.777964 0.601013 0.982462 -0.654234
H36   H     H_    0.784204 0.576839 0.931518 0.345940
F13   F     F_    0.261385 0.978775 0.785257 -0.600313
F14   F     F_    0.728366 0.939577 0.210480 -0.598409
F15   F     F_    0.764034 0.462754 0.786034 -0.611958
F16   F     F_    0.235759 0.460021 0.215105 -0.600953
O33   O     O_3   0.444790 0.042873 0.178123 -0.558978
H37   H     H_    0.440379 0.072035 0.122485 0.342410
O34   O     O_3   0.567918 0.020063 0.826155 -0.580584
H38   H     H_    0.589555 0.044300 0.896588 0.344125
O35   O     O_3   0.936826 0.529968 0.174621 -0.563976
H39   H     H_    0.923432 0.557585 0.111150 0.355068
O36   O     O_3   0.064169 0.526967 0.824526 -0.567057
H40   H     H_    0.076351 0.556252 0.884542 0.357843
F17   F     F_    0.699756 0.978242 0.514718 -0.618030
F18   F     F_    0.298496 0.986237 0.484970 -0.628918
F19   F     F_    0.201190 0.485503 0.515765 -0.631414
F20   F     F_    0.797817 0.492578 0.484199 -0.636226

loop_
_geom_bond_atom_site_label_1
_geom_bond_atom_site_label_2
_ccdc_geom_bond_type
C2    O10   A    
Cu4   O6    S    
O18   H22   S    
C88   C96   A    
C75   F8    S    
C14   H6    S    
C29   C33   A    
C33   C45   A    
O17   H21   S    
Cu1   O11   S    
C66   O17   S    
C25   N1    A    
C28   N4    A    
Cu2   O12   S    
C6    C55   S    
C49   C73   A    
C53   C69   A    
C60   H16   S    
C79   C87   A    
O25   H29   S    
Cu1   N2    S    
C8    O8    A    
O19   H23   S    
C24   N4    A    
C99   C108  A    
C59   H15   S    
C37   C38   A    
C98   C105  A    
C57   C89   A    
C65   O18   S    
C63   H11   S    
Cu2   O2    S    
C23   N3    A    
C51   C75   A    
C106  O26   S    
C43   F3    S    
C50   C74   A    
C6    O6    A    
C24   F19   S    
C61   C93   A    
C10   C94   A    
C19   H19   S    
Cu3   Cu4   S    
C63   C95   A    
C55   C79   A    
C62   C70   A    
C42   C46   A    
Cu2   N1    S    
C105  O25   S    
C37   C42   A    
C14   C90   A    
C13   C109  A    
C86   C94   A    
C77   C85   A    
C59   C67   A    
C12   H4    S    
C85   C93   A    
C58   C66   A    
C40   C43   A    
C20   C24   A    
C67   O20   S    
C56   C72   A    
C87   C95   A    
C108  O28   S    
C1    O9    A    
C34   C46   A    
C21   N1    A    
C79   F12   S    
O31   H35   S    
C43   C47   A    
C80   F11   S    
C97   C102  A    
C52   C68   A    
Cu4   N3    S    
C81   C89   A    
C78   C86   A    
C7    O15   A    
C32   C40   A    
C99   C104  A    
C35   C47   A    
O32   H36   S    
C83   C99   A    
C82   C98   A    
C76   C84   A    
C42   F2    S    
C17   C33   A    
C74   C82   A    
C32   C36   A    
C73   C81   A    
C88   C104  A    
C3    C50   S    
C7    O7    A    
C23   F20   S    
C60   C92   A    
C25   C29   A    
C4    O12   A    
C5    O5    A    
C30   C34   A    
C27   C31   A    
O28   H32   S    
C84   C100  A    
C15   C111  A    
C28   C32   A    
C3    O3    A    
C64   C96   A    
C38   C41   A    
C11   H3    S    
C39   C40   A    
C62   H10   S    
C59   C91   A    
C52   C76   A    
C28   O35   S    
O33   H37   S    
C25   O34   S    
Cu3   O8    S    
C5    O13   A    
C100  C103  A    
C27   N3    A    
O34   H38   S    
C103  C112  A    
O23   H27   S    
C19   C23   A    
O24   H28   S    
C4    O4    A    
C73   F6    S    
C10   H2    S    
C71   O24   S    
Cu4   O7    S    
C13   H5    S    
C84   C92   A    
O36   H40   S    
C54   C70   A    
C107  O27   S    
C27   O36   S    
O35   H39   S    
C47   F15   S    
C51   C67   A    
C20   H20   S    
C109  O29   S    
C18   C34   A    
Cu4   O13   S    
C6    O14   A    
C49   C65   A    
C58   C90   A    
C87   C103  A    
C97   C106  A    
C74   F5    S    
C63   C71   A    
C16   C92   A    
C5    C56   S    
C62   C94   A    
Cu3   O14   S    
C17   H17   S    
C53   C77   A    
C2    O2    A    
C41   F1    S    
C10   C106  A    
C26   O33   S    
C86   C102  A    
C9    C93   A    
C85   C101  A    
C16   C112  A    
C12   C108  A    
Cu1   Cu2   S    
C57   H13   S    
C100  C107  A    
C14   C110  A    
Cu3   O5    S    
C78   F9    S    
C112  O32   S    
Cu3   O15   S    
C18   C22   A    
Cu1   O10   S    
C76   F7    S    
C57   C65   A    
C26   N2    A    
C30   C38   A    
C82   C90   A    
C8    C53   S    
C72   O23   S    
C104  C111  A    
C68   O19   S    
C50   C66   A    
C70   O21   S    
C26   C30   A    
C39   C44   A    
O22   H26   S    
C13   C89   A    
C98   C101  A    
C83   C91   A    
C48   F16   S    
C3    O11   A    
C56   C80   A    
Cu1   O4    S    
C4    C49   S    
Cu2   O9    S    
C61   C69   A    
Cu2   O3    S    
C101  C110  A    
O26   H30   S    
C80   C88   A    
O20   H24   S    
C19   C35   A    
C69   O22   S    
C11   C107  A    
C75   C83   A    
C22   N2    A    
C81   C97   A    
C58   H14   S    
C44   F4    S    
Cu1   O1    S    
C36   C48   A    
C18   H18   S    
C31   C35   A    
C64   C72   A    
C16   H8    S    
O27   H31   S    
C8    O16   A    
C1    C52   S    
C55   C71   A    
Cu4   O16   S    
C1    O1    A    
C2    C51   S    
O21   H25   S    
C15   C91   A    
O30   H34   S    
C20   C36   A    
C46   F14   S    
C11   C95   A    
Cu3   N4    S    
C60   C68   A    
C45   F13   S    
O29   H33   S    
C22   F17   S    
C29   C37   A    
C110  O30   S    
C31   C39   A    
C41   C45   A    
C21   F18   S    
C12   C96   A    
C102  C109  A    
C61   H9    S    
C15   H7    S    
C7    C54   S    
C64   H12   S    
C77   F10   S    
C9    C105  A    
C111  O31   S    
C9    H1    S    
C44   C48   A    
C54   C78   A    
C17   C21   A    
