data_mof_unit_23139.cif
_audit_creation_date              2012-12-11T15:06:35-0500
_audit_creation_method            fapswitch 2.2
_symmetry_space_group_name_H-M    P1
_symmetry_Int_Tables_number       1
_space_group_crystal_system       triclinic
_cell_length_a                    7.233135
_cell_length_b                    14.96233
_cell_length_c                    22.455986
_cell_angle_alpha                 89.99998
_cell_angle_beta                  90.000294
_cell_angle_gamma                 90.001028
_cell_volume                      2430.28904221

loop_
_atom_site_label
_atom_site_type_symbol
_atom_type_description
_atom_site_fract_x
_atom_site_fract_y
_atom_site_fract_z
_atom_type_partial_charge
O1    O     O_R   0.390810 0.844810 0.447340 -0.542909
O2    O     O_R   0.109190 0.155190 0.947340 -0.542908
O3    O     O_R   0.890810 0.655190 0.552660 -0.542906
O4    O     O_R   0.609190 0.344810 0.052660 -0.542906
O5    O     O_R   0.720550 0.655820 0.440420 -0.531178
O6    O     O_R   0.779450 0.344180 0.940420 -0.531178
O7    O     O_R   0.220550 0.844180 0.559580 -0.531179
O8    O     O_R   0.279450 0.155820 0.059580 -0.531179
C1    C     C_R   0.553229 0.626726 0.426206 0.693032
C2    C     C_R   0.946771 0.373274 0.926206 0.693033
C3    C     C_R   0.053232 0.873275 0.573793 0.693032
C4    C     C_R   0.446769 0.126726 0.073794 0.693032
O9    O     O_R   0.720530 0.844130 0.440420 -0.532920
O10   O     O_R   0.779470 0.155870 0.940420 -0.532922
O11   O     O_R   0.220530 0.655870 0.559580 -0.532915
O12   O     O_R   0.279470 0.344130 0.059580 -0.532917
O13   O     O_R   0.890830 0.844810 0.552660 -0.536609
O14   O     O_R   0.609170 0.155190 0.052660 -0.536606
O15   O     O_R   0.390830 0.655190 0.447340 -0.536608
O16   O     O_R   0.109170 0.344810 0.947340 -0.536607
C5    C     C_R   0.552774 0.872918 0.425824 0.671360
C6    C     C_R   0.947225 0.127082 0.925823 0.671365
C7    C     C_R   0.052772 0.627081 0.574176 0.671372
C8    C     C_R   0.447228 0.372919 0.074176 0.671373
O17   O     O_3   0.557310 0.749980 0.536820 -0.370836
O18   O     O_3   0.942690 0.250020 0.036820 -0.370838
O19   O     O_3   0.057310 0.750020 0.463180 -0.370842
O20   O     O_3   0.442690 0.249980 0.963180 -0.370846
V1    V     V_3+5 0.832160 0.749980 0.493170 1.460945
V2    V     V_3+5 0.667840 0.250020 0.993170 1.460936
V3    V     V_3+5 0.332160 0.750020 0.506830 1.460954
V4    V     V_3+5 0.167840 0.249980 0.006830 1.460941
C9    C     C_R   0.802664 0.588502 0.854897 0.235953
C10   C     C_R   0.697383 0.411508 0.354895 0.235925
C11   C     C_R   0.302588 0.911511 0.145106 0.235916
C12   C     C_R   0.197504 0.088471 0.645111 0.235874
H1    H     H_    0.807905 0.535761 0.943776 0.109400
H2    H     H_    0.692149 0.464251 0.443774 0.109404
H3    H     H_    0.307813 0.964255 0.056228 0.109402
H4    H     H_    0.192303 0.035723 0.556235 0.109411
C13   C     C_R   0.943368 0.447157 0.882677 -0.066567
C14   C     C_R   0.556636 0.552842 0.382678 -0.066574
C15   C     C_R   0.443356 0.052842 0.117322 -0.066576
C16   C     C_R   0.056654 0.947161 0.617321 -0.066592
C17   C     C_R   0.161035 0.477337 0.601073 -0.167426
C18   C     C_R   0.338950 0.522659 0.101074 -0.167425
C19   C     C_R   0.661066 0.022657 0.398924 -0.167430
C20   C     C_R   0.838908 0.977349 0.898919 -0.167422
C21   C     C_R   0.191922 0.408616 0.641208 -0.124742
C22   C     C_R   0.308052 0.591376 0.141211 -0.124756
C23   C     C_R   0.691969 0.091374 0.358786 -0.124756
C24   C     C_R   0.807986 0.908638 0.858779 -0.124763
C25   C     C_R   0.121131 0.413218 0.698661 -0.119461
C26   C     C_R   0.378847 0.586775 0.198664 -0.119460
C27   C     C_R   0.621169 0.086773 0.301334 -0.119461
C28   C     C_R   0.878787 0.913240 0.801327 -0.119460
C29   C     C_R   0.016759 0.487760 0.717885 0.092717
C30   C     C_R   0.483233 0.512237 0.217886 0.092723
C31   C     C_R   0.516774 0.012234 0.282112 0.092725
C32   C     C_R   0.983204 0.987773 0.782109 0.092739
C33   C     C_R   0.976759 0.556090 0.675290 0.057671
C34   C     C_R   0.523242 0.443909 0.175290 0.057675
C35   C     C_R   0.476763 0.943908 0.324709 0.057679
C36   C     C_R   0.023233 0.056094 0.824708 0.057682
C37   C     C_R   0.955397 0.497517 0.778256 0.024359
C38   C     C_R   0.544602 0.502481 0.278257 0.024364
C39   C     C_R   0.455398 0.002480 0.221742 0.024367
C40   C     C_R   0.044595 0.997526 0.721740 0.024378
C41   C     C_R   0.843475 0.572773 0.793834 0.078330
C42   C     C_R   0.656546 0.427232 0.293833 0.078325
C43   C     C_R   0.343442 0.927232 0.206167 0.078321
C44   C     C_R   0.156597 0.072761 0.706170 0.078309
C45   C     C_R   0.779123 0.630652 0.748078 -0.032420
C46   C     C_R   0.720896 0.369354 0.248076 -0.032417
C47   C     C_R   0.279096 0.869352 0.251925 -0.032420
C48   C     C_R   0.220939 0.130637 0.751931 -0.032419
C49   C     C_R   0.858057 0.625953 0.691346 -0.289761
C50   C     C_R   0.641955 0.374051 0.191345 -0.289780
C51   C     C_R   0.358043 0.874048 0.308655 -0.289785
C52   C     C_R   0.141973 0.125946 0.808658 -0.289808
C53   C     C_R   0.001033 0.434654 0.823748 -0.187267
C54   C     C_R   0.498954 0.565341 0.323750 -0.187270
C55   C     C_R   0.501049 0.065338 0.176249 -0.187276
C56   C     C_R   0.998922 0.934674 0.676244 -0.187287
C57   C     C_R   0.849138 0.524918 0.897905 -0.207546
C58   C     C_R   0.650898 0.475089 0.397903 -0.207535
C59   C     C_R   0.349076 0.975091 0.102098 -0.207534
C60   C     C_R   0.150998 0.024896 0.602101 -0.207519
C61   C     C_R   0.053914 0.551518 0.616934 -0.071418
C62   C     C_R   0.446084 0.448481 0.116934 -0.071419
C63   C     C_R   0.553923 0.948480 0.383065 -0.071417
C64   C     C_R   0.946068 0.051522 0.883063 -0.071422
H5    H     H_    0.074704 0.373611 0.814729 0.127706
H6    H     H_    0.425263 0.626378 0.314732 0.127716
H7    H     H_    0.574753 0.126374 0.185265 0.127720
H8    H     H_    0.925171 0.873650 0.685256 0.127738
H9    H     H_    0.223447 0.473158 0.557267 0.114092
H10   H     H_    0.276535 0.526837 0.057269 0.114095
H11   H     H_    0.723483 0.026836 0.442729 0.114092
H12   H     H_    0.776488 0.973170 0.942724 0.114095
H13   H     H_    0.150104 0.356968 0.726762 0.150583
H14   H     H_    0.349867 0.643023 0.226765 0.150578
H15   H     H_    0.650151 0.143020 0.273232 0.150579
H16   H     H_    0.849791 0.856996 0.773223 0.150571
H17   H     H_    0.275637 0.352144 0.628056 0.151562
H18   H     H_    0.224323 0.647844 0.128060 0.151581
H19   H     H_    0.775703 0.147842 0.371936 0.151586
H20   H     H_    0.724238 0.852174 0.871926 0.151594
H21   H     H_    0.815014 0.674258 0.658343 0.165528
H22   H     H_    0.685002 0.325747 0.158342 0.165519
H23   H     H_    0.314997 0.825744 0.341658 0.165515
H24   H     H_    0.185026 0.174247 0.841662 0.165507
C65   C     C_2   0.611792 0.687693 0.754736 0.805875
O21   O     O_2   0.600609 0.758879 0.728207 -0.582336
O22   O     O_R   0.460537 0.656504 0.787536 -0.649595
H25   H     H_    0.352955 0.699956 0.787418 0.295330
C66   C     C_2   0.888228 0.312315 0.254733 0.805892
O23   O     O_2   0.899379 0.241112 0.228221 -0.582332
O24   O     O_R   0.039516 0.343521 0.287511 -0.649593
H26   H     H_    0.147095 0.300068 0.287394 0.295329
C67   C     C_2   0.111762 0.812311 0.245271 0.805909
O25   O     O_2   0.100624 0.741103 0.271776 -0.582332
O26   O     O_R   0.960461 0.843521 0.212501 -0.649594
H27   H     H_    0.852881 0.800066 0.212618 0.295329
C68   C     C_2   0.388287 0.187669 0.745284 0.805936
O27   O     O_2   0.399389 0.258898 0.771767 -0.582326
O28   O     O_R   0.539634 0.156430 0.712547 -0.649592
H28   H     H_    0.647218 0.199882 0.712668 0.295326
N1    N     N_3   0.724112 0.671285 0.874529 -0.682448
H29   H     H_    0.817657 0.701224 0.903903 0.213256
H30   H     H_    0.603576 0.657126 0.898466 0.247739
N2    N     N_3   0.775982 0.328735 0.374526 -0.682444
H31   H     H_    0.682467 0.298790 0.403907 0.213247
H32   H     H_    0.896526 0.342909 0.398455 0.247741
N3    N     N_3   0.223964 0.828741 0.125476 -0.682439
H33   H     H_    0.317463 0.798796 0.096090 0.213241
H34   H     H_    0.103414 0.842920 0.101552 0.247743
N4    N     N_3   0.276222 0.171222 0.625484 -0.682421
H35   H     H_    0.182790 0.201180 0.596081 0.213227
H36   H     H_    0.396797 0.157014 0.601579 0.247751

loop_
_geom_bond_atom_site_label_1
_geom_bond_atom_site_label_2
_ccdc_geom_bond_type
C30   C34   A    
O1    C5    A    
C54   H6    S    
C27   C31   A    
O19   V1    S    
O13   V1    S    
O3    C7    A    
C14   C54   A    
H3    C59   S    
C44   C48   A    
O15   V3    S    
C45   C65   S    
O26   H27   S    
C35   C51   A    
C12   C60   A    
C39   C55   A    
C30   C38   A    
C1    C14   S    
C22   C26   A    
H2    C58   S    
H1    C57   S    
N1    H29   S    
C4    C15   S    
C66   O24   S    
C56   H8    S    
O4    C8    A    
C37   C41   A    
O22   H25   S    
C27   H15   S    
C15   C55   A    
O1    V3    S    
C19   H11   S    
O2    V4    S    
C10   C58   A    
O3    V1    S    
C9    C57   A    
C42   C46   A    
C31   C39   A    
C11   C59   A    
C1    O15   A    
C25   H13   S    
N2    H31   S    
O2    C6    A    
C7    C61   S    
C41   C45   A    
C14   C58   A    
C17   C61   A    
C10   C42   A    
C39   C43   A    
C40   C44   A    
O11   C7    A    
C18   H10   S    
C55   H7    S    
O12   C8    A    
C2    C13   S    
C48   C68   S    
C36   C52   A    
C12   N4    S    
O10   V2    S    
O16   V4    S    
C33   C61   A    
O5    V1    S    
C34   C50   A    
C20   H12   S    
O7    V3    S    
C40   C56   A    
N3    H33   S    
C28   H16   S    
C11   N3    S    
C25   C29   A    
O18   V4    S    
C19   C23   A    
O11   V3    S    
C28   C32   A    
O9    V1    S    
O8    V4    S    
O7    C3    A    
O5    C1    A    
C38   C54   A    
C53   H5    S    
C37   C53   A    
C17   C21   A    
O8    C4    A    
C13   C53   A    
C52   H24   S    
C26   C30   A    
O9    C5    A    
C3    C16   S    
C50   H22   S    
C49   H21   S    
C32   C40   A    
C67   O25   D    
N4    H36   S    
O14   V2    S    
C23   H19   S    
O6    V2    S    
C33   C49   A    
C20   C64   A    
C68   O27   D    
C36   C64   A    
C35   C63   A    
O28   H28   S    
C22   H18   S    
C65   O21   D    
C5    C63   S    
C9    N1    S    
N3    H34   S    
C46   C66   S    
C3    O13   A    
C45   C49   A    
C47   C67   S    
C19   C63   A    
O17   V3    S    
C26   H14   S    
C48   C52   A    
C29   C37   A    
C16   C56   A    
C8    C62   S    
O6    C2    A    
C21   H17   S    
O24   H26   S    
C29   C33   A    
C18   C62   A    
C9    C41   A    
O12   V4    S    
C13   C57   A    
C18   C22   A    
C31   C35   A    
C51   H23   S    
C32   C36   A    
C15   C59   A    
O10   C6    A    
O20   V2    S    
C17   H9    S    
C66   O23   D    
C43   C47   A    
H4    C60   S    
C38   C42   A    
C2    O16   A    
C21   C25   A    
C34   C62   A    
C23   C27   A    
C67   O26   S    
N4    H35   S    
C11   C43   A    
C10   N2    S    
C12   C44   A    
C20   C24   A    
C24   H20   S    
N2    H32   S    
C46   C50   A    
C4    O14   A    
C68   O28   S    
C6    C64   S    
C65   O22   S    
C16   C60   A    
C47   C51   A    
O4    V2    S    
C24   C28   A    
N1    H30   S    
