data_mof_unit_18214.cif
_audit_creation_date              2013-03-05T16:00:45-0500
_audit_creation_method            fapswitch 2.2
_symmetry_space_group_name_H-M    P1
_symmetry_Int_Tables_number       1
_space_group_crystal_system       triclinic
_cell_length_a                    21.045418
_cell_length_b                    21.515577
_cell_length_c                    13.994035
_cell_angle_alpha                 90.087374
_cell_angle_beta                  90.622927
_cell_angle_gamma                 90.701822
_cell_volume                      6335.70083752

loop_
_atom_site_label
_atom_site_type_symbol
_atom_site_description
_atom_site_fract_x
_atom_site_fract_y
_atom_site_fract_z
_atom_type_partial_charge
O1    O     O_R   0.066090 0.433930 0.580280 -0.610920
O2    O     O_R   0.933910 0.566070 0.419720 -0.603224
O3    O     O_R   0.933910 0.566070 0.580280 -0.625640
O4    O     O_R   0.066090 0.433930 0.419720 -0.612169
O5    O     O_R   0.933910 0.433930 0.419720 -0.629362
O6    O     O_R   0.066090 0.566070 0.580280 -0.621716
O7    O     O_R   0.066090 0.566070 0.419720 -0.615964
O8    O     O_R   0.933910 0.433930 0.580280 -0.627909
O9    O     O_R   0.566090 0.933930 0.580280 -0.606565
O10   O     O_R   0.433910 0.066070 0.419720 -0.648691
O11   O     O_R   0.433910 0.066070 0.580280 -0.598028
O12   O     O_R   0.566090 0.933930 0.419720 -0.612411
O13   O     O_R   0.433910 0.933930 0.419720 -0.631421
O14   O     O_R   0.566090 0.066070 0.580280 -0.632339
O15   O     O_R   0.566090 0.066070 0.419720 -0.611422
O16   O     O_R   0.433910 0.933930 0.580280 -0.616572
C1    C     C_R   0.087057 0.413727 0.500253 0.932483
C2    C     C_R   0.911691 0.585094 0.499660 0.906663
C3    C     C_R   0.913184 0.413913 0.499486 0.865269
C4    C     C_R   0.086998 0.585972 0.500573 0.977164
C5    C     C_R   0.587232 0.913819 0.500410 0.933804
C6    C     C_R   0.412824 0.086371 0.499470 0.885038
C7    C     C_R   0.413790 0.913209 0.499632 0.866478
C8    C     C_R   0.586627 0.086223 0.500429 0.928142
Zn1   Zn    Zn3+2 0.000000 0.500000 0.607200 0.957105
Zn2   Zn    Zn3+2 0.000000 0.500000 0.392800 0.959946
Zn3   Zn    Zn3+2 0.500000 1.000000 0.607200 0.957448
Zn4   Zn    Zn3+2 0.500000 1.000000 0.392800 0.943209
C9    C     C_R   0.116950 0.694351 0.484954 0.021353
C10   C     C_R   0.884312 0.304793 0.490348 0.027060
C11   C     C_R   0.862408 0.676645 0.427975 0.046409
C12   C     C_R   0.137032 0.324200 0.424403 0.031526
C13   C     C_R   0.617506 0.194156 0.523332 0.011327
C14   C     C_R   0.384488 0.803953 0.524694 0.058162
C15   C     C_R   0.362606 0.176107 0.575253 0.051947
C16   C     C_R   0.634873 0.821141 0.573841 0.018204
C17   C     C_R   0.134856 0.633527 0.503432 -0.066316
C18   C     C_R   0.865209 0.366599 0.498090 -0.117915
C19   C     C_R   0.860717 0.630029 0.498118 -0.135464
C20   C     C_R   0.135854 0.366777 0.500232 -0.099321
C21   C     C_R   0.634728 0.133368 0.501912 -0.102572
C22   C     C_R   0.366889 0.864652 0.499833 -0.127053
C23   C     C_R   0.364580 0.134213 0.498348 -0.148281
C24   C     C_R   0.635170 0.865883 0.501108 -0.100892
C25   C     C_R   0.196066 0.618003 0.533793 -0.013051
C26   C     C_R   0.801099 0.382828 0.506606 0.030933
C27   C     C_R   0.810231 0.626216 0.564140 0.045372
C28   C     C_R   0.181365 0.365674 0.574598 0.014506
C29   C     C_R   0.697420 0.116367 0.484926 0.015305
C30   C     C_R   0.303491 0.880743 0.482588 0.009348
C31   C     C_R   0.320797 0.138184 0.421169 0.019387
C32   C     C_R   0.680090 0.864820 0.427711 0.012853
C33   C     C_R   0.242606 0.665279 0.543719 -0.021487
C34   C     C_R   0.756051 0.335252 0.520451 -0.015203
C35   C     C_R   0.766692 0.675377 0.568527 0.005184
C36   C     C_R   0.228894 0.320068 0.574209 -0.016098
C37   C     C_R   0.745916 0.162170 0.489397 -0.004559
C38   C     C_R   0.255496 0.836013 0.494576 0.000033
C39   C     C_R   0.273346 0.183378 0.422601 0.011298
C40   C     C_R   0.722766 0.814986 0.422026 -0.023599
C41   C     C_R   0.225793 0.727101 0.518829 -0.032186
C42   C     C_R   0.774279 0.272559 0.506877 -0.063678
C43   C     C_R   0.767939 0.721848 0.496348 -0.048247
C44   C     C_R   0.228199 0.275136 0.499241 -0.032533
C45   C     C_R   0.728210 0.224844 0.507653 -0.056095
C46   C     C_R   0.272626 0.774173 0.517061 -0.064744
C47   C     C_R   0.272972 0.227077 0.498869 -0.053113
C48   C     C_R   0.723143 0.770006 0.496541 -0.029263
C49   C     C_R   0.162428 0.741847 0.493281 0.036008
C50   C     C_R   0.838341 0.257757 0.490627 0.084678
C51   C     C_R   0.814100 0.720550 0.424000 0.026264
C52   C     C_R   0.183534 0.278666 0.423449 0.041267
C53   C     C_R   0.664165 0.240287 0.525425 0.082493
C54   C     C_R   0.336745 0.758851 0.534895 0.056954
C55   C     C_R   0.317267 0.222921 0.574949 0.033376
C56   C     C_R   0.679523 0.773579 0.572290 0.041511
C57   C     C_R   0.305471 0.653417 0.575588 0.478110
C58   C     C_R   0.693086 0.348598 0.546666 0.464851
C59   C     C_R   0.721303 0.678882 0.642420 0.497291
C60   C     C_R   0.277011 0.317376 0.645745 0.472775
C61   C     C_R   0.810988 0.148020 0.476861 0.452754
C62   C     C_R   0.190611 0.851016 0.483986 0.528154
C63   C     C_R   0.226717 0.186651 0.348953 0.521228
C64   C     C_R   0.765269 0.808511 0.344984 0.466906
C65   C     C_R   0.855773 0.196215 0.475554 -0.285375
C66   C     C_R   0.145590 0.803738 0.477793 -0.331670
C67   C     C_R   0.185202 0.236138 0.348003 -0.346864
C68   C     C_R   0.811769 0.763555 0.349172 -0.316146
C69   C     C_R   0.352115 0.698878 0.564835 -0.288440
C70   C     C_R   0.647691 0.301561 0.546429 -0.277608
C71   C     C_R   0.680614 0.729255 0.645126 -0.341815
C72   C     C_R   0.316990 0.266748 0.648599 -0.317424
H1    H     H_    0.904708 0.184914 0.461606 0.181985
H2    H     H_    0.096959 0.816766 0.463170 0.163274
H3    H     H_    0.154363 0.240806 0.286319 0.151460
H4    H     H_    0.845310 0.762514 0.291204 0.158151
H5    H     H_    0.400556 0.686870 0.583148 0.178167
H6    H     H_    0.599365 0.313665 0.563810 0.185435
H7    H     H_    0.649477 0.732709 0.705624 0.156171
H8    H     H_    0.349623 0.264231 0.708654 0.159402
C73   C     C_R   0.943555 0.501358 0.797155 -0.041036
C74   C     C_R   0.056436 0.498342 0.202842 -0.050227
C75   C     C_R   0.056456 0.498672 0.798958 -0.057965
C76   C     C_R   0.943563 0.501627 0.201023 -0.054935
C77   C     C_R   0.443527 0.998278 0.797143 -0.047761
C78   C     C_R   0.556474 0.002086 0.202860 -0.057542
C79   C     C_R   0.556483 0.001563 0.798979 -0.055714
C80   C     C_R   0.443545 0.997767 0.201006 -0.063846
N1    N     N_R   0.000000 0.500000 0.750030 -0.107074
N2    N     N_R   0.000000 0.500000 0.249970 -0.104355
N3    N     N_R   0.500000 1.000000 0.750030 -0.103470
N4    N     N_R   0.500000 1.000000 0.249970 -0.104521
C81   C     C_R   0.057829 0.498492 0.899674 0.014436
C82   C     C_R   0.942189 0.501623 0.100287 0.014382
C83   C     C_R   0.942187 0.501497 0.897815 0.013655
C84   C     C_R   0.057814 0.498337 0.102156 0.011465
C85   C     C_R   0.557862 0.001625 0.899708 0.013836
C86   C     C_R   0.442171 0.997802 0.100295 0.018728
C87   C     C_R   0.442163 0.998032 0.897821 0.011135
C88   C     C_R   0.557850 0.001975 0.102185 0.014276
C89   C     C_R   0.000007 0.499984 0.949354 0.084194
C90   C     C_R   0.000004 0.499979 0.050615 0.085621
C91   C     C_R   0.500014 0.999792 0.949370 0.084913
C92   C     C_R   0.500014 0.999806 0.050633 0.085653
C93   C     C_R   0.115318 0.496881 0.951631 -0.203756
C94   C     C_R   0.884702 0.503204 0.048300 -0.209006
C95   C     C_R   0.884694 0.503103 0.947902 -0.194697
C96   C     C_R   0.115305 0.496762 0.052033 -0.202662
C97   C     C_R   0.615372 0.003689 0.951703 -0.204484
C98   C     C_R   0.384651 0.995949 0.048326 -0.196162
C99   C     C_R   0.384646 0.996123 0.947928 -0.206042
C100  C     C_R   0.615346 0.004138 0.052081 -0.203363
H9    H     H_    0.899679 0.502336 0.756133 0.138021
H10   H     H_    0.100296 0.497056 0.243917 0.136152
H11   H     H_    0.100321 0.497796 0.759304 0.139700
H12   H     H_    0.899708 0.502897 0.240693 0.130603
H13   H     H_    0.399632 0.997057 0.756060 0.131879
H14   H     H_    0.600359 0.003840 0.243922 0.141280
H15   H     H_    0.600367 0.002858 0.759316 0.133907
H16   H     H_    0.399677 0.995908 0.240619 0.123730
H17   H     H_    0.160255 0.495681 0.914644 0.138733
H18   H     H_    0.839769 0.504490 0.085255 0.141091
H19   H     H_    0.839755 0.504312 0.909462 0.147936
H20   H     H_    0.160236 0.495478 0.090453 0.142675
H21   H     H_    0.660340 0.005201 0.914780 0.140091
H22   H     H_    0.339695 0.994463 0.085303 0.147673
H23   H     H_    0.339683 0.994750 0.909500 0.140761
H24   H     H_    0.660266 0.006371 0.090494 0.136841
N5    N     N_3   0.052197 0.706533 0.457948 -0.456908
H25   H     H_    0.032135 0.735702 0.508937 0.181397
H26   H     H_    0.051772 0.728442 0.391320 0.191640
N6    N     N_3   0.950280 0.289693 0.480137 -0.481565
H27   H     H_    0.967090 0.311528 0.418644 0.206364
H28   H     H_    0.975655 0.307021 0.539261 0.191009
N7    N     N_3   0.914416 0.679377 0.362072 -0.422604
H29   H     H_    0.935548 0.723553 0.365334 0.181013
H30   H     H_    0.897063 0.670955 0.292913 0.184692
N8    N     N_3   0.088648 0.326087 0.350903 -0.444323
H31   H     H_    0.064908 0.283157 0.347499 0.175529
H32   H     H_    0.109872 0.335825 0.285308 0.193736
N9    N     N_3   0.552462 0.209325 0.542228 -0.481889
H33   H     H_    0.524238 0.195767 0.483682 0.189174
H34   H     H_    0.537959 0.184355 0.602271 0.207939
N10   N     N_3   0.450208 0.786717 0.537237 -0.472764
H35   H     H_    0.461462 0.756711 0.481227 0.177924
H36   H     H_    0.481536 0.824306 0.531303 0.194726
N11   N     N_3   0.409147 0.172391 0.651162 -0.438884
H37   H     H_    0.385968 0.164512 0.715817 0.190824
H38   H     H_    0.435158 0.214039 0.654805 0.174376
N12   N     N_3   0.588018 0.824042 0.647873 -0.437459
H39   H     H_    0.610973 0.830772 0.713782 0.192499
H40   H     H_    0.561806 0.782464 0.648893 0.188385
N13   N     N_3   0.209545 0.553479 0.548897 -0.466812
H41   H     H_    0.217961 0.546064 0.621483 0.200903
H42   H     H_    0.248510 0.540569 0.508008 0.227616
N14   N     N_3   0.780744 0.446321 0.495778 -0.436168
H43   H     H_    0.817586 0.475837 0.474558 0.146271
H44   H     H_    0.748465 0.447299 0.438463 0.212945
N15   N     N_3   0.799806 0.571871 0.622775 -0.396501
H45   H     H_    0.831631 0.536304 0.610972 0.187947
H46   H     H_    0.755968 0.552737 0.601618 0.193359
N16   N     N_3   0.177374 0.410938 0.649807 -0.433332
H47   H     H_    0.172045 0.388500 0.715486 0.233235
H48   H     H_    0.217597 0.439656 0.649591 0.205604
N17   N     N_3   0.709374 0.052321 0.463113 -0.451522
H49   H     H_    0.737876 0.033027 0.516649 0.210011
H50   H     H_    0.730560 0.049200 0.396117 0.236372
N18   N     N_3   0.288257 0.941607 0.447924 -0.419915
H51   H     H_    0.305347 0.974996 0.496456 0.156730
H52   H     H_    0.310486 0.947695 0.382165 0.185704
N19   N     N_3   0.324542 0.097321 0.340219 -0.389300
H53   H     H_    0.324054 0.051233 0.362759 0.172501
H54   H     H_    0.365277 0.107838 0.301094 0.222927
N20   N     N_3   0.683849 0.917299 0.364478 -0.435889
H55   H     H_    0.730349 0.934884 0.363567 0.228260
H56   H     H_    0.668131 0.904361 0.296260 0.219577
O17   O     O_3   0.323416 0.597184 0.614593 -0.669017
C101  C     C_3   0.315300 0.598854 0.715077 0.047458
H57   H     H_    0.308001 0.550160 0.739060 0.165210
H58   H     H_    0.271981 0.624569 0.736814 0.126915
C102  C     C_3   0.374399 0.625698 0.766365 -0.351699
H59   H     H_    0.417745 0.603591 0.738082 0.229590
H60   H     H_    0.377967 0.676505 0.753455 0.216217
C103  C     C_3   0.371382 0.615165 0.874030 -0.948671
H61   H     H_    0.329146 0.638408 0.903957 0.264067
H62   H     H_    0.414798 0.634946 0.908814 0.267987
H63   H     H_    0.368659 0.564728 0.890257 0.268161
O18   O     O_3   0.675303 0.407278 0.575783 -0.641834
C104  C     C_3   0.686800 0.413921 0.675353 0.104404
H64   H     H_    0.714441 0.457594 0.686856 0.158333
H65   H     H_    0.715717 0.376010 0.708076 0.123866
C105  C     C_3   0.623510 0.418565 0.727515 -0.371157
H66   H     H_    0.596269 0.458458 0.698746 0.226278
H67   H     H_    0.595019 0.375436 0.715181 0.220528
C106  C     C_3   0.633764 0.427310 0.834844 -0.973413
H68   H     H_    0.659123 0.386843 0.865443 0.270160
H69   H     H_    0.587050 0.431201 0.870360 0.271190
H70   H     H_    0.661970 0.470317 0.849411 0.265668
O19   O     O_3   0.721473 0.637270 0.718342 -0.625391
C107  C     C_3   0.661150 0.607764 0.728601 0.060578
H71   H     H_    0.667604 0.556982 0.720665 0.157398
H72   H     H_    0.625081 0.620956 0.673299 0.126412
C108  C     C_3   0.635492 0.620285 0.828672 -0.328222
H73   H     H_    0.666091 0.596848 0.882533 0.222083
H74   H     H_    0.636874 0.670967 0.843853 0.221027
C109  C     C_3   0.567143 0.596657 0.838342 -0.977128
H75   H     H_    0.535311 0.622209 0.788702 0.263169
H76   H     H_    0.550793 0.604328 0.912548 0.268405
H77   H     H_    0.563865 0.546225 0.822049 0.278392
O20   O     O_3   0.283999 0.361782 0.716996 -0.669031
C110  C     C_3   0.340904 0.396594 0.703181 0.048934
H78   H     H_    0.330895 0.436614 0.655372 0.153607
H79   H     H_    0.379806 0.369306 0.670303 0.141386
C111  C     C_3   0.365148 0.420963 0.799679 -0.315435
H80   H     H_    0.330088 0.453674 0.829673 0.209145
H81   H     H_    0.370358 0.381432 0.850097 0.232083
C112  C     C_3   0.429455 0.453942 0.790119 -0.981379
H82   H     H_    0.466046 0.420614 0.766550 0.265171
H83   H     H_    0.444499 0.473654 0.860272 0.269295
H84   H     H_    0.426256 0.492184 0.737264 0.278767
O21   O     O_3   0.830860 0.087893 0.459124 -0.665981
C113  C     C_3   0.873805 0.067513 0.531069 0.061279
H85   H     H_    0.853598 0.024668 0.563649 0.150498
H86   H     H_    0.881504 0.101229 0.591073 0.131247
C114  C     C_3   0.937486 0.051442 0.485959 -0.318370
H87   H     H_    0.930869 0.011020 0.437137 0.229210
H88   H     H_    0.955363 0.091241 0.443174 0.217039
C115  C     C_3   0.987086 0.035818 0.562107 -0.986282
H89   H     H_    0.994720 0.075830 0.611334 0.268043
H90   H     H_    0.032892 0.025554 0.527362 0.273740
H91   H     H_    0.971512 0.994571 0.603779 0.271714
O22   O     O_3   0.169689 0.911524 0.476432 -0.640545
C116  C     C_3   0.167702 0.939009 0.568492 0.077247
H92   H     H_    0.165379 0.990132 0.558198 0.171055
H93   H     H_    0.211608 0.930335 0.611522 0.133675
C117  C     C_3   0.108805 0.917486 0.623804 -0.396650
H94   H     H_    0.065837 0.921830 0.577695 0.234863
H95   H     H_    0.113634 0.867870 0.644142 0.218398
C118  C     C_3   0.100559 0.955658 0.714719 -0.948102
H96   H     H_    0.142417 0.950114 0.762861 0.263255
H97   H     H_    0.057401 0.939364 0.752645 0.268112
H98   H     H_    0.095067 0.005638 0.697158 0.269535
O23   O     O_3   0.225707 0.145044 0.272799 -0.625923
C119  C     C_3   0.167109 0.111845 0.266776 0.069580
H99   H     H_    0.165069 0.088904 0.195617 0.169824
H100  H     H_    0.125010 0.142470 0.269254 0.121645
C120  C     C_3   0.162163 0.061208 0.343582 -0.344602
H101  H     H_    0.202576 0.028794 0.336978 0.251097
H102  H     H_    0.164138 0.082633 0.415873 0.204649
C121  C     C_3   0.099811 0.024707 0.332720 -0.919913
H103  H     H_    0.058731 0.056295 0.339381 0.250963
H104  H     H_    0.096366 0.988936 0.389334 0.300135
H105  H     H_    0.097465 0.001125 0.262087 0.262606
O24   O     O_3   0.764036 0.847178 0.266174 -0.662478
C122  C     C_3   0.731918 0.816104 0.190393 0.048704
H106  H     H_    0.683084 0.801714 0.212301 0.139370
H107  H     H_    0.758595 0.774261 0.167696 0.145021
C123  C     C_3   0.726622 0.860238 0.105257 -0.315507
H108  H     H_    0.703108 0.903645 0.128064 0.215519
H109  H     H_    0.775024 0.872479 0.079739 0.226790
C124  C     C_3   0.688211 0.831053 0.023252 -0.957734
H110  H     H_    0.710968 0.787624 0.998587 0.264304
H111  H     H_    0.685927 0.864158 0.962511 0.266741
H112  H     H_    0.638958 0.820345 0.046520 0.266359

loop_
_geom_bond_atom_site_label_1
_geom_bond_atom_site_label_2
_geom_bond_distance
_ccdc_geom_bond_type
O1    Zn1   2.038493 S    
N19   H54   1.044880 S    
C68   H4    1.081493 S    
C114  H88   1.109882 S    
C94   C95   1.404966 A    
C83   C89   1.408520 A    
C17   C25   1.396624 A    
C64   O24   1.382687 S    
C16   N12   1.439830 S    
O2    C2    1.285420 A    
C40   C64   1.416140 A    
C102  H59   1.110377 S    
C63   O23   1.390568 S    
C108  H73   1.111594 S    
C14   C22   1.405078 A    
C2    C19   1.452927 S    
C118  H98   1.110566 S    
C30   N18   1.435907 S    
C15   C23   1.404060 A    
C107  H72   1.117524 S    
N9    H33   1.045755 S    
C103  H62   1.110454 S    
C108  C109  1.527216 S    
C45   C53   1.416672 A    
C91   C92   1.417076 A    
C12   C52   1.393356 A    
N6    H28   1.045619 S    
C78   N4    1.365673 A    
N13   H41   1.042057 S    
O10   C6    1.283447 A    
C124  H112  1.111421 S    
C10   C18   1.398324 A    
O7    Zn2   2.008927 S    
C84   C90   1.408459 A    
C32   C40   1.409803 A    
O12   Zn4   2.033699 S    
C54   C69   1.397914 A    
C62   O22   1.383251 S    
N10   H35   1.045694 S    
C122  H107  1.114446 S    
C39   C63   1.417773 A    
C53   C70   1.398901 A    
O24   C122  1.414092 S    
C14   N10   1.445265 S    
N5    H26   1.045427 S    
C121  H105  1.110707 S    
C116  H92   1.111158 S    
C82   C94   1.405745 A    
C120  C121  1.527041 S    
C98   H22   1.083443 S    
C78   H14   1.082653 S    
O6    Zn1   2.015401 S    
N7    H30   1.045477 S    
N12   H39   1.045578 S    
C110  H79   1.116144 S    
C61   O21   1.387313 S    
C46   C54   1.412699 A    
C117  C118  1.525911 S    
C10   N6    1.438287 S    
C104  C105  1.530073 S    
C29   C37   1.410865 A    
C79   C85   1.409589 A    
O13   C7    1.278992 A    
O3    C2    1.285945 A    
N18   H52   1.044548 S    
O21   C113  1.419165 S    
O14   C8    1.277067 A    
C14   C54   1.396875 A    
C75   H11   1.082616 S    
N16   H47   1.045318 S    
C87   C91   1.408480 A    
C27   N15   1.445380 S    
C16   C56   1.398047 A    
C39   C47   1.421437 A    
C43   C48   1.409384 A    
C65   H1    1.080818 S    
C41   C46   1.404984 A    
C38   C46   1.417666 A    
N16   H48   1.041922 S    
N17   H49   1.044358 S    
C122  H106  1.115993 S    
C93   H17   1.083572 S    
C119  H99   1.110927 S    
C123  C124  1.526398 S    
C117  H95   1.110817 S    
C93   C96   1.405048 A    
C15   N11   1.440038 S    
C103  H63   1.109938 S    
O13   Zn4   2.015404 S    
C99   H23   1.083360 S    
C101  H57   1.110008 S    
O14   Zn3   2.015401 S    
C85   C97   1.405610 A    
Zn2   N2    1.998769 S    
C59   C71   1.390217 A    
C123  H108  1.110313 S    
C115  H91   1.110710 S    
Zn1   N1    1.998768 S    
C97   C100  1.404728 A    
C78   C88   1.409453 A    
C24   C32   1.403829 A    
O16   Zn3   2.008930 S    
N14   H44   1.045840 S    
N20   H55   1.045097 S    
C77   N3    1.365505 A    
C83   C95   1.405663 A    
Zn3   N3    1.998768 S    
C114  H87   1.111634 S    
N8    H32   1.045577 S    
C8    C21   1.424218 S    
C102  H60   1.110018 S    
C42   C50   1.409876 A    
O17   C101  1.418804 S    
C111  H81   1.111621 S    
C58   C70   1.383157 A    
C21   C29   1.396218 A    
C107  H71   1.108221 S    
N9    H34   1.044384 S    
C115  H90   1.108860 S    
C113  H85   1.111032 S    
C31   C39   1.402621 A    
C9    C49   1.395416 A    
N13   H42   1.045139 S    
C66   H2    1.081935 S    
N7    H29   1.045146 S    
O8    C3    1.279556 A    
N19   H53   1.040973 S    
C113  C114  1.530761 S    
C44   C47   1.407500 A    
C80   C86   1.409347 A    
O3    Zn1   2.033699 S    
C122  C123  1.528620 S    
C32   N20   1.437551 S    
C9    C17   1.390132 A    
C38   C62   1.413285 A    
N11   H38   1.045216 S    
C113  H86   1.117992 S    
C106  H70   1.110630 S    
C60   O20   1.385329 S    
O19   C107  1.421207 S    
C116  H93   1.115226 S    
C124  H111  1.110844 S    
O18   C104  1.418347 S    
C95   H19   1.083561 S    
C34   C42   1.419932 A    
C57   O17   1.383148 S    
C124  H110  1.111394 S    
C62   C66   1.383589 A    
C19   C27   1.417284 A    
C77   H13   1.082782 S    
O12   C5    1.286669 A    
C94   H18   1.083347 S    
Zn4   N4    1.998769 S    
C80   N4    1.365370 A    
C35   C43   1.422551 A    
N18   H51   1.045739 S    
C1    C20   1.449295 S    
C100  H24   1.082923 S    
C60   C72   1.384878 A    
C13   N9    1.438338 S    
C106  H68   1.110764 S    
C74   H10   1.082743 S    
C86   C98   1.405530 A    
C3    C18   1.424936 S    
C25   N13   1.435863 S    
C28   N16   1.436676 S    
C5    C24   1.451545 S    
C35   C59   1.417891 A    
C121  H104  1.107710 S    
C80   H16   1.082365 S    
C59   O19   1.390435 S    
C6    C23   1.454642 S    
C105  C106  1.526097 S    
O11   Zn3   2.033699 S    
C57   C69   1.386763 A    
C117  H94   1.110133 S    
C26   C34   1.401781 A    
C101  C102  1.535372 S    
C36   C44   1.425354 A    
C104  H64   1.109682 S    
C112  H84   1.109394 S    
C30   C38   1.398198 A    
C81   C89   1.408700 A    
O2    Zn2   2.038493 S    
C7    C22   1.428477 S    
C86   C92   1.408507 A    
C105  H66   1.111552 S    
C51   C68   1.399287 A    
C96   H20   1.083337 S    
O9    Zn3   2.038493 S    
C89   C90   1.417061 A    
C55   C72   1.396002 A    
C22   C30   1.401017 A    
C76   C82   1.409678 A    
O4    C1    1.284188 A    
C13   C53   1.387675 A    
N14   H43   1.042193 S    
C43   C51   1.411211 A    
O7    C4    1.280726 A    
O16   C7    1.278754 A    
C109  H76   1.110241 S    
C12   C20   1.401422 A    
C112  H83   1.110211 S    
N8    H31   1.045500 S    
C73   C83   1.409245 A    
C102  C103  1.525851 S    
C123  H109  1.111816 S    
C11   N7    1.439620 S    
C74   N2    1.365614 A    
C47   C55   1.411118 A    
C111  H80   1.111079 S    
C33   C41   1.423384 A    
C118  H96   1.110863 S    
N20   H56   1.043226 S    
N11   H37   1.045645 S    
C52   C67   1.397094 A    
C31   N19   1.436340 S    
C115  H89   1.110807 S    
C72   H8    1.081381 S    
C27   C35   1.409582 A    
C87   C99   1.405683 A    
O10   Zn4   2.038493 S    
C28   C36   1.409807 A    
C67   H3    1.079867 S    
O15   C8    1.278187 A    
C76   H12   1.082807 S    
C42   C45   1.403537 A    
C75   C81   1.409424 A    
C88   C100  1.405392 A    
C79   N3    1.365504 A    
C16   C24   1.402035 A    
C15   C55   1.395870 A    
C37   C45   1.426827 A    
C118  H97   1.110322 S    
C63   C67   1.385558 A    
C116  C117  1.535523 S    
O4    Zn2   2.033699 S    
C120  H101  1.110998 S    
C108  H74   1.110611 S    
O5    C3    1.276398 A    
C73   H9    1.082405 S    
N15   H45   1.037325 S    
C48   C56   1.412430 A    
C109  H77   1.109587 S    
O6    C4    1.276185 A    
O11   C6    1.289147 A    
O1    C1    1.285221 A    
C36   C60   1.417924 A    
C75   N1    1.365463 A    
C41   C49   1.416741 A    
N10   H36   1.041148 S    
C98   C99   1.404981 A    
C85   C91   1.408532 A    
C13   C21   1.394497 A    
N5    H25   1.045440 S    
O8    Zn1   2.008930 S    
C76   N2    1.365478 A    
C4    C17   1.427122 S    
C120  H102  1.111234 S    
O9    C5    1.283948 A    
O15   Zn4   2.008927 S    
C64   C68   1.385200 A    
N12   H40   1.045419 S    
C23   C31   1.415422 A    
C119  C120  1.535007 S    
O23   C119  1.419200 S    
C25   C33   1.409064 A    
C81   C93   1.405581 A    
C11   C51   1.396971 A    
C104  H65   1.119206 S    
C34   C58   1.411593 A    
C70   H6    1.083057 S    
C110  C111  1.528102 S    
C26   N14   1.444384 S    
C97   H21   1.083321 S    
C44   C52   1.412302 A    
C74   C84   1.409620 A    
C79   H15   1.082764 S    
O20   C110  1.419898 S    
C37   C61   1.419215 A    
C58   O18   1.383238 S    
C18   C26   1.404071 A    
C106  H69   1.110435 S    
N17   H50   1.044958 S    
C105  H67   1.110873 S    
C56   C71   1.397104 A    
C9    N5    1.437526 S    
O5    Zn2   2.015404 S    
C82   C90   1.408625 A    
C12   N8    1.440427 S    
C10   C50   1.391508 A    
C29   N17   1.436735 S    
C103  H61   1.110821 S    
C40   C48   1.423762 A    
C119  H100  1.111429 S    
C109  H75   1.110710 S    
C84   C96   1.405846 A    
C114  C115  1.524369 S    
C69   H5    1.082896 S    
C110  H78   1.112013 S    
C11   C19   1.404857 A    
C121  H103  1.110851 S    
C77   C87   1.409514 A    
C101  H58   1.116972 S    
N6    H27   1.044110 S    
C71   H7    1.079224 S    
C33   C57   1.417825 A    
C112  H82   1.110986 S    
C50   C65   1.394660 A    
C73   N1    1.365547 A    
C20   C28   1.407101 A    
C111  C112  1.527636 S    
C107  C108  1.531058 S    
C61   C65   1.392987 A    
C49   C66   1.398753 A    
C88   C92   1.408391 A    
O22   C116  1.417948 S    
N15   H46   1.045320 S    
