data_mof_unit_13186.cif
_audit_creation_date              2012-12-10T17:34:57-0500
_audit_creation_method            fapswitch 2.2
_symmetry_space_group_name_H-M    P1
_symmetry_Int_Tables_number       1
_space_group_crystal_system       triclinic
_cell_length_a                    12.343724
_cell_length_b                    13.272762
_cell_length_c                    13.868989
_cell_angle_alpha                 105.634066
_cell_angle_beta                  73.66616
_cell_angle_gamma                 116.717485
_cell_volume                      1920.40185572

loop_
_atom_site_label
_atom_site_type_symbol
_atom_type_description
_atom_site_fract_x
_atom_site_fract_y
_atom_site_fract_z
_atom_type_partial_charge
C1    C     C_R   0.144351 0.713442 0.510259 0.784073
C2    C     C_1   0.974894 0.507172 0.791920 -0.174206
C3    C     C_R   0.735392 0.976785 0.368258 -0.191515
C4    C     C_R   0.775312 0.165273 0.467703 -0.045347
C5    C     C_R   0.177653 0.912324 0.589938 -0.188091
C6    C     C_R   0.255510 0.024965 0.620810 0.230426
C7    C     C_R   0.382668 0.060992 0.586679 -0.211922
C8    C     C_R   0.434039 0.987911 0.514769 0.036721
C9    C     C_R   0.352675 0.875985 0.478078 0.077130
C10   C     C_R   0.563368 0.022253 0.477579 0.090843
C11   C     C_R   0.608255 0.945305 0.403964 0.167264
C12   C     C_R   0.984140 0.504359 0.686472 0.814761
C13   C     C_R   0.525908 0.839475 0.363576 -0.242734
C14   C     C_R   0.400100 0.806828 0.397624 -0.185327
C15   C     C_R   0.649831 0.131670 0.509268 -0.248682
C16   C     C_R   0.818709 0.086421 0.400016 -0.199350
C17   C     C_R   0.225471 0.836089 0.522364 -0.147935
C18   C     C_R   0.639004 0.673842 0.664625 -0.300446
C19   C     C_R   0.255974 0.348562 0.364251 0.290492
C20   C     C_R   0.335014 0.296987 0.359754 -0.225009
C21   C     C_R   0.420168 0.342420 0.423493 0.125326
C22   C     C_R   0.438309 0.450591 0.484914 -0.022620
C23   C     C_R   0.856194 0.286600 0.485965 0.792352
C24   C     C_R   0.342696 0.490539 0.501812 0.212403
C25   C     C_R   0.543652 0.518075 0.533525 -0.017089
C26   C     C_R   0.540496 0.610597 0.612051 0.167136
C27   C     C_R   0.440071 0.640331 0.636384 -0.277077
C28   C     C_R   0.345021 0.583558 0.580964 -0.148176
C29   C     C_R   0.655493 0.501866 0.503749 0.015012
C30   C     C_R   0.741739 0.647083 0.637228 0.076710
C31   C     C_R   0.015893 0.495634 0.313521 0.808375
C32   C     C_1   0.025321 0.492719 0.208028 -0.181682
C33   C     C_2   0.040239 0.487981 0.013759 -0.160761
C34   C     C_2   0.960322 0.511730 0.986089 -0.162103
C35   C     C_1   0.967605 0.509439 0.880602 0.003727
C36   C     C_1   0.032850 0.490339 0.119283 0.002006
Cu1   Cu    Cu3+1 0.899780 0.525060 0.522890 0.935906
Cu2   Cu    Cu3+1 0.100220 0.474940 0.477110 0.917124
H1    H     H_    0.889107 0.532999 0.042442 0.155315
H2    H     H_    0.340752 0.727314 0.358323 0.170854
H3    H     H_    0.817034 0.694584 0.678690 0.121698
H4    H     H_    0.436809 0.711010 0.696847 0.151936
H5    H     H_    0.636669 0.743619 0.726365 0.138110
H6    H     H_    0.671276 0.442993 0.436658 0.150238
H7    H     H_    0.330300 0.218773 0.307733 0.174366
H8    H     H_    0.274476 0.615030 0.603981 0.204012
H9    H     H_    0.111470 0.466710 0.957430 0.157567
H10   H     H_    0.915919 0.111046 0.367658 0.154236
H11   H     H_    0.558799 0.782334 0.303829 0.143014
H12   H     H_    0.770003 0.917928 0.312861 0.135393
H13   H     H_    0.622573 0.194732 0.563819 0.145999
H14   H     H_    0.079954 0.882830 0.622294 0.152155
H15   H     H_    0.437833 0.147345 0.617288 0.139905
N1    N     N_R   0.748810 0.563010 0.557590 -0.183119
N2    N     N_R   0.250540 0.437620 0.443020 -0.226355
O1    O     O_R   0.025040 0.682470 0.528790 -0.580332
O2    O     O_R   0.194310 0.640150 0.490130 -0.601495
O3    O     O_R   0.903380 0.524130 0.659910 -0.574928
O4    O     O_R   0.072660 0.481800 0.621240 -0.584494
O5    O     O_R   0.805690 0.359850 0.509870 -0.583690
O6    O     O_R   0.974960 0.317530 0.471210 -0.594587
O7    O     O_R   0.927340 0.518200 0.378760 -0.570013
O8    O     O_R   0.096620 0.475870 0.340090 -0.608674
C37   C     C_3   0.182332 0.307724 0.278978 -0.336810
C38   C     C_3   0.188035 0.202935 0.200659 -0.970405
H16   H     H_    0.283898 0.220463 0.158355 0.263651
H17   H     H_    0.151808 0.127183 0.238492 0.259147
H18   H     H_    0.129466 0.182648 0.144356 0.259182
H19   H     H_    0.083714 0.285123 0.310274 0.242067
H20   H     H_    0.218719 0.378561 0.235087 0.218636
C39   C     C_3   0.475115 0.264444 0.431778 -0.878502
H21   H     H_    0.550833 0.263431 0.365928 0.231446
H22   H     H_    0.507577 0.288462 0.504818 0.233067
H23   H     H_    0.403468 0.175556 0.430931 0.245661
C40   C     C_3   0.204520 0.106833 0.693257 -0.876046
H24   H     H_    0.102261 0.066333 0.713971 0.228289
H25   H     H_    0.243123 0.136641 0.764097 0.231948
H26   H     H_    0.230611 0.181846 0.657220 0.243845

loop_
_geom_bond_atom_site_label_1
_geom_bond_atom_site_label_2
_ccdc_geom_bond_type
C2    C35   T    
Cu1   O3    S    
C19   C20   A    
C18   C26   A    
C9    C14   A    
C2    C12   S    
C16   H10   S    
Cu1   O7    S    
C7    C8    A    
C24   N2    A    
C30   N1    A    
C28   H8    S    
C26   C27   A    
C21   C39   S    
C32   C36   T    
C1    O1    A    
C10   C15   A    
C5    C6    A    
C5    C17   A    
C29   N1    A    
C33   C36   S    
C34   C35   S    
C12   O4    A    
Cu2   N2    S    
C8    C9    A    
C38   H17   S    
C22   C25   A    
C5    H14   S    
C18   C30   A    
C15   H13   S    
C20   H7    S    
Cu2   O6    S    
C12   O3    A    
C13   C14   A    
Cu1   O1    S    
C31   O7    A    
C3    H12   S    
C25   C29   A    
C23   O5    A    
C34   H1    S    
C31   O8    A    
C6    C40   S    
C39   H22   S    
C4    C23   S    
C25   C26   A    
C4    C16   A    
C40   H24   S    
Cu1   Cu2   S    
C1    O2    A    
Cu2   O2    S    
C31   C32   S    
C19   C37   S    
C38   H18   S    
C33   C34   D    
C30   H3    S    
C37   H19   S    
C40   H25   S    
C13   H11   S    
Cu1   N1    S    
C9    C17   A    
C37   H20   S    
C29   H6    S    
C33   H9    S    
C22   C24   A    
C7    H15   S    
Cu2   O8    S    
C19   N2    A    
C24   C28   A    
C39   H23   S    
C6    C7    A    
C1    C17   S    
C37   C38   S    
C4    C15   A    
C39   H21   S    
C18   H5    S    
C11   C13   A    
C27   H4    S    
C40   H26   S    
Cu1   O5    S    
C3    C11   A    
C10   C11   A    
C14   H2    S    
Cu2   O4    S    
C23   O6    A    
C20   C21   A    
C8    C10   A    
C38   H16   S    
C27   C28   A    
C21   C22   A    
C3    C16   A    
