data_mof_unit_65342.cif
_audit_creation_date              2012-12-10T19:02:51-0500
_audit_creation_method            fapswitch 2.2
_symmetry_space_group_name_H-M    P1
_symmetry_Int_Tables_number       1
_space_group_crystal_system       triclinic
_cell_length_a                    34.500634
_cell_length_b                    24.42975
_cell_length_c                    24.418104
_cell_angle_alpha                 90.000133
_cell_angle_beta                  89.999924
_cell_angle_gamma                 89.999796
_cell_volume                      20580.6002774

loop_
_atom_site_label
_atom_site_type_symbol
_atom_type_description
_atom_site_fract_x
_atom_site_fract_y
_atom_site_fract_z
_atom_type_partial_charge
C1    C     C_R   0.750015 0.605106 0.394891 0.781558
C2    C     C_R   0.749986 0.894894 0.105110 0.783643
C3    C     C_R   0.458408 0.546640 0.517196 -0.182857
C4    C     C_R   0.041587 0.046652 0.982883 -0.182996
C5    C     C_R   0.958410 0.953377 0.982811 -0.182910
C6    C     C_R   0.041588 0.953355 0.017160 -0.182966
C7    C     C_R   0.958407 0.046625 0.017224 -0.183172
C8    C     C_R   0.581811 0.546768 0.483216 -0.190092
C9    C     C_R   0.418189 0.453231 0.483233 -0.191458
C10   C     C_R   0.581814 0.453237 0.516819 -0.190034
C11   C     C_R   0.418184 0.546771 0.516810 -0.192493
C12   C     C_R   0.081810 0.046783 0.983254 -0.191485
C13   C     C_R   0.250016 0.894892 0.105107 0.782238
C14   C     C_R   0.918187 0.953245 0.983181 -0.192501
C15   C     C_R   0.081812 0.953223 0.016777 -0.190144
C16   C     C_R   0.918183 0.046756 0.016840 -0.192443
C17   C     C_R   0.602082 0.500001 0.500011 0.005406
C18   C     C_R   0.397917 0.500001 0.500015 0.006214
C19   C     C_R   0.102081 0.000002 0.000011 0.005505
C20   C     C_R   0.897916 0.000000 0.000007 0.006929
C21   C     C_R   0.521220 0.500005 0.500033 0.115380
C22   C     C_R   0.478778 0.500002 0.500034 0.115834
C23   C     C_R   0.021219 0.000003 0.000022 0.115464
C24   C     C_R   0.749986 0.105106 0.894890 0.783640
C25   C     C_R   0.978777 0.000001 0.000020 0.116017
C26   C     C_R   0.644263 0.500000 0.500001 0.787970
C27   C     C_R   0.355737 0.500000 0.500003 0.785922
C28   C     C_R   0.144263 0.000000 0.000002 0.787271
C29   C     C_R   0.855736 0.000000 0.000001 0.785162
C30   C     C_R   0.855939 0.500001 0.500000 0.818534
C31   C     C_R   0.144062 0.500003 0.500000 0.816476
C32   C     C_R   0.355939 0.000003 0.000000 0.817842
C33   C     C_R   0.644062 0.000001 0.000000 0.815752
C34   C     C_R   0.081162 0.499989 0.549794 -0.257733
C35   C     C_R   0.749988 0.894896 0.894889 0.782937
C36   C     C_R   0.918840 0.500032 0.450208 -0.255014
C37   C     C_R   0.081162 0.500041 0.450209 -0.256225
C38   C     C_R   0.918840 0.499985 0.549793 -0.255064
C39   C     C_R   0.581162 0.999961 0.950208 -0.257669
C40   C     C_R   0.418840 0.000065 0.049793 -0.256520
C41   C     C_R   0.581162 0.000056 0.049793 -0.257724
C42   C     C_R   0.418840 0.999965 0.950209 -0.255009
C43   C     C_R   0.101533 0.500011 0.500001 -0.045991
C44   C     C_R   0.898468 0.500005 0.500000 -0.046986
C45   C     C_R   0.601533 0.000005 0.000001 -0.045643
C46   C     C_R   0.250014 0.105105 0.105109 0.782289
C47   C     C_R   0.398468 0.000011 0.000001 -0.046643
C48   C     C_R   0.040696 0.500044 0.449866 0.112184
C49   C     C_R   0.959306 0.499989 0.550136 0.112008
C50   C     C_R   0.040696 0.499992 0.550137 0.112663
C51   C     C_R   0.959306 0.500038 0.449866 0.111969
C52   C     C_R   0.540696 0.000063 0.050136 0.112607
C53   C     C_R   0.459306 0.999967 0.949866 0.111911
C54   C     C_R   0.540696 0.999964 0.949866 0.112562
C55   C     C_R   0.459306 0.000068 0.050136 0.112400
C56   C     C_R   0.020361 0.500017 0.500001 0.062415
C57   C     C_R   0.749988 0.105104 0.105111 0.782914
C58   C     C_R   0.979641 0.500015 0.500001 0.062054
C59   C     C_R   0.520361 0.000015 0.000001 0.062393
C60   C     C_R   0.479641 0.000017 0.000001 0.062033
C61   C     C_R   0.020226 0.500069 0.400257 -0.217530
C62   C     C_R   0.979776 0.499966 0.599745 -0.216763
C63   C     C_R   0.020226 0.499967 0.599745 -0.218128
C64   C     C_R   0.979776 0.500066 0.400257 -0.216759
C65   C     C_R   0.520226 0.000116 0.099744 -0.218200
C66   C     C_R   0.479776 0.999917 0.900258 -0.216828
C67   C     C_R   0.520226 0.999916 0.900258 -0.218190
C68   C     C_R   0.250017 0.894892 0.894892 0.782274
C69   C     C_R   0.479776 0.000119 0.099744 -0.217445
C70   C     C_R   0.765406 0.323396 0.739731 -0.180912
C71   C     C_R   0.218302 0.692972 0.276647 -0.180983
C72   C     C_R   0.765406 0.676604 0.260269 -0.180908
C73   C     C_R   0.218272 0.306987 0.723307 -0.180976
C74   C     C_R   0.218305 0.692984 0.723345 -0.180755
C75   C     C_R   0.765430 0.323377 0.260283 -0.180794
C76   C     C_R   0.234576 0.323386 0.260276 -0.180948
C77   C     C_R   0.765432 0.676624 0.739716 -0.180802
C78   C     C_R   0.265431 0.823369 0.239711 -0.180838
C79   C     C_R   0.765676 0.363540 0.699313 -0.190037
C80   C     C_R   0.718289 0.192990 0.776665 -0.180879
C81   C     C_R   0.265399 0.176587 0.760256 -0.181018
C82   C     C_R   0.718289 0.807010 0.223335 -0.180872
C83   C     C_R   0.718306 0.192981 0.223348 -0.180775
C84   C     C_R   0.265432 0.823376 0.760284 -0.180809
C85   C     C_R   0.718304 0.807015 0.776656 -0.180764
C86   C     C_R   0.281715 0.192995 0.223325 -0.181079
C87   C     C_R   0.218429 0.652432 0.316670 -0.190094
C88   C     C_R   0.765677 0.636460 0.300687 -0.190038
C89   C     C_R   0.249984 0.394893 0.605108 0.782999
C90   C     C_R   0.218409 0.347541 0.683298 -0.188650
C91   C     C_R   0.218430 0.652443 0.683323 -0.188640
C92   C     C_R   0.765692 0.363527 0.300696 -0.190061
C93   C     C_R   0.234305 0.363530 0.300695 -0.189081
C94   C     C_R   0.765695 0.636474 0.699303 -0.190081
C95   C     C_R   0.265697 0.863519 0.199299 -0.189047
C96   C     C_R   0.718421 0.152443 0.816682 -0.188683
C97   C     C_R   0.265674 0.136449 0.800681 -0.190076
C98   C     C_R   0.718421 0.847557 0.183318 -0.188678
C99   C     C_R   0.718431 0.152440 0.183326 -0.188694
C100  C     C_R   0.750015 0.394894 0.605109 0.781557
C101  C     C_R   0.265694 0.863526 0.800697 -0.190109
C102  C     C_R   0.718429 0.847556 0.816678 -0.188664
C103  C     C_R   0.281582 0.152448 0.183310 -0.190072
C104  C     C_R   0.750018 0.352520 0.647489 0.003385
C105  C     C_R   0.249990 0.647467 0.352497 0.002272
C106  C     C_R   0.750018 0.647480 0.352511 0.003385
C107  C     C_R   0.249976 0.352514 0.647484 0.002260
C108  C     C_R   0.249992 0.647469 0.647501 0.002831
C109  C     C_R   0.750028 0.352513 0.352517 0.003288
C110  C     C_R   0.249982 0.352519 0.352510 0.002145
C111  C     C_R   0.249987 0.605104 0.394889 0.782956
C112  C     C_R   0.750028 0.647487 0.647483 0.003289
C113  C     C_R   0.250026 0.852511 0.147480 0.002759
C114  C     C_R   0.749983 0.147477 0.852506 0.002172
C115  C     C_R   0.250011 0.147471 0.852501 0.002748
C116  C     C_R   0.749983 0.852523 0.147494 0.002170
C117  C     C_R   0.749992 0.147469 0.147501 0.002854
C118  C     C_R   0.250028 0.852513 0.852517 0.003308
C119  C     C_R   0.749992 0.852531 0.852499 0.002835
C120  C     C_R   0.250017 0.147476 0.147493 0.002390
C121  C     C_R   0.734349 0.300731 0.636440 -0.190589
C122  C     C_R   0.249985 0.394893 0.394891 0.782951
C123  C     C_R   0.281557 0.683270 0.347548 -0.188305
C124  C     C_R   0.734349 0.699269 0.363560 -0.190594
C125  C     C_R   0.281537 0.316698 0.652425 -0.189748
C126  C     C_R   0.281564 0.683265 0.652454 -0.189358
C127  C     C_R   0.734364 0.300722 0.363571 -0.189102
C128  C     C_R   0.265669 0.300739 0.363549 -0.189609
C129  C     C_R   0.734361 0.699277 0.636430 -0.189126
C130  C     C_R   0.234351 0.800725 0.136429 -0.190625
C131  C     C_R   0.781545 0.183289 0.847563 -0.188331
C132  C     C_R   0.234329 0.199254 0.863539 -0.189593
C133  C     C_R   0.750016 0.605108 0.605107 0.782269
C134  C     C_R   0.781545 0.816710 0.152437 -0.188333
C135  C     C_R   0.781562 0.183268 0.152451 -0.189421
C136  C     C_R   0.234362 0.800723 0.863570 -0.189147
C137  C     C_R   0.781564 0.816735 0.847546 -0.189391
C138  C     C_R   0.218452 0.183282 0.152441 -0.189750
C139  C     C_R   0.734592 0.260321 0.676589 -0.180992
C140  C     C_R   0.281694 0.723293 0.307011 -0.180908
C141  C     C_R   0.734592 0.739679 0.323411 -0.180998
C142  C     C_R   0.281665 0.276661 0.692947 -0.180910
C143  C     C_R   0.281702 0.723291 0.692987 -0.180870
C144  C     C_R   0.249988 0.605104 0.605111 0.782956
C145  C     C_R   0.734613 0.260307 0.323427 -0.180896
C146  C     C_R   0.265426 0.260329 0.323401 -0.181058
C147  C     C_R   0.734611 0.739693 0.676575 -0.180903
C148  C     C_R   0.234599 0.760309 0.176572 -0.181123
C149  C     C_R   0.781678 0.223320 0.807034 -0.180816
C150  C     C_R   0.234567 0.239659 0.823384 -0.180941
C151  C     C_R   0.781678 0.776680 0.192965 -0.180821
C152  C     C_R   0.781701 0.223294 0.192984 -0.180894
C153  C     C_R   0.234612 0.760307 0.823426 -0.180912
C154  C     C_R   0.781702 0.776709 0.807012 -0.180878
C155  C     C_R   0.750017 0.394892 0.394893 0.782285
C156  C     C_R   0.218319 0.223311 0.192971 -0.181009
C157  C     C_R   0.749991 0.271346 0.728675 0.114388
C158  C     C_R   0.250000 0.728649 0.271318 0.113943
C159  C     C_R   0.749991 0.728654 0.271325 0.114388
C160  C     C_R   0.249967 0.271303 0.728634 0.113944
C161  C     C_R   0.250006 0.728655 0.728676 0.113920
C162  C     C_R   0.750016 0.271328 0.271342 0.114202
C163  C     C_R   0.250009 0.271345 0.271323 0.114096
C164  C     C_R   0.750016 0.728672 0.728658 0.114211
C165  C     C_R   0.250008 0.771324 0.228654 0.114243
C166  C     C_R   0.250013 0.105104 0.894889 0.782282
C167  C     C_R   0.749984 0.228674 0.771341 0.113763
C168  C     C_R   0.249973 0.228633 0.771302 0.114245
C169  C     C_R   0.749984 0.771326 0.228659 0.113762
C170  C     C_R   0.750006 0.228655 0.228676 0.113947
C171  C     C_R   0.250016 0.771328 0.771341 0.114227
C172  C     C_R   0.750006 0.771345 0.771324 0.113930
C173  C     C_R   0.250016 0.228672 0.228657 0.114137
C174  C     C_R   0.541587 0.546638 0.482850 -0.182697
C175  C     C_R   0.458412 0.453363 0.482865 -0.182926
C176  C     C_R   0.541590 0.453371 0.517207 -0.182741
H1    H     H_    0.096753 0.499967 0.588346 0.163862
H2    H     H_    0.964502 0.499946 0.638522 0.146091
H3    H     H_    0.035500 0.499948 0.638522 0.145434
H4    H     H_    0.964502 0.500085 0.361480 0.146136
H5    H     H_    0.535500 0.000154 0.138521 0.145384
H6    H     H_    0.464502 0.999878 0.861481 0.146092
H7    H     H_    0.535501 0.999876 0.861481 0.145436
H8    H     H_    0.464502 0.000160 0.138521 0.145701
H9    H     H_    0.776824 0.333333 0.779817 0.129879
H10   H     H_    0.193181 0.696801 0.250346 0.129862
H11   H     H_    0.776824 0.666667 0.220183 0.129884
H12   H     H_    0.903249 0.500050 0.411656 0.165428
H13   H     H_    0.193148 0.303156 0.749601 0.129915
H14   H     H_    0.193183 0.696820 0.749643 0.130192
H15   H     H_    0.776851 0.333319 0.220198 0.129866
H16   H     H_    0.223145 0.333333 0.220197 0.129976
H17   H     H_    0.776855 0.666683 0.779800 0.129869
H18   H     H_    0.276856 0.833308 0.279794 0.130265
H19   H     H_    0.693168 0.196817 0.750364 0.129911
H20   H     H_    0.276822 0.166639 0.720174 0.129594
H21   H     H_    0.693168 0.803183 0.249635 0.129913
H22   H     H_    0.693186 0.196815 0.249648 0.130184
H23   H     H_    0.096753 0.500062 0.411656 0.164600
H24   H     H_    0.276854 0.833318 0.720199 0.129859
H25   H     H_    0.693182 0.803179 0.750359 0.130193
H26   H     H_    0.306839 0.196829 0.249619 0.129870
H27   H     H_    0.777628 0.403416 0.708858 0.154092
H28   H     H_    0.193606 0.625497 0.320076 0.154973
H29   H     H_    0.777629 0.596584 0.291142 0.154095
H30   H     H_    0.193589 0.374482 0.679894 0.155208
H31   H     H_    0.193604 0.625515 0.679914 0.155226
H32   H     H_    0.777643 0.403404 0.291149 0.154103
H33   H     H_    0.222338 0.403397 0.291158 0.155728
H34   H     H_    0.903249 0.499964 0.588345 0.165421
H35   H     H_    0.777647 0.596598 0.708849 0.154101
H36   H     H_    0.277655 0.903390 0.208844 0.155765
H37   H     H_    0.693600 0.125503 0.820084 0.155213
H38   H     H_    0.277635 0.096576 0.791144 0.154074
H39   H     H_    0.693600 0.874497 0.179915 0.155216
H40   H     H_    0.693607 0.125509 0.179919 0.155205
H41   H     H_    0.277646 0.903402 0.791150 0.154075
H42   H     H_    0.693603 0.874484 0.820088 0.155222
H43   H     H_    0.306405 0.125512 0.179902 0.154951
H44   H     H_    0.722405 0.291208 0.596536 0.154269
H45   H     H_    0.596753 0.999921 0.911656 0.163838
H46   H     H_    0.306377 0.679850 0.374498 0.156203
H47   H     H_    0.722404 0.708792 0.403464 0.154263
H48   H     H_    0.306361 0.320120 0.625482 0.155971
H49   H     H_    0.306386 0.679837 0.625508 0.154446
H50   H     H_    0.722417 0.291202 0.403473 0.154495
H51   H     H_    0.277629 0.291223 0.403444 0.155911
H52   H     H_    0.722412 0.708797 0.596529 0.154491
H53   H     H_    0.222398 0.791210 0.096529 0.154246
H54   H     H_    0.806366 0.179871 0.874512 0.156200
H55   H     H_    0.222378 0.208779 0.903438 0.155938
H56   H     H_    0.403248 0.000105 0.088345 0.164632
H57   H     H_    0.806367 0.820129 0.125488 0.156202
H58   H     H_    0.806383 0.179842 0.125503 0.154420
H59   H     H_    0.222414 0.791203 0.903472 0.154465
H60   H     H_    0.806387 0.820164 0.874490 0.154440
H61   H     H_    0.193628 0.179859 0.125497 0.155933
H62   H     H_    0.526439 0.582736 0.468546 0.131260
H63   H     H_    0.473561 0.417261 0.468571 0.131485
H64   H     H_    0.526445 0.417273 0.531517 0.131270
H65   H     H_    0.473553 0.582742 0.531495 0.131101
H66   H     H_    0.026439 0.082762 0.968608 0.131192
H67   H     H_    0.596754 0.000092 0.088345 0.163829
H68   H     H_    0.973559 0.917288 0.968484 0.131115
H69   H     H_    0.026442 0.917246 0.031437 0.131214
H70   H     H_    0.973552 0.082714 0.031555 0.130825
H71   H     H_    0.597026 0.583109 0.469649 0.156548
H72   H     H_    0.402974 0.416884 0.469678 0.156354
H73   H     H_    0.597032 0.416895 0.530377 0.156555
H74   H     H_    0.402965 0.583116 0.530360 0.154691
H75   H     H_    0.097026 0.083136 0.969720 0.156348
H76   H     H_    0.902971 0.916911 0.969593 0.154638
H77   H     H_    0.097029 0.916869 0.030307 0.156536
H78   H     H_    0.403249 0.999924 0.911657 0.165392
H79   H     H_    0.902964 0.083089 0.030424 0.154590
H80   H     H_    0.723166 0.220264 0.666616 0.129882
H81   H     H_    0.306820 0.749574 0.303200 0.130296
H82   H     H_    0.723166 0.779736 0.333384 0.129877
H83   H     H_    0.306787 0.250373 0.696757 0.130240
H84   H     H_    0.306829 0.749570 0.696801 0.129874
H85   H     H_    0.723189 0.220249 0.333401 0.129914
H86   H     H_    0.276865 0.220278 0.333368 0.129993
H87   H     H_    0.723184 0.779749 0.666601 0.129914
H88   H     H_    0.223168 0.720255 0.166598 0.129600
H89   H     H_    0.035501 0.500090 0.361480 0.145799
H90   H     H_    0.806800 0.249608 0.803227 0.130277
H91   H     H_    0.223133 0.279713 0.833350 0.130267
H92   H     H_    0.806800 0.750391 0.196773 0.130276
H93   H     H_    0.806827 0.249575 0.196796 0.129862
H94   H     H_    0.223186 0.720251 0.833400 0.129906
H95   H     H_    0.806830 0.750431 0.803198 0.129873
H96   H     H_    0.193193 0.249593 0.196784 0.130242
O1    O     O_3   0.750010 0.500000 0.500000 -0.473120
O2    O     O_R   0.772930 0.563990 0.609460 -0.647339
O3    O     O_R   0.227070 0.563990 0.609460 -0.645795
O4    O     O_R   0.772930 0.436010 0.390540 -0.647331
O5    O     O_R   0.272930 0.063990 0.890540 -0.647207
O6    O     O_R   0.727070 0.936010 0.109460 -0.645995
O7    O     O_R   0.272930 0.936010 0.109460 -0.645574
O8    O     O_R   0.727070 0.063990 0.890540 -0.645995
O9    O     O_R   0.727070 0.936010 0.890540 -0.645806
O10   O     O_R   0.272930 0.063990 0.109460 -0.647404
O11   O     O_R   0.727070 0.063990 0.109460 -0.645817
O12   O     O_3   0.249990 0.500000 0.500000 -0.473072
O13   O     O_R   0.272930 0.936010 0.890540 -0.647343
O14   O     O_R   0.727090 0.609470 0.563990 -0.645958
O15   O     O_R   0.272910 0.390530 0.436010 -0.646475
O16   O     O_R   0.727090 0.390530 0.436010 -0.645948
O17   O     O_R   0.272910 0.609470 0.563990 -0.646205
O18   O     O_R   0.272910 0.390530 0.563990 -0.646418
O19   O     O_R   0.727090 0.609470 0.436010 -0.647737
O20   O     O_R   0.272910 0.609470 0.436010 -0.644415
O21   O     O_R   0.727090 0.390530 0.563990 -0.647739
O22   O     O_R   0.227090 0.109470 0.063990 -0.646131
O23   O     O_3   0.250010 0.000000 0.000000 -0.473049
O24   O     O_R   0.772910 0.890530 0.936010 -0.646216
O25   O     O_R   0.227090 0.890530 0.936010 -0.645955
O26   O     O_R   0.772910 0.109470 0.063990 -0.646227
O27   O     O_R   0.772910 0.890530 0.063990 -0.644713
O28   O     O_R   0.227090 0.109470 0.936010 -0.646279
O29   O     O_R   0.772910 0.109470 0.936010 -0.644715
O30   O     O_R   0.227090 0.890530 0.063990 -0.647933
O31   O     O_R   0.662570 0.545500 0.500000 -0.646227
O32   O     O_R   0.337430 0.454500 0.500000 -0.647462
O33   O     O_R   0.662570 0.454500 0.500000 -0.646214
O34   O     O_3   0.749990 0.000000 0.000000 -0.473121
O35   O     O_R   0.337430 0.545500 0.500000 -0.649078
O36   O     O_R   0.162570 0.045500 0.000000 -0.647946
O37   O     O_R   0.837430 0.954500 0.000000 -0.648901
O38   O     O_R   0.162570 0.954500 0.000000 -0.645939
O39   O     O_R   0.837430 0.045500 0.000000 -0.648907
O40   O     O_R   0.837440 0.500000 0.454520 -0.647564
O41   O     O_R   0.162560 0.500000 0.545480 -0.650433
O42   O     O_R   0.837440 0.500000 0.545480 -0.647568
O43   O     O_R   0.162560 0.500000 0.454520 -0.648655
O44   O     O_R   0.337440 1.000000 0.954520 -0.647348
O45   O     O_R   0.772930 0.563990 0.390540 -0.647027
O46   O     O_R   0.662560 1.000000 0.045480 -0.650212
O47   O     O_R   0.337440 1.000000 0.045480 -0.649107
O48   O     O_R   0.662560 1.000000 0.954520 -0.650207
O49   O     O_R   0.227070 0.436010 0.609460 -0.645689
O50   O     O_R   0.772930 0.436010 0.609460 -0.647024
O51   O     O_R   0.227070 0.563990 0.390540 -0.647710
O52   O     O_R   0.227070 0.436010 0.390540 -0.645764
Zn1   Zn    Zn3+2 0.782760 0.500000 0.564970 0.964255
Zn2   Zn    Zn3+2 0.282740 0.435020 0.500000 0.964495
Zn3   Zn    Zn3+2 0.717260 0.435020 0.500000 0.964776
Zn4   Zn    Zn3+2 0.282740 0.564980 0.500000 0.964812
Zn5   Zn    Zn3+2 0.217260 0.064980 0.000000 0.964501
Zn6   Zn    Zn3+2 0.782740 0.935020 0.000000 0.964744
Zn7   Zn    Zn3+2 0.217260 0.935020 0.000000 0.964750
Zn8   Zn    Zn3+2 0.782740 0.064980 0.000000 0.964720
Zn9   Zn    Zn3+2 0.217240 0.500000 0.435030 0.964105
Zn10  Zn    Zn3+2 0.782760 0.500000 0.435030 0.964269
Zn11  Zn    Zn3+2 0.217240 0.500000 0.564970 0.964276
Zn12  Zn    Zn3+2 0.282760 1.000000 0.064970 0.964134
Zn13  Zn    Zn3+2 0.717240 0.000000 0.935030 0.964198
Zn14  Zn    Zn3+2 0.282760 0.000000 0.935030 0.964262
Zn15  Zn    Zn3+2 0.717240 1.000000 0.064970 0.964180
Zn16  Zn    Zn3+2 0.717260 0.564980 0.500000 0.964754

loop_
_geom_bond_atom_site_label_1
_geom_bond_atom_site_label_2
_ccdc_geom_bond_type
C132  C150  A    
O41   Zn11  S    
O37   Zn6   S    
C84   C171  A    
C73   C160  A    
C75   C162  A    
C95   H36   S    
C90   C107  A    
C147  C164  A    
C92   C109  A    
O50   Zn1   S    
C42   H78   S    
C136  H59   S    
C126  C143  A    
C100  C104  S    
C33   C45   S    
C105  C123  A    
C3    H65   S    
C71   C158  A    
O12   Zn11  S    
C77   H17   S    
C70   H9    S    
C74   H14   S    
C2    C116  S    
C109  C127  A    
C153  H94   S    
C1    O45   A    
C141  H82   S    
C112  C129  A    
C40   H56   S    
C86   H26   S    
C93   C110  A    
C115  C132  A    
C66   H6    S    
C59   C60   A    
C21   C22   S    
C148  C165  A    
C82   C98   A    
C96   C114  A    
O12   Zn4   S    
C156  C173  A    
C4    C23   A    
C33   O46   A    
C24   O8    A    
C130  H53   S    
C36   H12   S    
C152  C170  A    
C7    H70   S    
C16   C20   A    
C40   C55   A    
C150  C168  A    
O3    Zn11  S    
C127  C145  A    
C5    C25   A    
O39   Zn8   S    
C131  H54   S    
C97   H38   S    
O29   Zn8   S    
C121  H44   S    
C36   C44   A    
C120  C138  A    
O35   Zn4   S    
C147  H87   S    
C117  C135  A    
C87   H28   S    
C108  C144  S    
C118  C136  A    
C125  H48   S    
C78   C165  A    
C49   C62   A    
C70   C79   A    
C51   C64   A    
C155  O4    A    
O42   Zn1   S    
C54   C67   A    
C8    C17   A    
O4    Zn10  S    
C70   C157  A    
O11   Zn15  S    
C139  H80   S    
C136  C153  A    
C57   O11   A    
C134  C151  A    
C129  H52   S    
O24   Zn6   S    
C160  C168  S    
O14   Zn16  S    
O28   Zn5   S    
C129  C147  A    
C3    C11   A    
C68   O13   A    
C151  H92   S    
C14   H76   S    
C139  C157  A    
C133  O14   A    
C106  C124  A    
C41   C45   A    
C34   H1    S    
C108  C126  A    
C143  C161  A    
C102  C119  A    
C158  C165  S    
C110  C128  A    
C137  H60   S    
O22   Zn5   S    
O46   Zn15  S    
C11   C18   A    
C24   C114  S    
C2    O27   A    
O43   Zn9   S    
C22   C175  A    
C148  H88   S    
C12   H75   S    
C31   C43   S    
C101  C118  A    
C73   C90   A    
C42   C53   A    
C16   H79   S    
C8    C174  A    
C39   C54   A    
C32   O44   A    
C135  C152  A    
C77   C94   A    
C1    O19   A    
C9    H72   S    
O17   Zn4   S    
C68   C118  S    
O44   Zn14  S    
C141  C159  A    
O15   Zn2   S    
C8    H71   S    
C127  H50   S    
C152  H93   S    
C39   C45   A    
O27   Zn6   S    
C66   C67   A    
C82   C169  A    
C50   C63   A    
C28   O36   A    
C33   O48   A    
C4    H66   S    
C53   C60   A    
O16   Zn3   S    
C54   C59   A    
C113  C130  A    
C107  C125  A    
O36   Zn5   S    
C50   C56   A    
C27   O32   A    
C75   H15   S    
C122  O15   A    
C72   H11   S    
C76   H16   S    
C99   C117  A    
C87   C105  A    
O45   Zn10  S    
C135  H58   S    
C46   C120  S    
C38   H34   S    
C19   C28   S    
C55   C69   A    
C67   H7    S    
O21   Zn3   S    
C145  H85   S    
C13   O30   A    
C46   O10   A    
C124  C141  A    
C164  C172  S    
C4    C12   A    
C163  C173  S    
C132  H55   S    
C15   H77   S    
O18   Zn2   S    
C34   C43   A    
O32   Zn2   S    
C2    O6    A    
C91   H31   S    
C166  O28   A    
C97   C115  A    
C151  C169  A    
O23   Zn12  S    
C121  C139  A    
O13   Zn14  S    
C128  C146  A    
C175  H63   S    
C94   C112  A    
C56   C58   A    
C9    C175  A    
C142  H83   S    
C102  H42   S    
C161  C171  S    
C9    C18   A    
O33   Zn3   S    
C103  H43   S    
C28   O38   A    
C76   C163  A    
C46   O22   A    
C155  O16   A    
C85   C102  A    
C98   H39   S    
O49   Zn11  S    
C100  O50   A    
C114  C131  A    
C103  C120  A    
C149  C167  A    
C88   H29   S    
C157  C167  S    
C38   C49   A    
C15   C19   A    
C72   C159  A    
C26   O31   A    
C41   H67   S    
C116  C134  A    
C99   H40   S    
O40   Zn10  S    
C138  H61   S    
C78   H18   S    
C52   C65   A    
C90   H30   S    
C32   O47   A    
O23   Zn7   S    
C166  O5    A    
C85   H25   S    
C35   O24   A    
C105  C111  S    
C83   C99   A    
C55   C60   A    
O9    Zn13  S    
C30   C44   S    
C29   O37   A    
C149  H90   S    
C30   O42   A    
O30   Zn7   S    
O34   Zn15  S    
O47   Zn12  S    
C11   H74   S    
C140  H81   S    
C143  H84   S    
C14   C20   A    
C82   H21   S    
O10   Zn12  S    
C111  O20   A    
C35   O9    A    
C74   C91   A    
C37   C43   A    
C61   C64   A    
C38   C44   A    
C62   C63   A    
O34   Zn8   S    
C76   C93   A    
C162  C170  S    
C78   C95   A    
C89   C107  S    
C51   C58   A    
C115  C166  S    
C5    C14   A    
C71   C87   A    
C7    C16   A    
C176  H64   S    
C126  H49   S    
C154  H95   S    
C57   C117  S    
C31   O43   A    
O52   Zn9   S    
C80   H19   S    
C159  C169  S    
C91   C108  A    
O23   Zn14  S    
C111  O51   A    
O19   Zn16  S    
C156  H96   S    
C68   O25   A    
C7    C25   A    
C86   C173  A    
O6    Zn15  S    
O1    Zn16  S    
O34   Zn6   S    
C110  C122  S    
C65   C69   A    
C12   C19   A    
O1    Zn10  S    
C81   C168  A    
C27   O35   A    
C137  C154  A    
C146  H86   S    
O23   Zn5   S    
C5    H68   S    
C109  C155  S    
O48   Zn13  S    
C96   H37   S    
O38   Zn7   S    
O5    Zn14  S    
C21   C174  A    
C39   H45   S    
C29   O39   A    
C30   O40   A    
C73   H13   S    
O34   Zn13  S    
C122  O52   A    
C40   C47   A    
O1    Zn1   S    
C6    H69   S    
C35   C119  S    
O51   Zn9   S    
C112  C133  S    
C65   H5    S    
C84   H24   S    
C144  O3    A    
C17   C26   S    
C95   C113  A    
C174  H62   S    
C64   H4    S    
C145  C162  A    
C10   C17   A    
C83   C170  A    
C63   H3    S    
O12   Zn9   S    
C6    C15   A    
O7    Zn12  S    
C80   C96   A    
C41   C52   A    
C1    C106  S    
C140  C158  A    
C31   O41   A    
O2    Zn1   S    
C23   C25   S    
C94   H35   S    
C84   C101  A    
C86   C103  A    
C72   C88   A    
C20   C29   S    
C10   C176  A    
C123  H46   S    
C34   C50   A    
C85   C172  A    
C130  C148  A    
C119  C137  A    
C57   O26   A    
C104  C121  A    
C123  C140  A    
C49   C58   A    
C83   H22   S    
O8    Zn13  S    
C92   H32   S    
C52   C59   A    
O25   Zn7   S    
C88   C106  A    
C98   C116  A    
C124  H47   S    
C125  C142  A    
C21   C176  A    
C153  C171  A    
C154  C172  A    
O31   Zn16  S    
C37   C48   A    
C53   C66   A    
C61   H89   S    
C36   C51   A    
C75   C92   A    
O1    Zn3   S    
C79   H27   S    
C93   H33   S    
C79   C104  A    
C24   O29   A    
C71   H10   S    
C13   O7    A    
C138  C156  A    
C48   C56   A    
C133  O2    A    
C80   C167  A    
O12   Zn2   S    
C18   C27   S    
C142  C160  A    
C100  O21   A    
C3    C22   A    
C62   H2    S    
C74   C161  A    
C144  O17   A    
C146  C163  A    
O26   Zn8   S    
C10   H73   S    
C89   O49   A    
C81   H20   S    
C48   C61   A    
C81   C97   A    
C77   C164  A    
C128  H51   S    
C6    C23   A    
C32   C47   S    
C134  H57   S    
C42   C47   A    
C37   H23   S    
C131  C149  A    
C69   H8    S    
C101  H41   S    
C89   O18   A    
C26   O33   A    
C150  H91   S    
C13   C113  S    
O20   Zn4   S    
