data_mof_unit_39406.cif
_audit_creation_date              2012-12-10T17:11:02-0500
_audit_creation_method            fapswitch 2.2
_symmetry_space_group_name_H-M    P1
_symmetry_Int_Tables_number       1
_space_group_crystal_system       triclinic
_cell_length_a                    11.818273
_cell_length_b                    13.000561
_cell_length_c                    13.2593
_cell_angle_alpha                 94.242977
_cell_angle_beta                  76.624051
_cell_angle_gamma                 99.358458
_cell_volume                      1954.16778004

loop_
_atom_site_label
_atom_site_type_symbol
_atom_type_description
_atom_site_fract_x
_atom_site_fract_y
_atom_site_fract_z
_atom_type_partial_charge
C1    C     C_R   0.523575 0.700466 0.494305 0.851760
C2    C     C_R   0.437500 0.533829 0.982634 0.013217
C3    C     C_R   0.467674 0.557069 0.876757 -0.035523
C4    C     C_R   0.527451 0.552848 0.039049 -0.021977
C5    C     C_R   0.635072 0.617362 0.997788 0.058320
C6    C     C_R   0.642064 0.673576 0.907892 0.087490
C7    C     C_R   0.560181 0.640005 0.844555 0.231550
C8    C     C_R   0.514339 0.504774 0.133169 -0.181004
C9    C     C_R   0.708785 0.582620 0.148152 -0.290688
C10   C     C_R   0.396704 0.503992 0.810434 -0.073896
C11   C     C_R   0.468600 0.186390 0.500535 -0.154113
C12   C     C_R   0.436914 0.500131 0.696488 0.854341
C13   C     C_R   0.541066 0.814531 0.483157 -0.226358
C14   C     C_R   0.664695 0.983167 0.444742 0.248187
C15   C     C_R   0.654634 0.875590 0.457732 0.143851
C16   C     C_R   0.441071 0.862520 0.491907 0.166342
C17   C     C_R   0.453458 0.971151 0.509435 -0.027050
C18   C     C_R   0.561891 0.030721 0.465343 -0.022982
C19   C     C_R   0.563703 0.136210 0.447222 0.100091
C20   C     C_R   0.370747 0.130305 0.566583 0.187674
C21   C     C_R   0.364285 0.021866 0.573359 0.148485
C22   C     C_R   0.945776 0.615826 0.583534 0.164691
C23   C     C_R   0.479460 0.299760 0.498742 0.847629
C24   C     C_R   0.826254 0.596583 0.579941 0.025912
C25   C     C_R   0.857026 0.456216 0.460162 0.027854
C26   C     C_R   0.977298 0.466492 0.464795 -0.118348
C27   C     C_R   0.022691 0.543813 0.531546 -0.035397
C28   C     C_R   0.139555 0.541621 0.546428 0.276099
C29   C     C_R   0.171142 0.410188 0.411020 0.298094
C30   C     C_R   0.051548 0.399790 0.404934 0.136049
C31   C     C_R   0.563271 0.506105 0.303582 0.774207
C32   C     C_R   0.729432 0.624781 0.049810 0.289377
C33   C     C_R   0.598897 0.527598 0.192270 -0.101309
C34   C     C_R   0.286290 0.448248 0.854287 -0.257860
C35   C     C_R   0.245117 0.447913 0.961198 -0.216861
C36   C     C_R   0.318491 0.493004 0.026682 0.278196
Cu1   Cu    Cu3+1 0.386470 0.492430 0.492410 0.939561
Cu2   Cu    Cu3+1 0.613530 0.507570 0.507590 0.928351
H1    H     H_    0.778548 0.593498 0.190131 0.152236
H2    H     H_    0.767274 0.647338 0.622590 0.129782
H3    H     H_    0.820013 0.398566 0.409656 0.152460
H4    H     H_    0.437736 0.449029 0.162801 0.183010
H5    H     H_    0.230030 0.407143 0.805779 0.162676
H6    H     H_    0.155583 0.412600 0.993141 0.134052
N1    N     N_R   0.215880 0.481050 0.481000 -0.198952
N2    N     N_R   0.784100 0.518950 0.519000 -0.200454
O1    O     O_R   0.419710 0.645650 0.494620 -0.549895
O2    O     O_R   0.611450 0.658430 0.507430 -0.587186
O3    O     O_R   0.357340 0.490460 0.641450 -0.593401
O4    O     O_R   0.549080 0.503250 0.654260 -0.562954
O5    O     O_R   0.388550 0.341570 0.492570 -0.565044
O6    O     O_R   0.580290 0.354350 0.505380 -0.582665
O7    O     O_R   0.450920 0.496750 0.345740 -0.577403
O8    O     O_R   0.642660 0.509540 0.358550 -0.587360
N3    N     N_2   0.282338 0.184574 0.629471 -0.413244
H7    H     H_    0.271291 0.179196 0.708422 0.244279
C37   C     C_3   0.173570 0.176603 0.594646 -0.647061
H8    H     H_    0.149937 0.255812 0.594689 0.238544
H9    H     H_    0.101412 0.128405 0.648050 0.199497
H10   H     H_    0.181534 0.140914 0.514936 0.218135
N4    N     N_2   0.778260 0.045070 0.427529 -0.420917
H11   H     H_    0.842343 0.013379 0.373566 0.274807
C38   C     C_3   0.816164 0.081497 0.521973 -0.705252
H12   H     H_    0.904728 0.128956 0.502769 0.214220
H13   H     H_    0.821451 0.014311 0.567033 0.231912
H14   H     H_    0.753985 0.130766 0.570239 0.239512
C39   C     C_3   0.275959 0.966318 0.661248 -0.863802
H15   H     H_    0.285253 0.006703 0.736257 0.220142
H16   H     H_    0.185603 0.966743 0.651785 0.236381
H17   H     H_    0.290195 0.885063 0.667558 0.233115
N5    N     N_2   0.760237 0.831178 0.439447 -0.424832
H18   H     H_    0.769755 0.789076 0.498614 0.273826
C40   C     C_3   0.795415 0.785096 0.336631 -0.679747
H19   H     H_    0.727178 0.720123 0.322298 0.239254
H20   H     H_    0.879559 0.754622 0.329312 0.216900
H21   H     H_    0.808329 0.844352 0.277203 0.214625
N6    N     N_2   0.358642 0.813175 0.433028 -0.400928
H22   H     H_    0.388873 0.821040 0.354089 0.244422
C41   C     C_3   0.235341 0.819546 0.468852 -0.627447
H23   H     H_    0.218387 0.900498 0.465098 0.221746
H24   H     H_    0.204110 0.790442 0.548187 0.274468
H25   H     H_    0.185579 0.768251 0.418075 0.216777
C42   C     C_3   0.168567 0.583874 0.647986 -0.726420
H26   H     H_    0.102128 0.621891 0.701936 0.185388
H27   H     H_    0.168619 0.516609 0.694105 0.216966
H28   H     H_    0.251363 0.639264 0.636605 0.248959
C43   C     C_3   0.241201 0.332852 0.343205 -0.716234
H29   H     H_    0.335038 0.343198 0.339700 0.249405
H30   H     H_    0.204350 0.252796 0.369554 0.197790
H31   H     H_    0.233850 0.335977 0.261738 0.207626
N7    N     N_2   0.987100 0.711101 0.632888 -0.446048
H32   H     H_    0.959910 0.709404 0.712448 0.248379
C44   C     C_3   0.961777 0.805377 0.596347 -0.759926
H33   H     H_    0.016901 0.873833 0.623729 0.234541
H34   H     H_    0.868817 0.815530 0.629091 0.203845
H35   H     H_    0.980748 0.803940 0.510221 0.253870
N8    N     N_2   0.005712 0.316534 0.342089 -0.433313
H36   H     H_    0.941250 0.262621 0.383207 0.257382
C45   C     C_3   0.981353 0.344086 0.246025 -0.736623
H37   H     H_    0.888973 0.312939 0.242695 0.221911
H38   H     H_    0.039931 0.308489 0.179625 0.231857
H39   H     H_    0.994147 0.430011 0.238177 0.229578
C46   C     C_3   0.723309 0.776177 0.886971 -0.838850
H40   H     H_    0.675501 0.835879 0.867181 0.225238
H41   H     H_    0.755134 0.809945 0.956363 0.251439
H42   H     H_    0.798764 0.765733 0.821983 0.231834
N9    N     N_2   0.846184 0.669704 0.002659 -0.434329
H43   H     H_    0.896640 0.700503 0.054752 0.243859
C47   C     C_3   0.907351 0.603696 0.922825 -0.708366
H44   H     H_    0.995310 0.646246 0.887492 0.221225
H45   H     H_    0.857736 0.582302 0.860780 0.235250
H46   H     H_    0.919282 0.531609 0.956785 0.226301
N10   N     N_2   0.268697 0.505839 0.134645 -0.453637
H47   H     H_    0.191057 0.457404 0.160105 0.251868
C48   C     C_3   0.262079 0.612527 0.172402 -0.669236
H48   H     H_    0.226262 0.613967 0.257617 0.232060
H49   H     H_    0.203003 0.647055 0.134719 0.213621
H50   H     H_    0.350600 0.660441 0.156929 0.239793
N11   N     N_2   0.558861 0.699383 0.758356 -0.417985
H51   H     H_    0.638103 0.738812 0.720229 0.246784
C49   C     C_3   0.462211 0.758839 0.771649 -0.710508
H52   H     H_    0.418423 0.740163 0.705774 0.218786
H53   H     H_    0.495988 0.843722 0.772948 0.217530
H54   H     H_    0.395280 0.741145 0.844746 0.233148
C50   C     C_3   0.658717 0.191023 0.362878 -0.790385
H55   H     H_    0.732714 0.229797 0.396471 0.248054
H56   H     H_    0.690914 0.134856 0.299627 0.227555
H57   H     H_    0.624956 0.249803 0.325636 0.197828

loop_
_geom_bond_atom_site_label_1
_geom_bond_atom_site_label_2
_ccdc_geom_bond_type
N3    H7    S    
C38   H13   S    
C44   H33   S    
C40   H20   S    
C40   H19   S    
C14   C18   A    
C35   C36   A    
C4    C8    A    
C12   O3    A    
C37   H8    S    
N6    H22   S    
C29   C43   S    
C30   N8    S    
C11   C19   A    
C26   C27   A    
Cu1   Cu2   S    
C8    H4    S    
C34   C35   A    
C3    C7    A    
C47   H45   S    
C5    C6    A    
Cu1   O5    S    
C37   H9    S    
Cu2   O6    S    
C48   H48   S    
C9    H1    S    
C18   C19   A    
N4    C38   S    
C49   H54   S    
C9    C32   A    
C45   H37   S    
C16   C17   A    
C48   H49   S    
C32   N9    S    
C50   H57   S    
N9    H43   S    
C31   C33   S    
Cu1   O1    S    
Cu2   O2    S    
C5    C32   A    
Cu1   O7    S    
N11   C49   S    
C38   H14   S    
C44   H34   S    
C21   C39   S    
C28   C42   S    
C9    C33   A    
N9    C47   S    
C20   N3    S    
C36   N10   S    
N8    C45   S    
N8    H36   S    
N6    C41   S    
C11   C20   A    
C28   N1    A    
C49   H53   S    
C39   H15   S    
C7    N11   S    
C46   H41   S    
C47   H46   S    
C25   H3    S    
N7    H32   S    
C41   H24   S    
C1    O1    A    
C37   H10   S    
C25   C26   A    
C14   N4    S    
C19   C50   S    
C17   C21   A    
C41   H23   S    
C29   N1    A    
C39   H16   S    
C2    C4    A    
C29   C30   A    
N7    C44   S    
Cu1   O3    S    
C23   O5    A    
C42   H26   S    
Cu2   O8    S    
C22   N7    S    
C48   H50   S    
C42   H28   S    
C17   C18   A    
C10   C34   A    
C6    C46   S    
C31   O7    A    
C35   H6    S    
C49   H52   S    
C10   C12   S    
C45   H38   S    
C26   C30   A    
C44   H35   S    
C22   C27   A    
C13   C15   A    
C50   H55   S    
C40   H21   S    
C22   C24   A    
C13   C16   A    
C1    C13   S    
Cu1   N1    S    
C46   H40   S    
N5    C40   S    
N10   H47   S    
C2    C36   A    
C42   H27   S    
C34   H5    S    
C4    C5    A    
C41   H25   S    
C12   O4    A    
N11   H51   S    
C1    O2    A    
C6    C7    A    
Cu2   O4    S    
C15   N5    S    
C39   H17   S    
C24   N2    A    
N3    C37   S    
C2    C3    A    
N5    H18   S    
C3    C10   A    
C47   H44   S    
C23   O6    A    
C11   C23   S    
C24   H2    S    
C46   H42   S    
C8    C33   A    
C31   O8    A    
N4    H11   S    
Cu2   N2    S    
C38   H12   S    
C45   H39   S    
C20   C21   A    
C43   H29   S    
C43   H31   S    
C27   C28   A    
C50   H56   S    
C43   H30   S    
C14   C15   A    
C16   N6    S    
C25   N2    A    
N10   C48   S    
