data_mof_unit_16926.cif
_audit_creation_date              2012-12-10T18:10:25-0500
_audit_creation_method            fapswitch 2.2
_symmetry_space_group_name_H-M    P1
_symmetry_Int_Tables_number       1
_space_group_crystal_system       triclinic
_cell_length_a                    10.796846
_cell_length_b                    9.48085
_cell_length_c                    15.883684
_cell_angle_alpha                 90.018208
_cell_angle_beta                  88.25
_cell_angle_gamma                 90.407486
_cell_volume                      1625.10650581

loop_
_atom_site_label
_atom_site_type_symbol
_atom_type_description
_atom_site_fract_x
_atom_site_fract_y
_atom_site_fract_z
_atom_type_partial_charge
C1    C     C_R   0.260218 0.499836 0.502265 0.811618
C2    C     C_3   0.927023 0.421130 0.588903 0.264741
C3    C     C_3   0.074048 0.435142 0.423865 -0.347246
C4    C     C_3   0.122856 0.500466 0.505783 -0.056660
C5    C     C_3   0.878881 0.502730 0.508473 -0.134339
C6    C     C_R   0.500308 0.500013 0.340535 0.846263
C7    C     C_3   0.931892 0.423638 0.429068 -0.303017
C8    C     C_3   0.611974 0.083472 0.455699 -0.088005
C9    C     C_3   0.603824 0.916745 0.447351 -0.097756
C10   C     C_3   0.504025 0.083685 0.588653 -0.186068
C11   C     C_3   0.514647 0.916978 0.587882 -0.206758
C12   C     C_3   0.625302 0.443606 0.949595 -0.136774
C13   C     C_3   0.387339 0.081614 0.463858 -0.186249
C14   C     C_3   0.381728 0.915813 0.471955 -0.227860
C15   C     C_R   0.739918 0.500737 0.503937 0.775112
C16   C     C_R   0.499646 0.500030 0.659493 0.818218
C17   C     C_3   0.497644 0.657027 0.049043 0.205390
C18   C     C_3   0.378517 0.419436 0.053610 0.042161
C19   C     C_3   0.384107 0.399911 0.954026 -0.152464
C20   C     C_3   0.473821 0.659399 0.951391 -0.209831
C21   C     C_1   0.498567 0.500153 0.748752 -0.096959
C22   C     C_3   0.494442 0.502582 0.083618 0.029365
C23   C     C_3   0.611337 0.425607 0.048144 -0.438038
C24   C     C_3   0.494644 0.500876 0.916860 -0.053481
C25   C     C_2   0.344169 0.712200 0.932903 0.562142
C26   C     C_2   0.256209 0.423170 0.917026 0.520115
C27   C     C_2   0.647170 0.157360 0.373419 0.466297
C28   C     C_2   0.596088 0.870400 0.355960 0.555445
C29   C     C_2   0.409079 0.245027 0.933450 0.356697
C30   C     C_2   0.560963 0.768188 0.909232 0.474245
C31   C     C_2   0.732302 0.542526 0.924538 0.386884
C32   C     C_2   0.665355 0.305239 0.907866 0.435336
C33   C     C_2   0.879184 0.759141 0.572557 0.423517
C34   C     C_1   0.496870 0.500375 0.824130 0.012064
C35   C     C_2   0.878320 0.487192 0.670385 0.348204
C36   C     C_1   0.497948 0.501122 0.175830 0.116645
C37   C     C_1   0.499588 0.500230 0.251181 -0.053211
C38   C     C_3   0.075283 0.653612 0.515605 -0.357060
C39   C     C_3   0.072351 0.414819 0.582615 -0.325688
C40   C     C_3   0.933801 0.659981 0.505961 0.275000
Cl1   Cl    Cl    0.907643 0.742401 0.405925 -0.548738
Cl2   Cl    Cl    0.871413 0.241640 0.594653 -0.621612
Cl3   Cl    Cl    0.405934 0.780648 0.110604 -0.526851
Cl4   Cl    Cl    0.237351 0.493970 0.097863 -0.565175
Cu1   Cu    Cu3+1 0.499860 0.642410 0.500040 0.944351
Cu2   Cu    Cu3+1 0.499860 0.357590 0.500040 0.956080
H1    H     H_    0.103264 0.501831 0.369007 0.220848
H2    H     H_    0.304546 0.887316 0.516994 0.174477
H3    H     H_    0.382634 0.112533 0.396651 0.193905
H4    H     H_    0.355724 0.867179 0.411422 0.157935
H5    H     H_    0.419287 0.114731 0.625630 0.182019
H6    H     H_    0.442288 0.872907 0.631928 0.192211
H7    H     H_    0.379458 0.314295 0.084724 0.145679
H8    H     H_    0.593493 0.696079 0.059467 0.198500
H9    H     H_    0.695145 0.462378 0.080943 0.244050
H10   H     H_    0.601886 0.312500 0.066087 0.219830
H11   H     H_    0.122272 0.724378 0.468502 0.221948
H12   H     H_    0.113805 0.328349 0.413203 0.186218
H13   H     H_    0.104027 0.303860 0.575466 0.219045
H14   H     H_    0.102641 0.693768 0.578438 0.186961
H15   H     H_    0.116603 0.453760 0.640521 0.210569
H16   H     H_    0.269168 0.703760 0.979407 0.168593
H17   H     H_    0.173845 0.385036 0.950889 0.138085
H18   H     H_    0.732881 0.217086 0.368104 0.068402
H19   H     H_    0.514124 0.891436 0.320408 0.104946
H20   H     H_    0.435363 0.171208 0.981870 0.137257
H21   H     H_    0.599320 0.750617 0.846229 0.056924
H22   H     H_    0.753175 0.561275 0.858124 0.074933
H23   H     H_    0.892609 0.465029 0.370150 0.215299
H24   H     H_    0.657993 0.292138 0.840308 0.091781
H25   H     H_    0.802599 0.727273 0.614023 0.034811
H26   H     H_    0.779187 0.486602 0.684027 0.030770
H27   H     H_    0.905678 0.310325 0.431259 0.205578
H28   H     H_    0.693947 0.104320 0.494787 0.164233
H29   H     H_    0.692403 0.875388 0.470373 0.195706
H30   H     H_    0.583916 0.128870 0.622383 0.199941
H31   H     H_    0.605539 0.885576 0.612916 0.161504
H32   H     H_    0.302772 0.124719 0.495649 0.166786
N1    N     N_3   0.500250 0.143650 0.501830 -0.163745
N2    N     N_3   0.500250 0.856350 0.501830 -0.183480
O1    O     O_R   0.317570 0.620260 0.500050 -0.596881
O2    O     O_2   0.243373 0.470990 0.846492 -0.483175
O3    O     O_2   0.582509 0.149562 0.311754 -0.558119
O4    O     O_2   0.682887 0.812174 0.319854 -0.465597
O5    O     O_2   0.403655 0.201229 0.861213 -0.493032
O6    O     O_2   0.581800 0.881445 0.942950 -0.453681
O7    O     O_2   0.796676 0.600917 0.976221 -0.471330
O8    O     O_2   0.711188 0.209657 0.947756 -0.458351
O9    O     O_2   0.918944 0.879534 0.578920 -0.470742
O10   O     O_2   0.946600 0.541146 0.721375 -0.512321
O11   O     O_R   0.317570 0.379740 0.500050 -0.599627
O12   O     O_R   0.499890 0.620310 0.379470 -0.577882
O13   O     O_R   0.499890 0.379690 0.379470 -0.559448
O14   O     O_R   0.682190 0.620260 0.500020 -0.585235
O15   O     O_R   0.682190 0.379740 0.500020 -0.573137
O16   O     O_R   0.499870 0.620210 0.620600 -0.597088
O17   O     O_R   0.499870 0.379790 0.620600 -0.575545
O18   O     O_2   0.320356 0.760018 0.863778 -0.497372

loop_
_geom_bond_atom_site_label_1
_geom_bond_atom_site_label_2
_ccdc_geom_bond_type
C2    C35   S    
C13   N1    S    
C16   C21   S    
C28   O4    D    
C15   O14   A    
C23   H10   S    
C7    H27   S    
C20   C30   S    
Cu1   Cu2   S    
C12   C23   S    
C36   C37   T    
C3    C7    S    
C15   O15   A    
Cu2   N1    S    
C16   O17   A    
C20   C25   S    
C10   H5    S    
C1    O1    A    
C32   O8    D    
C17   C20   S    
C18   C19   S    
Cu1   O12   S    
C19   C26   S    
C11   H6    S    
C11   H31   S    
C18   H7    S    
C10   H30   S    
C2    C39   S    
Cu2   O15   S    
C20   C24   S    
C8    C9    S    
C8    N1    S    
C14   N2    S    
C30   O6    D    
C29   O5    D    
C30   H21   S    
C1    O11   A    
C13   C14   S    
C12   C32   S    
Cu1   O14   S    
C31   H22   S    
C39   H15   S    
C16   O16   A    
C33   C40   S    
C31   O7    D    
C27   H18   S    
C5    C7    S    
C33   O9    D    
C32   H24   S    
Cu2   O11   S    
C24   C34   S    
C9    N2    S    
C26   H17   S    
C17   Cl3   S    
C3    H12   S    
C18   Cl4   S    
C38   H11   S    
C11   N2    S    
C4    C39   S    
C6    O13   A    
C39   H13   S    
C8    H28   S    
C6    C37   S    
C13   H3    S    
C40   Cl1   S    
Cu2   O17   S    
C4    C38   S    
C35   H26   S    
C12   C31   S    
C38   H14   S    
C2    C5    S    
C3    C4    S    
C19   C29   S    
C13   H32   S    
C18   C22   S    
Cu1   O1    S    
C7    H23   S    
C14   H2    S    
C10   N1    S    
C23   H9    S    
C21   C34   T    
C22   C36   S    
C12   C24   S    
C17   C22   S    
C1    C4    S    
C27   O3    D    
C28   H19   S    
C38   C40   S    
C14   H4    S    
Cu2   O13   S    
C2    Cl2   S    
C6    O12   A    
C3    H1    S    
C19   C24   S    
Cu1   N2    S    
C25   H16   S    
C5    C15   S    
C10   C11   S    
C33   H25   S    
C29   H20   S    
C35   O10   D    
C25   O18   D    
C26   O2    D    
C5    C40   S    
C8    C27   S    
C22   C23   S    
C9    H29   S    
Cu1   O16   S    
C17   H8    S    
C9    C28   S    
