data_mof_unit_54570.cif
_audit_creation_date              2012-12-10T18:31:48-0500
_audit_creation_method            fapswitch 2.2
_symmetry_space_group_name_H-M    P1
_symmetry_Int_Tables_number       1
_space_group_crystal_system       triclinic
_cell_length_a                    10.634726
_cell_length_b                    14.984276
_cell_length_c                    15.489517
_cell_angle_alpha                 82.509022
_cell_angle_beta                  89.688651
_cell_angle_gamma                 104.283864
_cell_volume                      2369.77273249

loop_
_atom_site_label
_atom_site_type_symbol
_atom_type_description
_atom_site_fract_x
_atom_site_fract_y
_atom_site_fract_z
_atom_type_partial_charge
C1    C     C_R   0.484350 0.441980 0.662012 0.851231
C2    C     C_3   0.120295 0.496284 0.505501 0.118637
C3    C     C_3   0.087470 0.543624 0.416213 -0.417093
C4    C     C_3   0.089366 0.549810 0.579274 -0.397833
C5    C     C_R   0.491017 0.407265 0.753931 -0.062300
C6    C     C_R   0.553673 0.591849 0.245742 -0.063641
C7    C     C_R   0.461856 0.282492 0.873838 -0.206185
C8    C     C_R   0.453686 0.312215 0.785466 -0.199523
C9    C     C_R   0.541136 0.471544 0.810170 -0.283645
C10   C     C_R   0.552290 0.443478 0.898574 0.085236
C11   C     C_R   0.507778 0.347645 0.930945 0.172787
C12   C     C_R   0.741337 0.499086 0.503567 0.850601
C13   C     C_R   0.596222 0.509369 0.956435 0.073164
C14   C     C_R   0.572754 0.480285 0.046699 0.068328
C15   C     C_R   0.536283 0.383880 0.077510 -0.234792
C16   C     C_R   0.506624 0.318558 0.020062 -0.239033
C17   C     C_R   0.659698 0.603490 0.927338 -0.232786
C18   C     C_R   0.685522 0.668949 0.985004 -0.240036
C19   C     C_R   0.644655 0.643189 0.072260 0.177646
C20   C     C_R   0.585644 0.548772 0.103043 0.091967
C21   C     C_R   0.660455 0.710489 0.129199 -0.208599
C22   C     C_R   0.616770 0.684643 0.216163 -0.202183
C23   C     C_R   0.520989 0.558014 0.337865 0.863375
C24   C     C_R   0.534388 0.526050 0.188232 -0.263600
C25   C     C_R   0.693909 0.842987 0.636610 -0.319337
C26   C     C_R   0.661560 0.753618 0.614570 0.013070
C27   C     C_R   0.514746 0.793761 0.510516 -0.069368
C28   C     C_R   0.543089 0.885873 0.529760 -0.004194
C29   C     C_R   0.635094 0.909554 0.594304 0.184134
C30   C     C_R   0.484028 0.954462 0.487548 0.082489
C31   C     C_R   0.518339 0.046205 0.511033 0.078703
C32   C     C_R   0.611386 0.066569 0.575180 -0.239738
C33   C     C_R   0.668112 0.999330 0.615983 -0.214346
C34   C     C_R   0.257531 0.498111 0.503127 0.855745
C35   C     C_R   0.392061 0.934386 0.422685 -0.241882
C36   C     C_R   0.335357 0.001634 0.381902 -0.214235
C37   C     C_R   0.367228 0.091084 0.404301 0.184527
C38   C     C_R   0.458548 0.114599 0.469274 -0.007574
C39   C     C_R   0.308029 0.157504 0.362178 -0.321035
C40   C     C_R   0.339301 0.246593 0.384825 0.008119
C41   C     C_R   0.485270 0.206295 0.489481 -0.065465
C42   C     C_3   0.893081 0.394978 0.518142 0.368518
C43   C     C_3   0.036608 0.394512 0.523659 -0.469745
C44   C     C_3   0.943855 0.546405 0.416956 -0.482485
C45   C     C_3   0.947430 0.555005 0.576675 -0.428326
C46   C     C_3   0.877350 0.497955 0.506084 0.066045
H1    H     H_    0.863209 0.368379 0.455476 0.126487
H2    H     H_    0.152107 0.622023 0.571635 0.197719
H3    H     H_    0.936938 0.619937 0.404988 0.196765
H4    H     H_    0.149738 0.615821 0.401981 0.180388
H5    H     H_    0.476815 0.245366 0.045773 0.145106
H6    H     H_    0.477129 0.456744 0.210848 0.156992
H7    H     H_    0.633654 0.736585 0.260147 0.158825
H8    H     H_    0.733531 0.740488 0.960586 0.142735
H9    H     H_    0.429856 0.208971 0.897809 0.136125
H10   H     H_    0.416792 0.261255 0.742275 0.155522
H11   H     H_    0.565705 0.544282 0.784504 0.162618
H12   H     H_    0.532169 0.357112 0.145922 0.151516
H13   H     H_    0.693224 0.627956 0.860536 0.139537
H14   H     H_    0.707344 0.782681 0.106641 0.134484
H15   H     H_    0.738811 0.017954 0.664946 0.141376
H16   H     H_    0.551627 0.231107 0.538195 0.160479
H17   H     H_    0.294509 0.298847 0.352873 0.128998
H18   H     H_    0.265491 0.983265 0.332399 0.141430
H19   H     H_    0.764288 0.859964 0.686065 0.139753
H20   H     H_    0.706362 0.701345 0.646502 0.122939
H21   H     H_    0.446992 0.768603 0.462682 0.126912
H22   H     H_    0.058635 0.360568 0.587925 0.174236
H23   H     H_    0.643535 0.134160 0.595537 0.164561
H24   H     H_    0.361206 0.867145 0.401343 0.135401
H25   H     H_    0.238299 0.140653 0.312320 0.142009
H26   H     H_    0.059871 0.352526 0.474292 0.166188
H27   H     H_    0.894856 0.511335 0.362634 0.165428
H28   H     H_    0.107108 0.504738 0.363222 0.165225
H29   H     H_    0.945381 0.629231 0.560050 0.197405
H30   H     H_    0.899284 0.533283 0.642167 0.141022
H31   H     H_    0.108451 0.514709 0.643927 0.154791
N1    N     N_R   0.573860 0.731700 0.552730 -0.098345
N2    N     N_R   0.426060 0.268290 0.447230 -0.101761
O1    O     O_R   0.462770 0.383110 0.605620 -0.615721
O2    O     O_R   0.510160 0.531900 0.639510 -0.623282
O3    O     O_R   0.661510 0.425600 0.483070 -0.599448
O4    O     O_R   0.708900 0.574390 0.516960 -0.629785
O5    O     O_R   0.489840 0.468100 0.360490 -0.622243
O6    O     O_R   0.537230 0.616890 0.394380 -0.616798
O7    O     O_R   0.291100 0.425610 0.483040 -0.627199
O8    O     O_R   0.338490 0.574400 0.516930 -0.627005
Zn1   Zn    Zn3+2 0.468350 0.400660 0.477370 0.942138
Zn2   Zn    Zn3+2 0.531650 0.599340 0.522630 0.927299
O9    O     O_3   0.810326 0.328459 0.581599 -0.654506
C47   C     C_3   0.819174 0.351296 0.667285 0.103567
H32   H     H_    0.754614 0.397760 0.675937 0.134567
H33   H     H_    0.919967 0.384303 0.683488 0.140628
C48   C     C_3   0.770787 0.262412 0.731248 -0.343384
H34   H     H_    0.665867 0.232856 0.722100 0.218726
H35   H     H_    0.824537 0.210385 0.718089 0.222194
C49   C     C_3   0.790233 0.281337 0.825350 -0.949533
H36   H     H_    0.895482 0.302599 0.837784 0.259234
H37   H     H_    0.745179 0.217312 0.870448 0.264317
H38   H     H_    0.744590 0.337488 0.838621 0.278029

loop_
_geom_bond_atom_site_label_1
_geom_bond_atom_site_label_2
_ccdc_geom_bond_type
C44   H3    S    
C24   H6    S    
C43   H26   S    
C19   C20   A    
C16   H5    S    
C7    H9    S    
C27   N1    A    
C8    H10   S    
C49   H36   S    
C7    C8    A    
C45   C46   S    
C7    C11   A    
C26   N1    A    
C40   H17   S    
C30   C35   A    
C45   H30   S    
C1    C5    S    
C36   C37   A    
C19   C21   A    
C18   C19   A    
C42   C46   S    
C30   C31   A    
O7    Zn1   S    
C1    O2    A    
C15   C16   A    
C6    C22   A    
C29   C33   A    
C38   C41   A    
C34   O7    A    
C3    H28   S    
C20   C24   A    
C35   H24   S    
C43   H22   S    
C9    C10   A    
C34   O8    A    
O2    Zn2   S    
C2    C34   S    
C21   C22   A    
O1    Zn1   S    
C48   H34   S    
C41   H16   S    
N2    Zn1   S    
C49   H37   S    
C3    H4    S    
C44   C46   S    
C22   H7    S    
C4    C45   S    
N1    Zn2   S    
C25   C29   A    
O4    Zn2   S    
C3    C44   S    
C23   O5    A    
C26   H20   S    
C14   C20   A    
C25   H19   S    
C21   H14   S    
C12   C46   S    
C47   H32   S    
O6    Zn2   S    
C48   C49   S    
C25   C26   A    
C12   O4    A    
C42   O9    S    
C35   C36   A    
C2    C4    S    
C5    C9    A    
C37   C38   A    
C47   H33   S    
C11   C16   A    
C31   C32   A    
C2    C43   S    
C6    C24   A    
C17   C18   A    
C40   N2    A    
C12   O3    A    
C48   H35   S    
C17   H13   S    
O8    Zn2   S    
C15   H12   S    
C42   C43   S    
C39   C40   A    
C49   H38   S    
C4    H2    S    
C28   C29   A    
O5    Zn1   S    
C10   C13   A    
C41   N2    A    
C5    C8    A    
C32   H23   S    
C31   C38   A    
C13   C17   A    
C45   H29   S    
C32   C33   A    
C28   C30   A    
C2    C3    S    
C4    H31   S    
C37   C39   A    
C36   H18   S    
C47   C48   S    
O9    C47   S    
O3    Zn1   S    
C6    C23   S    
C9    H11   S    
C42   H1    S    
C44   H27   S    
C27   H21   S    
C10   C11   A    
C18   H8    S    
C33   H15   S    
C23   O6    A    
C27   C28   A    
C1    O1    A    
C39   H25   S    
C14   C15   A    
C13   C14   A    
