data_mof_unit_66417.cif
_audit_creation_date              2012-12-10T16:55:21-0500
_audit_creation_method            fapswitch 2.2
_symmetry_space_group_name_H-M    P1
_symmetry_Int_Tables_number       1
_space_group_crystal_system       triclinic
_cell_length_a                    29.341243
_cell_length_b                    30.641687
_cell_length_c                    21.263081
_cell_angle_alpha                 90.088324
_cell_angle_beta                  133.278142
_cell_angle_gamma                 89.86365
_cell_volume                      13917.7171331

loop_
_atom_site_label
_atom_site_type_symbol
_atom_type_description
_atom_site_fract_x
_atom_site_fract_y
_atom_site_fract_z
_atom_type_partial_charge
C1    C     C_R   0.308145 0.190659 0.118377 0.812594
C2    C     C_R   0.628358 0.870948 0.682310 -0.083203
C3    C     C_R   0.287698 0.817010 0.233663 -0.280425
C4    C     C_R   0.737747 0.628817 0.127390 -0.276993
C5    C     C_R   0.214682 0.318987 0.768946 -0.282680
C6    C     C_R   0.261722 0.631066 0.867323 -0.281698
C7    C     C_R   0.785845 0.318814 0.231691 -0.280486
C8    C     C_R   0.202585 0.096727 0.125443 0.486260
C9    C     C_R   0.721309 0.819478 0.709286 0.496573
C10   C     C_R   0.796794 0.099857 0.866720 0.496575
C11   C     C_R   0.281693 0.817686 0.294072 0.490513
C12   C     C_R   0.702633 0.596049 0.124338 0.485752
C13   C     C_R   0.665557 0.089242 0.759543 -0.070098
C14   C     C_R   0.220039 0.319714 0.707742 0.495719
C15   C     C_R   0.296728 0.599994 0.866355 0.496571
C16   C     C_R   0.780057 0.319780 0.292381 0.498551
C17   C     C_R   0.233194 0.058838 0.172985 -0.256817
C18   C     C_R   0.677059 0.842335 0.632846 -0.278606
C19   C     C_R   0.767103 0.061731 0.819894 -0.274503
C20   C     C_R   0.325190 0.841305 0.369624 -0.260494
C21   C     C_R   0.733381 0.558146 0.171773 -0.256050
C22   C     C_R   0.174612 0.342001 0.630764 -0.273869
C23   C     C_R   0.267048 0.561855 0.819578 -0.274183
C24   C     C_R   0.372575 0.870580 0.318647 -0.084762
C25   C     C_R   0.824981 0.342304 0.369111 -0.273161
C26   C     C_R   0.297918 0.053757 0.226517 0.443495
C27   C     C_R   0.627241 0.864822 0.614837 0.455838
C28   C     C_R   0.703088 0.054308 0.771588 0.449412
C29   C     C_R   0.373358 0.864762 0.385894 0.452970
C30   C     C_R   0.798198 0.553377 0.225875 0.443646
C31   C     C_R   0.125850 0.364655 0.614738 0.459977
C32   C     C_R   0.203079 0.554386 0.771462 0.450004
C33   C     C_R   0.874134 0.364836 0.385875 0.452788
C34   C     C_3   0.113883 0.140386 0.055621 -0.275724
C35   C     C_R   0.835153 0.589045 0.239682 -0.075311
C36   C     C_3   0.817977 0.783075 0.801479 -0.281109
C37   C     C_3   0.883768 0.145419 0.936199 -0.277647
C38   C     C_3   0.185309 0.781293 0.202916 -0.272785
C39   C     C_3   0.613779 0.639404 0.055026 -0.275766
C40   C     C_3   0.317125 0.283886 0.799013 -0.281142
C41   C     C_3   0.383689 0.645588 0.935901 -0.277332
C42   C     C_3   0.683004 0.284121 0.200635 -0.274633
C43   C     C_3   0.313092 0.987841 0.194864 -0.307323
C44   C     C_3   0.556940 0.846827 0.469492 -0.345180
C45   C     C_3   0.716987 0.980027 0.800148 -0.345105
C46   C     C_R   0.128242 0.371308 0.683036 -0.089262
C47   C     C_3   0.457165 0.845644 0.525928 -0.298382
C48   C     C_3   0.815397 0.488128 0.194869 -0.309550
C49   C     C_3   0.045023 0.337497 0.480391 -0.331413
C50   C     C_3   0.217129 0.480200 0.800688 -0.347140
C51   C     C_3   0.948561 0.343504 0.528726 -0.285506
C52   C     C_3   0.519203 0.152224 0.439254 -0.274766
C53   C     C_3   0.584181 0.966015 0.793318 -0.300878
C54   C     C_3   0.478571 0.107387 0.676243 -0.268128
C55   C     C_3   0.491722 0.913613 0.259497 -0.265163
C56   C     C_3   0.018764 0.652490 0.440003 -0.274475
C57   C     C_R   0.165540 0.589293 0.759454 -0.070039
C58   C     C_3   0.084152 0.466292 0.793829 -0.305578
C59   C     C_3   0.978675 0.607231 0.676538 -0.268415
C60   C     C_3   0.005462 0.409366 0.289699 -0.262545
C61   C     C_R   0.872079 0.371141 0.317712 -0.081844
C62   C     C_R   0.303483 0.125457 0.183727 -0.021524
C63   C     C_R   0.668529 0.843838 0.756064 -0.029318
C64   C     C_R   0.696612 0.125860 0.814953 -0.023304
C65   C     C_R   0.692012 0.809408 0.881774 0.814415
C66   C     C_R   0.332857 0.843078 0.245491 -0.025366
C67   C     C_R   0.803522 0.625269 0.183433 -0.021618
C68   C     C_R   0.168670 0.344270 0.756608 -0.031996
C69   C     C_R   0.196587 0.625919 0.814832 -0.023337
C70   C     C_R   0.831845 0.344005 0.244191 -0.028029
C71   C     C_R   0.338464 0.157299 0.184445 -0.107495
C72   C     C_R   0.661618 0.842650 0.815485 -0.107894
C73   C     C_R   0.661691 0.156999 0.816102 -0.103088
C74   C     C_R   0.338570 0.842464 0.184848 -0.098528
C75   C     C_R   0.838469 0.657307 0.184487 -0.107765
C76   C     C_R   0.692066 0.190627 0.881700 0.808397
C77   C     C_R   0.161678 0.342818 0.815891 -0.108303
C78   C     C_R   0.161678 0.657008 0.816093 -0.103045
C79   C     C_R   0.838535 0.342597 0.184565 -0.103333
C80   C     C_R   0.403570 0.156496 0.246511 -0.271057
C81   C     C_R   0.621587 0.871358 0.808438 -0.284809
C82   C     C_R   0.596858 0.154661 0.757947 -0.278008
C83   C     C_R   0.377550 0.871545 0.190688 -0.298702
C84   C     C_R   0.903587 0.656709 0.246954 -0.270630
C85   C     C_R   0.121561 0.371456 0.808955 -0.287218
C86   C     C_R   0.096852 0.654624 0.758042 -0.278054
C87   C     C_R   0.307926 0.809383 0.118246 0.810344
C88   C     C_R   0.879107 0.370694 0.191977 -0.287335
C89   C     C_R   0.435510 0.123977 0.308739 0.472269
C90   C     C_R   0.587530 0.901999 0.742623 0.447354
C91   C     C_R   0.564920 0.120789 0.698703 0.456192
C92   C     C_R   0.413949 0.901141 0.258734 0.433581
C93   C     C_R   0.935549 0.624201 0.309213 0.472384
C94   C     C_R   0.087534 0.402248 0.743309 0.455131
C95   C     C_R   0.064915 0.620753 0.698794 0.456269
C96   C     C_R   0.915478 0.400111 0.259987 0.430278
C97   C     C_R   0.401923 0.089573 0.305098 -0.197694
C98   C     C_R   0.808131 0.690659 0.118385 0.812402
C99   C     C_R   0.589738 0.901807 0.678293 -0.229609
C100  C     C_R   0.598557 0.088596 0.696993 -0.211790
C101  C     C_R   0.410462 0.901680 0.321827 -0.220698
C102  C     C_R   0.902013 0.589618 0.305204 -0.197781
C103  C     C_R   0.089936 0.402237 0.679222 -0.224696
C104  C     C_R   0.098547 0.588602 0.696991 -0.211764
C105  C     C_R   0.910758 0.401684 0.321732 -0.221005
C106  C     C_R   0.942634 0.437232 0.385201 0.986760
C107  C     C_R   0.062609 0.557299 0.625302 0.910715
C108  C     C_R   0.057420 0.437247 0.614766 0.973173
C109  C     C_R   0.192036 0.309430 0.881839 0.815435
C110  C     C_R   0.937449 0.557432 0.375014 0.918403
C111  C     C_R   0.442823 0.937011 0.385744 0.982311
C112  C     C_R   0.562614 0.057293 0.625309 0.910269
C113  C     C_R   0.557169 0.936987 0.614142 0.964730
C114  C     C_R   0.437401 0.057388 0.374934 0.918496
C115  C     C_R   0.334743 0.249623 0.000345 0.783553
C116  C     C_R   0.665459 0.750235 0.000065 0.782624
C117  C     C_R   0.665210 0.249662 0.999562 0.781444
C118  C     C_R   0.334684 0.750301 0.000224 0.780976
C119  C     C_R   0.834802 0.749573 0.000465 0.783273
C120  C     C_R   0.192062 0.690629 0.881699 0.808709
C121  C     C_R   0.165445 0.250251 0.000038 0.782474
C122  C     C_R   0.165228 0.749673 0.999598 0.781265
C123  C     C_R   0.834681 0.250299 0.000217 0.781022
C124  C     C_1   0.386401 0.249091 0.001103 -0.204762
C125  C     C_1   0.614245 0.750638 0.000205 -0.204088
C126  C     C_1   0.613459 0.249179 0.998609 -0.208970
C127  C     C_1   0.386160 0.750843 0.000622 -0.209788
C128  C     C_1   0.886591 0.748964 0.001492 -0.205012
C129  C     C_1   0.114213 0.250687 0.000139 -0.204629
C130  C     C_1   0.113533 0.749202 0.998763 -0.209133
C131  C     C_R   0.807861 0.309403 0.118204 0.811352
C132  C     C_1   0.886150 0.250841 0.000601 -0.208782
C133  C     C_1   0.428956 0.248836 0.001203 -0.015255
C134  C     C_1   0.571818 0.750859 0.000351 -0.013138
C135  C     C_1   0.570875 0.248908 0.998447 -0.018800
C136  C     C_1   0.428728 0.751095 0.000758 -0.018603
C137  C     C_1   0.929228 0.748692 0.001754 -0.015417
C138  C     C_1   0.071779 0.250921 0.000272 -0.013614
C139  C     C_1   0.071026 0.748906 0.998755 -0.018477
C140  C     C_1   0.928708 0.251103 0.000718 -0.017583
C141  C     C_1   0.478906 0.248757 0.000303 -0.003889
C142  C     C_R   0.335024 0.089210 0.239957 -0.075010
C143  C     C_1   0.521519 0.750981 0.000550 -0.002114
C144  C     C_1   0.520911 0.248780 0.999318 -0.005206
C145  C     C_1   0.479090 0.751068 0.000686 -0.004703
C146  C     C_1   0.979183 0.748648 0.000861 -0.003783
C147  C     C_1   0.021483 0.251031 0.000476 -0.002153
C148  C     C_1   0.021144 0.748721 0.999789 -0.004489
C149  C     C_1   0.979060 0.251099 0.000626 -0.004100
C150  C     C_R   0.237757 0.129240 0.128036 -0.277353
C151  C     C_R   0.714735 0.818447 0.769111 -0.282555
C152  C     C_R   0.761768 0.130961 0.867573 -0.281650
Cu1   Cu    Cu3+1 0.280720 0.280980 0.061500 0.960884
Cu2   Cu    Cu3+1 0.957580 0.500000 0.500070 1.064918
Cu3   Cu    Cu3+1 0.542420 0.000000 0.499930 1.072054
Cu4   Cu    Cu3+1 0.457580 0.000000 0.500070 1.070401
Cu5   Cu    Cu3+1 0.719280 0.719020 0.938500 0.968065
Cu6   Cu    Cu3+1 0.719280 0.280980 0.938500 0.967298
Cu7   Cu    Cu3+1 0.280720 0.719020 0.061500 0.960203
Cu8   Cu    Cu3+1 0.780720 0.780980 0.061500 0.960612
Cu9   Cu    Cu3+1 0.219280 0.219020 0.938500 0.966686
Cu10  Cu    Cu3+1 0.219280 0.780980 0.938500 0.965966
Cu11  Cu    Cu3+1 0.780720 0.219020 0.061500 0.959691
Cu12  Cu    Cu3+1 0.042420 0.500000 0.499930 1.064281
H1    H     H_    0.213997 0.157621 0.087275 0.146239
H2    H     H_    0.680217 0.841008 0.585062 0.168614
H3    H     H_    0.795062 0.036935 0.823317 0.170485
H4    H     H_    0.323328 0.839955 0.418756 0.178765
H5    H     H_    0.706274 0.531075 0.164224 0.182783
H6    H     H_    0.175277 0.339815 0.580554 0.168402
H7    H     H_    0.294986 0.537062 0.822944 0.170544
H8    H     H_    0.823193 0.340593 0.418242 0.170674
H9    H     H_    0.429970 0.181446 0.247008 0.164712
H10   H     H_    0.616641 0.870017 0.854482 0.164423
H11   H     H_    0.570692 0.179405 0.758586 0.158960
H12   H     H_    0.746157 0.798700 0.826600 0.137909
H13   H     H_    0.379179 0.871297 0.141309 0.155326
H14   H     H_    0.929971 0.681805 0.247733 0.165088
H15   H     H_    0.116555 0.369947 0.854924 0.164398
H16   H     H_    0.070691 0.679333 0.758763 0.158914
H17   H     H_    0.882601 0.369765 0.144423 0.160663
H18   H     H_    0.108472 0.156090 0.003792 0.171764
H19   H     H_    0.143056 0.160670 0.115337 0.150727
H20   H     H_    0.066523 0.138281 0.032001 0.193273
H21   H     H_    0.805837 0.754701 0.820024 0.172593
H22   H     H_    0.837603 0.810559 0.848070 0.154885
H23   H     H_    0.784930 0.159512 0.907932 0.142649
H24   H     H_    0.855107 0.772149 0.803653 0.197760
H25   H     H_    0.890445 0.157898 0.991101 0.171878
H26   H     H_    0.853089 0.167392 0.879033 0.153489
H27   H     H_    0.930424 0.145186 0.957417 0.192212
H28   H     H_    0.196199 0.753300 0.181819 0.171715
H29   H     H_    0.165387 0.809370 0.157515 0.154666
H30   H     H_    0.148830 0.770209 0.201868 0.198553
H31   H     H_    0.608428 0.655698 0.003669 0.171774
H32   H     H_    0.642837 0.659328 0.115206 0.150232
H33   H     H_    0.566382 0.636984 0.031213 0.193486
H34   H     H_    0.256584 0.796907 0.176694 0.140644
H35   H     H_    0.306065 0.255643 0.819244 0.172310
H36   H     H_    0.336848 0.311707 0.844928 0.154617
H37   H     H_    0.353797 0.273017 0.800201 0.197439
H38   H     H_    0.390396 0.657942 0.990893 0.171877
H39   H     H_    0.353000 0.667632 0.878853 0.153892
H40   H     H_    0.430333 0.645404 0.957082 0.192093
H41   H     H_    0.694246 0.255753 0.180703 0.171257
H42   H     H_    0.663416 0.311896 0.154671 0.155732
H43   H     H_    0.646150 0.273444 0.199093 0.198698
H44   H     H_    0.352480 0.993097 0.198910 0.195815
H45   H     H_    0.713875 0.657200 0.086669 0.146714
H46   H     H_    0.267860 0.994700 0.127756 0.153667
H47   H     H_    0.311418 0.952943 0.206305 0.191782
H48   H     H_    0.561323 0.812982 0.492339 0.154510
H49   H     H_    0.583203 0.850284 0.449581 0.169793
H50   H     H_    0.507003 0.851428 0.411394 0.184453
H51   H     H_    0.740520 0.989745 0.867070 0.157527
H52   H     H_    0.751785 0.969948 0.797057 0.182779
H53   H     H_    0.688839 0.950970 0.784554 0.180977
H54   H     H_    0.428835 0.817953 0.517222 0.148034
H55   H     H_    0.484524 0.857343 0.592541 0.204377
H56   H     H_    0.246569 0.299388 0.826576 0.137734
H57   H     H_    0.489929 0.833480 0.520428 0.179638
H58   H     H_    0.856382 0.493175 0.202363 0.194650
H59   H     H_    0.771504 0.495779 0.127088 0.155009
H60   H     H_    0.812279 0.453132 0.204144 0.191320
H61   H     H_    0.042055 0.311129 0.513540 0.162145
H62   H     H_    0.070245 0.325702 0.461813 0.157361
H63   H     H_    0.996767 0.344564 0.419935 0.190854
H64   H     H_    0.240615 0.490118 0.867501 0.158200
H65   H     H_    0.251982 0.470019 0.797761 0.182852
H66   H     H_    0.189050 0.451159 0.785398 0.180294
H67   H     H_    0.284870 0.659626 0.907660 0.142489
H68   H     H_    0.943662 0.310813 0.501494 0.140761
H69   H     H_    0.924911 0.344070 0.552847 0.178280
H70   H     H_    0.998979 0.347886 0.584892 0.191709
H71   H     H_    0.571076 0.151941 0.490745 0.193330
H72   H     H_    0.501362 0.140133 0.468377 0.154648
H73   H     H_    0.504070 0.186568 0.417153 0.158643
H74   H     H_    0.623005 0.955472 0.861503 0.155081
H75   H     H_    0.602763 0.985296 0.770796 0.168209
H76   H     H_    0.553198 0.987924 0.791610 0.184398
H77   H     H_    0.497911 0.074759 0.707176 0.150725
H78   H     H_    0.754145 0.299146 0.174163 0.137691
H79   H     H_    0.426881 0.104286 0.625360 0.190871
H80   H     H_    0.489833 0.131656 0.724136 0.149137
H81   H     H_    0.469122 0.905208 0.192675 0.156173
H82   H     H_    0.528951 0.937790 0.284578 0.191870
H83   H     H_    0.514931 0.884358 0.302038 0.140036
H84   H     H_    0.070624 0.652362 0.491776 0.193522
H85   H     H_    0.000745 0.640162 0.468755 0.154843
H86   H     H_    0.003449 0.686816 0.417922 0.158622
H87   H     H_    0.123073 0.455811 0.862032 0.156144
H88   H     H_    0.102604 0.485554 0.771100 0.167918
H89   H     H_    0.206011 0.031976 0.165891 0.182612
H90   H     H_    0.053191 0.488196 0.792177 0.185036
H91   H     H_    0.998070 0.574599 0.707414 0.150716
H92   H     H_    0.926986 0.604106 0.625733 0.190671
H93   H     H_    0.989974 0.631464 0.724505 0.149280
H94   H     H_    0.993834 0.384572 0.242302 0.144980
H95   H     H_    0.035734 0.434234 0.295855 0.189776
H96   H     H_    0.032940 0.394209 0.354436 0.176494
O1    O     O_R   0.321010 0.231060 0.142100 -0.580710
O2    O     O_R   0.730960 0.821350 0.961860 -0.582486
O3    O     O_R   0.730960 0.178650 0.961860 -0.575336
O4    O     O_R   0.269040 0.821350 0.038140 -0.578380
O5    O     O_R   0.769040 0.678650 0.038140 -0.572022
O6    O     O_R   0.230960 0.321350 0.961860 -0.582434
O7    O     O_R   0.230960 0.678650 0.961860 -0.575146
O8    O     O_R   0.769040 0.321350 0.038140 -0.577494
O9    O     O_R   0.337910 0.276140 0.051940 -0.560351
O10   O     O_R   0.662090 0.723860 0.948060 -0.568198
O11   O     O_R   0.662090 0.276140 0.948060 -0.558923
O12   O     O_R   0.678990 0.768940 0.857900 -0.572040
O13   O     O_R   0.337910 0.723860 0.051940 -0.568803
O14   O     O_R   0.837910 0.776140 0.051940 -0.560211
O15   O     O_R   0.162090 0.223860 0.948060 -0.568682
O16   O     O_R   0.162090 0.776140 0.948060 -0.558582
O17   O     O_R   0.837910 0.223860 0.051940 -0.569207
O18   O     O_R   0.285940 0.223740 0.947980 -0.567011
O19   O     O_R   0.714060 0.776260 0.052020 -0.560270
O20   O     O_R   0.714060 0.223740 0.052020 -0.568239
O21   O     O_R   0.285940 0.776260 0.947980 -0.559243
O22   O     O_R   0.785940 0.723740 0.947980 -0.567270
O23   O     O_R   0.678990 0.231060 0.857900 -0.576640
O24   O     O_R   0.214060 0.276260 0.052020 -0.559964
O25   O     O_R   0.214060 0.723740 0.052020 -0.568841
O26   O     O_R   0.785940 0.276260 0.947980 -0.558647
O27   O     O_R   0.990910 0.454660 0.410130 -0.558224
O28   O     O_R   0.009090 0.545340 0.589870 -0.574851
O29   O     O_R   0.009090 0.454660 0.589870 -0.546306
O30   O     O_R   0.990910 0.545340 0.410130 -0.557704
O31   O     O_R   0.490910 0.954660 0.410130 -0.548431
O32   O     O_R   0.509090 0.045340 0.589870 -0.574767
O33   O     O_R   0.509090 0.954660 0.589870 -0.545619
O34   O     O_R   0.321010 0.768940 0.142100 -0.575465
O35   O     O_R   0.490910 0.045340 0.410130 -0.557550
O36   O     O_R   0.919170 0.454670 0.410130 -0.544718
O37   O     O_R   0.080830 0.545330 0.589870 -0.561031
O38   O     O_R   0.080830 0.454670 0.589870 -0.554582
O39   O     O_R   0.919170 0.545330 0.410130 -0.564822
O40   O     O_R   0.419170 0.954670 0.410130 -0.541190
O41   O     O_R   0.580830 0.045330 0.589870 -0.561529
O42   O     O_R   0.580830 0.954670 0.589870 -0.547396
O43   O     O_R   0.419170 0.045330 0.410130 -0.564328
O44   O     O_3   0.137738 0.097709 0.071118 -0.564284
O45   O     O_R   0.821010 0.731060 0.142100 -0.580934
O46   O     O_3   0.765556 0.796078 0.716489 -0.572056
O47   O     O_3   0.861023 0.102302 0.916294 -0.566958
O48   O     O_3   0.238854 0.793191 0.288115 -0.569703
O49   O     O_3   0.637745 0.596839 0.069564 -0.563944
O50   O     O_3   0.263779 0.296204 0.713985 -0.571542
O51   O     O_3   0.360932 0.602472 0.915768 -0.567136
O52   O     O_3   0.736149 0.296436 0.285750 -0.570648
O53   O     O_3   0.322791 0.012696 0.259237 -0.572267
O54   O     O_3   0.576181 0.879069 0.531423 -0.572029
O55   O     O_3   0.677214 0.013078 0.738551 -0.577645
O56   O     O_R   0.178990 0.268940 0.857900 -0.572713
O57   O     O_3   0.421354 0.880844 0.468267 -0.564649
O58   O     O_3   0.823291 0.512345 0.258422 -0.573760
O59   O     O_3   0.072862 0.375994 0.530744 -0.574050
O60   O     O_3   0.177300 0.513111 0.738727 -0.578043
O61   O     O_3   0.926227 0.378033 0.469387 -0.567919
O62   O     O_3   0.500240 0.125000 0.371293 -0.562027
O63   O     O_3   0.548542 0.930250 0.738204 -0.554322
O64   O     O_3   0.500124 0.121311 0.637246 -0.569808
O65   O     O_3   0.448037 0.932956 0.259594 -0.573628
O66   O     O_3   0.000262 0.625403 0.372150 -0.561877
O67   O     O_R   0.178990 0.731060 0.857900 -0.576568
O68   O     O_3   0.048540 0.430470 0.738905 -0.554613
O69   O     O_3   0.000119 0.621232 0.637436 -0.569814
O70   O     O_3   0.951186 0.430273 0.261336 -0.574356
O71   O     O_R   0.821010 0.268940 0.142100 -0.575423
O72   O     O_R   0.269040 0.178650 0.038140 -0.572184

loop_
_geom_bond_atom_site_label_1
_geom_bond_atom_site_label_2
_ccdc_geom_bond_type
C61   C70   A    
C8    O44   S    
C96   O70   S    
C48   O58   S    
C65   O2    A    
C74   C83   A    
C18   H2    S    
C56   H84   S    
Cu2   O36   S    
Cu7   O25   S    
C124  C133  T    
C64   C152  A    
C44   H50   S    
C40   O50   S    
Cu9   O18   S    
C98   O5    A    
C68   C77   A    
C52   O62   S    
C50   H65   S    
C60   H94   S    
C134  C143  S    
C50   H64   S    
Cu10  O67   S    
C41   O51   S    
C27   O54   S    
C121  O24   A    
C91   C100  A    
C4    C12   A    
C61   C105  A    
C117  C126  S    
C119  C128  S    
C70   C79   A    
C114  O35   A    
C120  O7    A    
C19   H3    S    
C32   C57   A    
C152  H23   S    
C20   H4    S    
C53   H76   S    
C11   C20   A    
C59   H91   S    
C106  O27   A    
Cu7   O13   S    
C137  C146  S    
C127  C136  T    
C141  C144  T    
Cu5   O12   S    
C39   H31   S    
C75   C98   S    
C82   C91   A    
Cu1   Cu9   S    
C36   H24   S    
C8    C150  A    
C131  O71   A    
C56   H85   S    
C33   O61   S    
C42   H43   S    
C55   O65   S    
C91   O64   S    
C22   H6    S    
C81   C90   A    
Cu5   Cu8   S    
C132  C140  T    
C52   H72   S    
C21   C30   A    
C16   C25   A    
C57   C104  A    
C9    C151  A    
C151  H12   S    
C62   C150  A    
Cu12  O27   S    
C14   O50   S    
C43   H44   S    
C123  O17   A    
C40   H35   S    
Cu11  O17   S    
C46   C103  A    
C8    C17   A    
C38   H29   S    
C51   H69   S    
C60   H96   S    
Cu1   O6    S    
Cu12  O30   S    
C48   H58   S    
C45   H51   S    
C58   H90   S    
C84   C93   A    
C97   C142  A    
C3    C11   A    
C86   C95   A    
C23   H7    S    
C33   C61   A    
C111  O40   A    
Cu3   Cu4   S    
C41   H38   S    
C104  C107  S    
C6    C69   A    
C123  C132  S    
C35   C102  A    
C67   C75   A    
C111  O31   A    
C78   C120  S    
Cu4   O33   S    
Cu2   Cu12  S    
C80   H9    S    
C30   O58   S    
C75   C84   A    
C66   C74   A    
C42   H41   S    
C24   C101  A    
C108  O29   A    
C28   O55   S    
Cu9   O15   S    
Cu10  O16   S    
C9    O46   S    
C113  O42   A    
C31   C46   A    
C47   O57   S    
C64   C73   A    
Cu2   O28   S    
Cu10  O4    S    
C74   C87   S    
Cu1   O1    S    
C37   H26   S    
C47   H57   S    
C77   C85   A    
C98   O45   A    
Cu8   O2    S    
C58   O68   S    
C58   H87   S    
C39   O49   S    
C62   C142  A    
C60   O70   S    
C117  O11   A    
C113  O33   A    
C139  C148  S    
C48   H60   S    
C4    H45   S    
C46   C68   A    
C49   O59   S    
C123  O26   A    
C35   C67   A    
C79   C131  S    
Cu3   O41   S    
C34   H19   S    
C63   C72   A    
C41   H40   S    
C77   C109  S    
C19   C28   A    
Cu12  O37   S    
Cu6   Cu11  S    
C115  O18   A    
C2    C99   A    
C116  C125  S    
C109  O56   A    
C37   O47   S    
C38   O48   S    
C118  C127  S    
C49   H61   S    
C90   C99   A    
C43   H47   S    
C2    C63   A    
Cu10  O21   S    
C115  O9    A    
C65   C72   S    
C59   O69   S    
Cu2   O29   S    
C38   H28   S    
C54   H79   S    
C14   C22   A    
C119  O14   A    
C21   H5    S    
C10   O47   S    
C114  O43   A    
C62   C71   A    
C50   H66   S    
C92   O65   S    
C9    C18   A    
C120  O67   A    
Cu8   O14   S    
C82   H11   S    
C97   C114  S    
C140  C149  S    
C90   O63   S    
C25   C33   A    
Cu5   O22   S    
C125  C134  T    
C96   C105  A    
C88   C96   A    
C53   H75   S    
C7    C70   A    
C93   O66   S    
C89   O62   S    
C147  C149  T    
C122  O25   A    
C117  O20   A    
C56   O66   S    
Cu8   O45   S    
C34   O44   S    
C3    H34   S    
C36   O46   S    
Cu4   O32   S    
Cu6   O26   S    
C36   H21   S    
C80   C89   A    
C65   O12   A    
C24   C29   A    
C45   O55   S    
C10   C152  A    
C55   H82   S    
C56   H86   S    
C13   C28   A    
C2    C27   A    
C49   H63   S    
C72   C81   A    
C24   C66   A    
Cu3   O31   S    
C39   H33   S    
Cu1   O24   S    
Cu11  O71   S    
C5    C68   A    
C116  O10   A    
C130  C139  T    
C79   C88   A    
C26   O53   S    
C146  C148  T    
C47   H54   S    
C87   O34   A    
C83   H13   S    
C44   H49   S    
C54   H77   S    
C118  O21   A    
C107  O37   A    
C131  O8    A    
C40   H36   S    
C38   H30   S    
Cu3   O35   S    
C95   O69   S    
C10   C19   A    
C110  O39   A    
C112  O41   A    
Cu7   Cu10  S    
C63   C151  A    
C5    C14   A    
C92   C101  A    
C25   H8    S    
Cu6   O23   S    
C126  C135  T    
C100  C112  S    
C73   C76   S    
C102  C110  S    
C3    C66   A    
C73   C82   A    
C115  C124  S    
C59   H92   S    
C121  C129  S    
C106  O36   A    
C93   C102  A    
C99   C113  S    
C108  O38   A    
C101  C111  S    
Cu5   O5    S    
C105  C106  S    
C39   H32   S    
C133  C141  S    
C23   C32   A    
C88   H17   S    
C13   C64   A    
C7    H78   S    
C42   H42   S    
Cu9   O56   S    
Cu6   O11   S    
C40   H37   S    
C59   H93   S    
C52   H71   S    
C37   H25   S    
C16   O52   S    
C45   H53   S    
C76   O23   A    
C58   H88   S    
Cu7   O34   S    
C83   C92   A    
C17   H89   S    
C1    C71   S    
C30   C35   A    
C51   H70   S    
C17   C26   A    
C60   H95   S    
C5    H56   S    
Cu11  O20   S    
Cu7   O7    S    
C45   H52   S    
C50   O60   S    
C43   H46   S    
C6    C15   A    
C1    O72   A    
C129  C138  T    
Cu4   O43   S    
C34   H20   S    
C103  C108  S    
C41   H39   S    
Cu12  O38   S    
C136  C145  S    
C78   C86   A    
C15   C23   A    
C110  O30   A    
C55   H83   S    
C6    H67   S    
C69   C78   A    
Cu8   O19   S    
C71   C80   A    
C119  O22   A    
C20   C29   A    
C53   O63   S    
Cu6   O8    S    
C22   C31   A    
C43   O53   S    
C150  H1    S    
C47   H55   S    
C12   C21   A    
C89   C97   A    
C44   H48   S    
C54   H80   S    
C128  C137  T    
C121  O15   A    
C122  O16   A    
C85   C94   A    
C138  C147  S    
C85   H15   S    
C86   H16   S    
C84   H14   S    
C52   H73   S    
C1    O1    A    
C135  C144  S    
C37   H27   S    
C76   O3    A    
Cu2   O39   S    
C94   O68   S    
C112  O32   A    
C54   O64   S    
C95   C104  A    
C51   O61   S    
C143  C145  T    
C7    C16   A    
C11   O48   S    
C42   O52   S    
C51   H68   S    
Cu4   O40   S    
C116  O19   A    
Cu1   O9    S    
C18   C27   A    
C44   O54   S    
C109  O6    A    
C53   H74   S    
C94   C103  A    
C4    C67   A    
C48   H59   S    
Cu9   O72   S    
C12   O49   S    
C81   H10   S    
C13   C100  A    
C107  O28   A    
Cu5   O10   S    
Cu3   O42   S    
C34   H18   S    
C36   H22   S    
C29   O57   S    
C31   O59   S    
C32   O60   S    
C55   H81   S    
Cu11  O3    S    
C57   C69   A    
C49   H62   S    
C26   C142  A    
C87   O4    A    
C122  C130  S    
C118  O13   A    
C15   O51   S    
