data_mof_unit_45042.cif
_audit_creation_date              2012-12-10T18:06:49-0500
_audit_creation_method            fapswitch 2.2
_symmetry_space_group_name_H-M    P1
_symmetry_Int_Tables_number       1
_space_group_crystal_system       triclinic
_cell_length_a                    12.727853
_cell_length_b                    12.958226
_cell_length_c                    15.441594
_cell_angle_alpha                 84.399662
_cell_angle_beta                  99.132592
_cell_angle_gamma                 98.578209
_cell_volume                      2479.23877044

loop_
_atom_site_label
_atom_site_type_symbol
_atom_type_description
_atom_site_fract_x
_atom_site_fract_y
_atom_site_fract_z
_atom_type_partial_charge
C1    C     C_R   0.441846 0.308101 0.507602 0.844557
C2    C     C_R   0.605400 0.367586 0.932886 0.123382
C3    C     C_R   0.529075 0.435533 0.899145 0.109697
C4    C     C_R   0.435178 0.511479 0.336574 0.860856
C5    C     C_R   0.671931 0.338559 0.878157 -0.196930
C6    C     C_R   0.662732 0.375230 0.789178 0.166071
C7    C     C_R   0.530644 0.482447 0.814189 -0.296046
C8    C     C_R   0.622016 0.937917 0.350045 -0.014837
C9    C     C_R   0.583360 0.802260 0.464762 -0.082752
C10   C     C_R   0.336387 0.152802 0.573048 -0.188938
C11   C     C_R   0.317910 0.044821 0.590263 -0.142592
C12   C     C_R   0.412926 0.468479 0.098004 0.052900
C13   C     C_R   0.375382 0.981245 0.553422 -0.187671
C14   C     C_R   0.450060 0.025427 0.496687 0.095780
C15   C     C_R   0.450681 0.130800 0.465871 0.099015
C16   C     C_R   0.556163 0.691809 0.488127 0.922600
C17   C     C_R   0.520639 0.967247 0.466528 0.059172
C18   C     C_R   0.565906 0.004265 0.388424 0.050113
C19   C     C_R   0.549631 0.104264 0.349575 -0.204003
C20   C     C_R   0.496549 0.168033 0.389670 -0.199923
C21   C     C_R   0.547578 0.873076 0.511486 0.132242
C22   C     C_R   0.622290 0.834494 0.385416 -0.313904
C23   C     C_R   0.322427 0.519318 0.061639 0.148307
C24   C     C_R   0.404764 0.196272 0.512203 -0.108468
C25   C     C_R   0.146883 0.607517 0.648800 -0.277046
C26   C     C_R   0.753542 0.398109 0.381832 0.060415
C27   C     C_R   0.845818 0.389250 0.348497 -0.221284
C28   C     C_R   0.562652 0.481785 0.663685 0.893871
C29   C     C_R   0.944241 0.428023 0.394246 -0.132714
C30   C     C_R   0.951786 0.468015 0.477705 0.026726
C31   C     C_R   0.855535 0.485243 0.504379 0.125941
C32   C     C_R   0.050572 0.503556 0.529754 -0.089708
C33   C     C_R   0.050830 0.553380 0.607734 0.160729
C34   C     C_R   0.472234 0.427556 0.042725 0.067424
C35   C     C_R   0.953913 0.553523 0.639389 0.039589
C36   C     C_R   0.860368 0.544404 0.578087 -0.072063
C37   C     C_R   0.150334 0.490549 0.508679 0.052367
C38   C     C_R   0.239920 0.610507 0.612606 -0.020749
C39   C     C_R   0.392941 0.511735 0.243206 -0.034199
C40   C     C_R   0.591369 0.449602 0.757298 -0.067217
C41   C     C_R   0.263850 0.558162 0.118527 -0.198219
C42   C     C_R   0.298891 0.554179 0.208618 -0.153296
C43   C     C_R   0.447526 0.467479 0.188481 -0.248136
C44   C     C_3   0.196650 0.580827 0.927139 -0.938807
C45   C     C_R   0.454890 0.456824 0.951882 0.031881
C46   C     C_2   0.676475 0.970641 0.271604 0.908277
C47   C     C_3   0.553333 0.851541 0.610459 -0.900532
C48   C     C_3   0.951169 0.584459 0.730964 -0.863065
C49   C     C_2   0.162385 0.393931 0.469894 0.925326
C50   C     C_2   0.816597 0.644422 0.564303 1.013091
C51   C     C_3   0.725135 0.329533 0.730529 -0.838348
C52   C     C_R   0.362461 0.503487 0.916006 -0.232138
C53   C     C_R   0.294723 0.532315 0.969614 0.185122
C54   C     C_R   0.548870 0.359069 0.075313 -0.202629
C55   C     C_R   0.612937 0.328048 0.020477 -0.214274
H1    H     H_    0.728011 0.283905 0.904125 0.144596
H2    H     H_    0.149977 0.651188 0.705503 0.152859
H3    H     H_    0.675991 0.370518 0.345960 0.123487
H4    H     H_    0.011896 0.430282 0.360253 0.161668
H5    H     H_    0.841027 0.356154 0.286027 0.163339
H6    H     H_    0.669785 0.274434 0.047140 0.158154
H7    H     H_    0.192804 0.594754 0.094065 0.157998
H8    H     H_    0.254222 0.587215 0.250717 0.171738
H9    H     H_    0.520742 0.437247 0.217168 0.149724
H10   H     H_    0.339477 0.514705 0.845683 0.156784
H11   H     H_    0.557807 0.324931 0.142270 0.138927
H12   H     H_    0.652638 0.778601 0.351194 0.217622
H13   H     H_    0.187388 0.583653 0.854407 0.238092
H14   H     H_    0.123402 0.533971 0.948235 0.247268
H15   H     H_    0.203312 0.662332 0.945963 0.246762
H16   H     H_    0.713756 0.930195 0.158393 0.347834
H17   H     H_    0.630129 0.821776 0.638050 0.268010
H18   H     H_    0.553190 0.923784 0.643525 0.247423
H19   H     H_    0.486366 0.791731 0.627432 0.236834
H20   H     H_    0.868789 0.566852 0.748623 0.270300
H21   H     H_    0.003055 0.538451 0.779731 0.239472
H22   H     H_    0.979012 0.669389 0.735534 0.250274
H23   H     H_    0.577577 0.134868 0.288451 0.177259
H24   H     H_    0.134193 0.236244 0.476553 0.346857
H25   H     H_    0.812038 0.781832 0.491165 0.342432
H26   H     H_    0.669205 0.291311 0.676580 0.249813
H27   H     H_    0.782752 0.391661 0.702898 0.260045
H28   H     H_    0.772230 0.269246 0.767031 0.227763
H29   H     H_    0.299463 0.202222 0.608619 0.185398
H30   H     H_    0.359438 0.897724 0.568355 0.159145
H31   H     H_    0.262780 0.010691 0.635208 0.154657
H32   H     H_    0.487642 0.245417 0.358427 0.150516
H33   H     H_    0.314648 0.652097 0.643015 0.131031
H34   H     H_    0.482857 0.544411 0.790303 0.161373
N1    N     N_R   0.239390 0.551900 0.544730 -0.138065
N2    N     N_R   0.759950 0.448600 0.455730 -0.129036
O1    O     O_R   0.374950 0.371210 0.521360 -0.589104
O2    O     O_R   0.672354 0.899743 0.208027 -0.800292
O3    O     O_2   0.198405 0.398213 0.400755 -0.628092
O4    O     O_R   0.125137 0.296966 0.510183 -0.810822
O5    O     O_2   0.773026 0.673708 0.620945 -0.660669
O6    O     O_R   0.835210 0.710654 0.489558 -0.803898
O7    O     O_R   0.542050 0.338030 0.492790 -0.619167
O8    O     O_R   0.368720 0.526070 0.390200 -0.568955
O9    O     O_R   0.535820 0.492890 0.361630 -0.639760
O10   O     O_R   0.457950 0.661970 0.507210 -0.615974
O11   O     O_R   0.625050 0.628790 0.478640 -0.592848
O12   O     O_R   0.464180 0.507110 0.638370 -0.627153
O13   O     O_R   0.631280 0.473930 0.609800 -0.605328
O14   O     O_2   0.728735 0.057394 0.264212 -0.646186
Zn1   Zn    Zn3+2 0.388420 0.522150 0.519080 0.969558
Zn2   Zn    Zn3+2 0.611580 0.477850 0.480920 0.955376

loop_
_geom_bond_atom_site_label_1
_geom_bond_atom_site_label_2
_ccdc_geom_bond_type
C20   H32   S    
H25   O6    S    
C27   C29   A    
C41   C42   A    
C48   H21   S    
C5    H1    S    
C19   C20   A    
C48   H20   S    
C9    C21   A    
C12   C23   A    
C26   C27   A    
C37   N1    A    
C9    C16   S    
C12   C43   A    
C3    C7    A    
C27   H5    S    
C30   C31   A    
C9    C22   A    
C28   C40   S    
C11   H31   S    
C7    H34   S    
C46   O14   D    
C18   C19   A    
C44   C53   S    
C29   H4    S    
C50   O6    S    
C8    C22   A    
C7    C40   A    
C44   H15   S    
C49   O3    D    
C51   H26   S    
C13   C14   A    
C14   C17   A    
C25   H2    S    
C41   H7    S    
C35   C48   S    
C43   H9    S    
C23   C53   A    
C39   C42   A    
C15   C20   A    
C47   H17   S    
N2    Zn2   S    
O11   Zn2   S    
N1    Zn1   S    
C39   C43   A    
C45   C52   A    
C10   C24   A    
C26   N2    A    
C3    C45   A    
C8    C18   A    
O7    Zn2   S    
C38   H33   S    
C35   C36   A    
C48   H22   S    
C19   H23   S    
H24   O4    S    
C29   C30   A    
C25   C38   A    
C37   C49   S    
C28   O13   A    
C4    C39   S    
C17   C18   A    
C44   H14   S    
C34   C45   A    
C32   C37   A    
C49   O4    S    
C26   H3    S    
C51   H27   S    
C47   H18   S    
H16   O2    S    
C16   O11   A    
C15   C24   A    
C34   C54   A    
C1    O1    A    
C31   N2    A    
C4    O9    A    
C6    C51   S    
C6    C40   A    
C44   H13   S    
C2    C5    A    
C12   C34   A    
C51   H28   S    
C36   C50   S    
C52   C53   A    
O1    Zn1   S    
O10   Zn1   S    
O8    Zn1   S    
C54   C55   A    
O9    Zn2   S    
C31   C36   A    
C47   H19   S    
C1    O7    A    
C54   H11   S    
C38   N1    A    
C23   C41   A    
C2    C55   A    
C32   C33   A    
C2    C3    A    
C30   C32   A    
C11   C13   A    
C28   O12   A    
C50   O5    D    
C5    C6    A    
C46   O2    S    
C55   H6    S    
C10   H29   S    
C33   C35   A    
O12   Zn1   S    
C8    C46   S    
C22   H12   S    
C10   C11   A    
C16   O10   A    
C1    C24   S    
C4    O8    A    
C13   H30   S    
C14   C15   A    
C42   H8    S    
O13   Zn2   S    
C52   H10   S    
C25   C33   A    
C21   C47   S    
C17   C21   A    
