data_mof_unit_21203.cif
_audit_creation_date              2012-10-26T19:27:38-0400
_audit_creation_method            fapswitch 2.2
_symmetry_space_group_name_H-M    P1
_symmetry_Int_Tables_number       1
_space_group_crystal_system       triclinic
_cell_length_a                    20.978449
_cell_length_b                    21.701978
_cell_length_c                    14.776588
_cell_angle_alpha                 90.000016
_cell_angle_beta                  128.28204
_cell_angle_gamma                 89.999929
_cell_volume                      5280.80651642

loop_
_atom_site_label
_atom_site_type_symbol
_atom_type_description
_atom_site_fract_x
_atom_site_fract_y
_atom_site_fract_z
_atom_type_partial_charge
C1    C     C_R   0.599919 0.911644 0.629831 0.533681
C2    C     C_R   0.682612 0.216443 0.084346 -0.143446
C3    C     C_R   0.687000 0.737039 0.917930 0.023006
C4    C     C_R   0.247123 0.700189 0.995625 0.029284
C5    C     C_R   0.812998 0.237041 0.082068 0.023006
C6    C     C_R   0.752875 0.700187 0.004373 0.029282
C7    C     C_R   0.187001 0.237040 0.917931 0.023006
C8    C     C_R   0.383365 0.734877 0.090080 -0.152389
C9    C     C_R   0.680777 0.192778 0.995593 -0.140612
C10   C     C_R   0.616634 0.734877 0.909919 -0.152390
C11   C     C_R   0.319222 0.192777 0.004406 -0.140613
C12   C     C_R   0.883365 0.234878 0.090079 -0.152388
C13   C     C_R   0.621731 0.720632 0.006082 -0.152040
C14   C     C_R   0.180777 0.692778 0.995593 -0.140612
C15   C     C_R   0.116634 0.234877 0.909920 -0.152388
C16   C     C_R   0.819220 0.692774 0.004403 -0.140610
C17   C     C_3   0.392700 0.861264 0.169343 -0.237078
C18   C     C_3   0.485347 0.850772 0.244539 -0.403951
C19   C     C_3   0.691766 0.068732 0.891420 -0.268272
C20   C     C_3   0.773464 0.049508 0.004049 -0.451518
C21   C     C_3   0.607299 0.861264 0.830657 -0.237078
C22   C     C_3   0.514653 0.850772 0.755460 -0.403951
C23   C     C_3   0.308234 0.068731 0.108581 -0.268270
C24   C     C_R   0.317387 0.216442 0.915653 -0.143446
C25   C     C_3   0.226537 0.049507 0.995950 -0.451516
C26   C     C_3   0.892699 0.361265 0.169341 -0.237078
C27   C     C_3   0.985345 0.350774 0.244536 -0.403950
C28   C     C_3   0.191767 0.568731 0.891421 -0.268273
C29   C     C_3   0.273466 0.549506 0.004047 -0.451516
C30   C     C_3   0.107300 0.361265 0.830658 -0.237078
C31   C     C_3   0.014654 0.350773 0.755462 -0.403951
C32   C     C_3   0.808228 0.568729 0.108577 -0.268277
C33   C     C_3   0.726525 0.549500 0.995962 -0.451517
C34   C     C_3   0.353397 0.711309 0.774598 -0.277548
C35   C     C_R   0.878268 0.220633 0.993917 -0.152041
C36   C     C_3   0.330842 0.702466 0.655330 -0.453478
C37   C     C_3   0.679779 0.264603 0.266623 -0.273048
C38   C     C_3   0.682164 0.297870 0.360031 -0.457446
C39   C     C_3   0.646606 0.711312 0.225405 -0.277548
C40   C     C_3   0.669161 0.702470 0.344674 -0.453479
C41   C     C_3   0.320221 0.264602 0.733376 -0.273048
C42   C     C_3   0.317836 0.297870 0.639970 -0.457446
C43   C     C_3   0.853396 0.211310 0.774597 -0.277548
C44   C     C_3   0.830840 0.202468 0.655328 -0.453478
C45   C     C_3   0.179780 0.764602 0.266624 -0.273050
C46   C     C_R   0.182612 0.716443 0.084345 -0.143445
C47   C     C_3   0.182167 0.797867 0.360035 -0.457449
C48   C     C_3   0.146604 0.211311 0.225403 -0.277548
C49   C     C_3   0.169159 0.202469 0.344671 -0.453478
C50   C     C_3   0.820221 0.764602 0.733377 -0.273048
C51   C     C_3   0.817837 0.797871 0.639972 -0.457447
C52   C     C_3   0.714326 0.969837 0.511069 -0.223325
C53   C     C_3   0.752266 0.012816 0.614215 -0.385447
C54   C     C_3   0.285674 0.969837 0.488931 -0.223325
C55   C     C_3   0.247734 0.012817 0.385786 -0.385446
C56   C     C_3   0.214326 0.469836 0.511069 -0.223325
C57   C     C_R   0.121731 0.220632 0.006082 -0.152041
C58   C     C_3   0.252265 0.512816 0.614214 -0.385447
C59   C     C_3   0.785673 0.469838 0.488930 -0.223325
C60   C     C_3   0.747734 0.512818 0.385786 -0.385446
C61   C     C_R   0.817386 0.716440 0.915651 -0.143443
C62   C     C_R   0.324130 0.010651 0.669898 -0.145846
C63   C     C_R   0.675870 0.010651 0.330103 -0.145846
C64   C     C_R   0.824130 0.510650 0.669898 -0.145846
C65   C     C_R   0.394052 0.083087 0.364026 0.535951
C66   C     C_R   0.175870 0.510650 0.330102 -0.145847
C67   C     C_R   0.350806 0.998406 0.605664 0.163137
C68   C     C_R   0.649194 0.998406 0.394336 0.163137
C69   C     C_R   0.850806 0.498406 0.605664 0.163136
C70   C     C_R   0.149194 0.498405 0.394336 0.163137
C71   C     C_R   0.487916 0.006433 0.775112 0.002633
C72   C     C_R   0.512083 0.006433 0.224888 0.002632
C73   C     C_R   0.987917 0.506434 0.775112 0.002633
C74   C     C_R   0.012083 0.506435 0.224888 0.002634
C75   C     C_R   0.462411 0.009914 0.845313 -0.004293
C76   C     C_R   0.400081 0.911644 0.370169 0.533681
C77   C     C_R   0.537589 0.009914 0.154687 -0.004292
C78   C     C_R   0.962411 0.509914 0.845313 -0.004293
C79   C     C_R   0.037589 0.509914 0.154687 -0.004293
C80   C     C_R   0.378454 0.012831 0.788498 0.021423
C81   C     C_R   0.621546 0.012831 0.211502 0.021423
C82   C     C_R   0.878454 0.512830 0.788499 0.021423
C83   C     C_R   0.121546 0.512831 0.211502 0.021423
C84   C     C_R   0.516087 0.010184 0.968739 0.025821
C85   C     C_R   0.483913 0.010184 0.031260 0.025821
C86   C     C_R   0.016087 0.510184 0.968739 0.025821
C87   C     C_R   0.605948 0.083087 0.635973 0.535950
C88   C     C_R   0.983913 0.510184 0.031261 0.025821
C89   C     C_R   0.399378 0.009038 0.968249 -0.146612
C90   C     C_R   0.600622 0.009038 0.031751 -0.146612
C91   C     C_R   0.899378 0.509036 0.968250 -0.146611
C92   C     C_R   0.100622 0.509038 0.031750 -0.146611
C93   C     C_R   0.347848 0.012812 0.849542 -0.132977
C94   C     C_R   0.652151 0.012812 0.150458 -0.132977
C95   C     C_R   0.847849 0.512810 0.849543 -0.132976
C96   C     C_R   0.152151 0.512811 0.150458 -0.132977
C97   C     C_R   0.674866 0.122499 0.724658 -0.027143
C98   C     C_R   0.099919 0.411644 0.629831 0.533681
C99   C     C_R   0.350523 0.856036 0.300896 -0.019561
C100  C     C_R   0.325133 0.122499 0.275342 -0.027144
C101  C     C_R   0.649476 0.856035 0.699103 -0.019562
C102  C     C_R   0.174867 0.622498 0.724658 -0.027143
C103  C     C_R   0.850523 0.356036 0.300896 -0.019561
C104  C     C_R   0.825133 0.622498 0.275341 -0.027141
C105  C     C_R   0.149476 0.356035 0.699103 -0.019561
C106  C     C_R   0.793307 0.185571 0.790650 0.014041
C107  C     C_R   0.243092 0.784393 0.252221 0.012380
C108  C     C_R   0.206692 0.185571 0.209350 0.014042
C109  C     C_R   0.894052 0.583087 0.364026 0.535951
C110  C     C_R   0.756908 0.784392 0.747778 0.012380
C111  C     C_R   0.293308 0.685570 0.790650 0.014042
C112  C     C_R   0.743091 0.284393 0.252221 0.012380
C113  C     C_R   0.706693 0.685572 0.209351 0.014042
C114  C     C_R   0.256908 0.284393 0.747778 0.012380
C115  C     C_R   0.721723 0.154269 0.701459 -0.138066
C116  C     C_R   0.300293 0.830196 0.322690 -0.136138
C117  C     C_R   0.278277 0.154270 0.298540 -0.138066
C118  C     C_R   0.699707 0.830195 0.677309 -0.136138
C119  C     C_R   0.221723 0.654269 0.701460 -0.138066
C120  C     C_R   0.900081 0.411644 0.370169 0.533681
C121  C     C_R   0.800293 0.330195 0.322691 -0.136138
C122  C     C_R   0.778278 0.654270 0.298541 -0.138066
C123  C     C_R   0.199706 0.330195 0.677309 -0.136138
C124  C     C_R   0.697730 0.125750 0.836631 0.003876
C125  C     C_R   0.353348 0.827787 0.215182 -0.000610
C126  C     C_R   0.302270 0.125750 0.163369 0.003876
C127  C     C_R   0.646652 0.827786 0.784817 -0.000610
C128  C     C_R   0.197730 0.625750 0.836631 0.003877
C129  C     C_R   0.853347 0.327788 0.215181 -0.000610
C130  C     C_R   0.802268 0.625749 0.163367 0.003879
C131  C     C_R   0.105948 0.583087 0.635974 0.535951
C132  C     C_R   0.146652 0.327787 0.784818 -0.000610
C133  C     C_R   0.748070 0.174623 0.907800 0.042216
C134  C     C_R   0.306798 0.772866 0.158115 0.022314
C135  C     C_R   0.251929 0.174622 0.092199 0.042217
C136  C     C_R   0.693200 0.772865 0.841884 0.022315
C137  C     C_R   0.248070 0.674623 0.907800 0.042216
C138  C     C_R   0.806798 0.272867 0.158114 0.022314
C139  C     C_R   0.751928 0.674621 0.092198 0.042214
C140  C     C_R   0.193201 0.272866 0.841885 0.022314
C141  C     C_R   0.806625 0.194991 0.896253 0.036247
C142  C     C_R   0.378268 0.720632 0.993918 -0.152041
C143  C     C_R   0.244621 0.757080 0.166412 0.032684
C144  C     C_R   0.193374 0.194991 0.103746 0.036247
C145  C     C_R   0.755378 0.757078 0.833586 0.032684
C146  C     C_R   0.306626 0.694990 0.896254 0.036248
C147  C     C_R   0.744621 0.257080 0.166412 0.032684
C148  C     C_R   0.693374 0.694991 0.103746 0.036249
C149  C     C_R   0.255379 0.257080 0.833587 0.032684
C150  C     C_R   0.747123 0.200189 0.995624 0.029284
C151  C     C_R   0.312999 0.737040 0.082069 0.023006
C152  C     C_R   0.252877 0.200189 0.004375 0.029285
Cu1   Cu    Cu3+1 0.526640 0.000000 0.436960 0.904802
Cu2   Cu    Cu3+1 0.473360 0.000000 0.563040 0.904802
Cu3   Cu    Cu3+1 0.026640 0.500000 0.436960 0.904803
Cu4   Cu    Cu3+1 0.973360 0.500000 0.563040 0.904803
H1    H     H_    0.303705 0.848146 0.392840 0.122605
H2    H     H_    0.631621 0.205436 0.082571 0.106545
H3    H     H_    0.813243 0.714405 0.714375 0.147742
H4    H     H_    0.441729 0.745512 0.168838 0.125870
H5    H     H_    0.625928 0.169840 0.925883 0.118053
H6    H     H_    0.558270 0.745512 0.831162 0.125870
H7    H     H_    0.374071 0.169839 0.074115 0.118054
H8    H     H_    0.941728 0.245513 0.168837 0.125870
H9    H     H_    0.125928 0.669841 0.925882 0.118053
H10   H     H_    0.058271 0.245512 0.831162 0.125870
H11   H     H_    0.874069 0.669837 0.074113 0.118052
H12   H     H_    0.282899 0.012784 0.804699 0.105691
H13   H     H_    0.568826 0.728119 0.001502 0.094628
H14   H     H_    0.717101 0.012785 0.195301 0.105691
H15   H     H_    0.782899 0.512781 0.804700 0.105692
H16   H     H_    0.217101 0.512783 0.195301 0.105691
H17   H     H_    0.449404 0.005308 0.188078 0.105164
H18   H     H_    0.550596 0.005308 0.811922 0.105164
H19   H     H_    0.949404 0.505313 0.188078 0.105165
H20   H     H_    0.050596 0.505310 0.811922 0.105164
H21   H     H_    0.747143 0.061299 0.587289 0.146685
H22   H     H_    0.724579 0.006033 0.657287 0.180140
H23   H     H_    0.817855 0.002030 0.679716 0.105839
H24   H     H_    0.368378 0.205435 0.917427 0.106545
H25   H     H_    0.693513 0.926087 0.520098 0.152662
H26   H     H_    0.765740 0.953443 0.513614 0.085703
H27   H     H_    0.252858 0.061300 0.412712 0.146686
H28   H     H_    0.275420 0.006033 0.342713 0.180139
H29   H     H_    0.182145 0.002031 0.320284 0.105839
H30   H     H_    0.306486 0.926088 0.479902 0.152662
H31   H     H_    0.234260 0.953444 0.486385 0.085702
H32   H     H_    0.247142 0.561298 0.587287 0.146686
H33   H     H_    0.224579 0.506033 0.657287 0.180139
H34   H     H_    0.317855 0.502030 0.679716 0.105839
H35   H     H_    0.931174 0.228119 0.998498 0.094628
H36   H     H_    0.193513 0.426087 0.520098 0.152662
H37   H     H_    0.265740 0.453442 0.513614 0.085703
H38   H     H_    0.752861 0.561301 0.412715 0.146688
H39   H     H_    0.775419 0.506035 0.342712 0.180137
H40   H     H_    0.682145 0.502035 0.320286 0.105838
H41   H     H_    0.806485 0.426088 0.479899 0.152662
H42   H     H_    0.734259 0.453444 0.486384 0.085702
H43   H     H_    0.259523 0.011628 0.627857 0.088608
H44   H     H_    0.740476 0.011628 0.372143 0.088608
H45   H     H_    0.759523 0.511626 0.627858 0.088608
H46   H     H_    0.131621 0.705437 0.082570 0.106545
H47   H     H_    0.240477 0.511626 0.372142 0.088608
H48   H     H_    0.068826 0.228118 0.001501 0.094628
H49   H     H_    0.868376 0.705433 0.917425 0.106544
H50   H     H_    0.370908 0.003982 0.007967 0.087916
H51   H     H_    0.629092 0.003982 0.992033 0.087916
H52   H     H_    0.870908 0.503979 0.007968 0.087911
H53   H     H_    0.704344 0.151289 0.615909 0.132490
H54   H     H_    0.129092 0.503982 0.992032 0.087915
H55   H     H_    0.506181 0.814234 0.310156 0.137747
H56   H     H_    0.502641 0.838320 0.189407 0.110650
H57   H     H_    0.520350 0.892126 0.292148 0.196285
H58   H     H_    0.363690 0.848067 0.079029 0.135578
H59   H     H_    0.377332 0.910953 0.156531 0.142175
H60   H     H_    0.767177 0.003837 0.031716 0.122735
H61   H     H_    0.820248 0.045832 0.991292 0.156589
H62   H     H_    0.793904 0.082918 0.074059 0.165246
H63   H     H_    0.647547 0.076720 0.906898 0.132457
H64   H     H_    0.696295 0.848146 0.607160 0.122605
H65   H     H_    0.671331 0.028025 0.834243 0.157441
H66   H     H_    0.493819 0.814234 0.689844 0.137746
H67   H     H_    0.497359 0.838320 0.810592 0.110650
H68   H     H_    0.479650 0.892126 0.707852 0.196286
H69   H     H_    0.636310 0.848067 0.920970 0.135578
H70   H     H_    0.622668 0.910953 0.843469 0.142175
H71   H     H_    0.232823 0.003836 0.968286 0.122735
H72   H     H_    0.179750 0.045834 0.008705 0.156589
H73   H     H_    0.206099 0.082917 0.925939 0.165244
H74   H     H_    0.352455 0.076719 0.093104 0.132457
H75   H     H_    0.295656 0.151289 0.384091 0.132490
H76   H     H_    0.328668 0.028024 0.165758 0.157441
H77   H     H_    0.006179 0.314235 0.310154 0.137747
H78   H     H_    0.002638 0.338320 0.189403 0.110650
H79   H     H_    0.020348 0.392128 0.292143 0.196285
H80   H     H_    0.863688 0.348068 0.079027 0.135578
H81   H     H_    0.877330 0.410954 0.156530 0.142175
H82   H     H_    0.267178 0.503836 0.031715 0.122736
H83   H     H_    0.320248 0.545829 0.991284 0.156588
H84   H     H_    0.293909 0.582916 0.074058 0.165245
H85   H     H_    0.147550 0.576720 0.906903 0.132456
H86   H     H_    0.803706 0.348145 0.392842 0.122605
H87   H     H_    0.171329 0.528025 0.834242 0.157442
H88   H     H_    0.993820 0.314235 0.689844 0.137747
H89   H     H_    0.997360 0.338320 0.810593 0.110650
H90   H     H_    0.979650 0.392127 0.707855 0.196285
H91   H     H_    0.136310 0.348067 0.920971 0.135578
H92   H     H_    0.122669 0.410953 0.843469 0.142175
H93   H     H_    0.732813 0.503834 0.968283 0.122739
H94   H     H_    0.679755 0.545813 0.008745 0.156582
H95   H     H_    0.706065 0.582913 0.925950 0.165249
H96   H     H_    0.852437 0.576717 0.093079 0.132455
H97   H     H_    0.204344 0.651288 0.615909 0.132490
H98   H     H_    0.828673 0.528023 0.165760 0.157444
H99   H     H_    0.329154 0.652730 0.636542 0.145850
H100  H     H_    0.271138 0.723952 0.588603 0.147430
H101  H     H_    0.377204 0.725027 0.652703 0.133064
H102  H     H_    0.360529 0.761575 0.793053 0.142302
H103  H     H_    0.413357 0.688978 0.838046 0.136133
H104  H     H_    0.741674 0.290928 0.445885 0.139232
H105  H     H_    0.670532 0.347910 0.340605 0.145210
H106  H     H_    0.634199 0.278876 0.362710 0.142561
H107  H     H_    0.618241 0.272840 0.184135 0.139649
H108  H     H_    0.196294 0.348145 0.607158 0.122605
H109  H     H_    0.686756 0.214406 0.285623 0.147743
H110  H     H_    0.670850 0.652734 0.363464 0.145850
H111  H     H_    0.728866 0.723957 0.411399 0.147430
H112  H     H_    0.622800 0.725032 0.347302 0.133064
H113  H     H_    0.639474 0.761578 0.206949 0.142303
H114  H     H_    0.586645 0.688982 0.161958 0.136132
H115  H     H_    0.258327 0.290928 0.554115 0.139231
H116  H     H_    0.329468 0.347910 0.659396 0.145210
H117  H     H_    0.365801 0.278876 0.637291 0.142561
H118  H     H_    0.381759 0.272839 0.815865 0.139649
H119  H     H_    0.795658 0.651291 0.384092 0.132490
H120  H     H_    0.313243 0.214406 0.714376 0.147743
H121  H     H_    0.829152 0.152732 0.636539 0.145849
H122  H     H_    0.771136 0.223954 0.588602 0.147430
H123  H     H_    0.877202 0.225030 0.652700 0.133064
H124  H     H_    0.860528 0.261577 0.793052 0.142303
H125  H     H_    0.913355 0.188979 0.838044 0.136132
H126  H     H_    0.241678 0.790925 0.445887 0.139233
H127  H     H_    0.170535 0.847907 0.340611 0.145210
H128  H     H_    0.134204 0.778871 0.362716 0.142562
H129  H     H_    0.118241 0.772840 0.184137 0.139649
H130  H     H_    0.431174 0.728118 0.998499 0.094627
H131  H     H_    0.186756 0.714405 0.285621 0.147744
H132  H     H_    0.170848 0.152732 0.363461 0.145849
H133  H     H_    0.228864 0.223955 0.411397 0.147430
H134  H     H_    0.122798 0.225030 0.347299 0.133064
H135  H     H_    0.139472 0.261577 0.206947 0.142302
H136  H     H_    0.086644 0.188980 0.161955 0.136132
H137  H     H_    0.758328 0.790930 0.554116 0.139231
H138  H     H_    0.829469 0.847910 0.659400 0.145211
H139  H     H_    0.865802 0.778876 0.637293 0.142561
H140  H     H_    0.881759 0.772838 0.815866 0.139649
N1    N     N_R   0.433280 0.000000 0.657760 -0.236357
N2    N     N_R   0.566720 0.000000 0.342240 -0.236357
N3    N     N_R   0.933280 0.500000 0.657760 -0.236357
N4    N     N_R   0.066720 0.500000 0.342240 -0.236357
O1    O     O_R   0.600040 0.935040 0.546740 -0.520974
O2    O     O_R   0.444990 0.064930 0.346780 -0.499953
O3    O     O_R   0.444990 0.935070 0.346780 -0.514700
O4    O     O_R   0.555010 0.064930 0.653220 -0.499953
O5    O     O_R   0.055010 0.435070 0.653220 -0.514699
O6    O     O_R   0.944990 0.564930 0.346780 -0.499954
O7    O     O_R   0.944990 0.435070 0.346780 -0.514699
O8    O     O_R   0.055010 0.564930 0.653220 -0.499954
O9    O     O_R   0.399960 0.064960 0.453260 -0.495344
O10   O     O_R   0.399960 0.935040 0.453260 -0.520975
O11   O     O_R   0.600040 0.064960 0.546740 -0.495344
O12   O     O_R   0.100040 0.435040 0.546740 -0.520974
O13   O     O_R   0.899960 0.564960 0.453260 -0.495344
O14   O     O_R   0.899960 0.435040 0.453260 -0.520974
O15   O     O_R   0.100040 0.564960 0.546740 -0.495344
O16   O     O_R   0.555010 0.935070 0.653220 -0.514700

loop_
_geom_bond_atom_site_label_1
_geom_bond_atom_site_label_2
_ccdc_geom_bond_type
C131  O8    A    
C34   C111  S    
Cu4   O14   S    
C142  C146  A    
C19   C20   S    
C110  C118  A    
C91   H52   S    
C30   H92   S    
C124  C133  A    
C52   H26   S    
C97   C124  A    
C38   H106  S    
C86   C88   A    
C44   H123  S    
C50   C110  S    
C105  C123  A    
C134  C143  A    
Cu1   O2    S    
C113  C122  A    
Cu2   N1    S    
C15   H10   S    
C97   C115  A    
C110  C145  A    
C54   H30   S    
C39   H114  S    
C7    C15   A    
C59   C60   S    
C10   H6    S    
C21   C22   S    
C45   C47   S    
C87   O11   A    
C36   H99   S    
C137  C146  A    
C127  C136  A    
C5    C12   A    
C99   C116  A    
C68   N2    A    
Cu3   N4    S    
C53   H21   S    
C120  O14   A    
C43   C44   S    
C37   C38   S    
C47   H126  S    
C78   C82   A    
C72   H17   S    
C59   C69   S    
Cu3   O7    S    
C54   H31   S    
C107  C143  A    
C103  C121  A    
C1    C101  S    
C108  C144  A    
C26   H80   S    
C38   H104  S    
Cu4   O5    S    
C63   C68   A    
C106  C115  A    
C48   H135  S    
C65   O9    A    
C94   H14   S    
C26   H81   S    
C30   C31   S    
C134  C151  A    
C57   H48   S    
C4    C14   A    
C33   H94   S    
C6    C16   A    
C7    C152  A    
C40   H111  S    
Cu3   Cu4   S    
C100  C117  A    
C16   H11   S    
C80   C93   A    
C102  C119  A    
Cu1   O11   S    
C73   N3    A    
C20   H61   S    
C74   N4    A    
C3    C6    A    
C66   C70   A    
C100  C126  A    
C101  C118  A    
C113  C148  A    
C62   C80   A    
C62   H43   S    
C102  C128  A    
C75   C84   A    
C104  C122  A    
C135  C152  A    
C92   C96   A    
C111  C119  A    
C3    C136  A    
C6    C139  A    
C4    C137  A    
C43   H125  S    
C96   H16   S    
C44   H122  S    
C39   C113  S    
C24   H24   S    
C55   H28   S    
C13   H13   S    
C77   C85   A    
C98   O5    A    
C42   H116  S    
C49   H134  S    
C84   C90   A    
C53   H23   S    
C139  C148  A    
C111  C146  A    
C39   C40   S    
C2    C147  A    
C22   H68   S    
C25   H71   S    
C43   C106  S    
C71   N1    A    
C70   N4    A    
C88   C91   A    
C123  H108  S    
C11   H7    S    
C17   C18   S    
C64   C69   A    
C12   C35   A    
C9    H5    S    
C47   H127  S    
C23   C126  S    
C76   O10   A    
C114  C123  A    
Cu2   O10   S    
C142  H130  S    
C118  H64   S    
C16   C61   A    
C17   H58   S    
C29   H82   S    
C52   C53   S    
Cu3   O12   S    
C35   H35   S    
C82   C95   A    
C57   C144  A    
C108  C117  A    
C133  C150  A    
C71   H18   S    
C18   H55   S    
C112  C121  A    
C122  H119  S    
C81   C94   A    
C30   C132  S    
C83   C96   A    
C101  C127  A    
C120  O7    A    
C56   C58   S    
C34   C36   S    
C89   C93   A    
C107  C116  A    
C91   C95   A    
Cu1   O1    S    
C1    O16   A    
C32   H98   S    
C2    C9    A    
C140  C149  A    
C39   H113  S    
C60   H39   S    
C61   H49   S    
C40   H110  S    
C125  C134  A    
C64   H45   S    
C56   H36   S    
C49   H132  S    
C41   C42   S    
Cu4   N3    S    
C103  C120  S    
C14   C46   A    
C21   H70   S    
C22   H66   S    
C25   H73   S    
C26   C27   S    
C36   H100  S    
C20   H60   S    
C28   C29   S    
C7    C140  A    
C59   H42   S    
C45   H129  S    
C63   H44   S    
C34   H102  S    
C61   C145  A    
C51   H138  S    
C27   H78   S    
C66   C83   A    
C54   C55   S    
Cu2   O16   S    
C93   H12   S    
C31   H90   S    
C29   H84   S    
C104  C130  A    
Cu4   O13   S    
C67   N1    A    
C130  C139  A    
C79   C88   A    
C90   C94   A    
C105  C132  A    
C9    C150  A    
C30   H91   S    
C115  H53   S    
C84   C85   A    
C38   H105  S    
C85   C89   A    
C117  H75   S    
C5    C150  A    
C48   H136  S    
C12   H8    S    
C31   H88   S    
C89   H50   S    
C77   C81   A    
C2    H2    S    
C50   C51   S    
C37   H109  S    
C102  C131  S    
C33   H93   S    
C103  C129  A    
C26   C129  S    
C40   H112  S    
C48   C49   S    
C126  C135  A    
C92   H54   S    
C8    H4    S    
C106  C141  A    
C109  O13   A    
C20   H62   S    
C65   C100  S    
C72   N2    A    
C112  C147  A    
C50   H3    S    
C132  C140  A    
C133  C141  A    
C45   H131  S    
C32   C33   S    
C73   H20   S    
C74   H19   S    
C79   C83   A    
C48   C108  S    
C52   H25   S    
C46   H46   S    
C69   N3    A    
C55   H27   S    
C8    C142  A    
C114  C149  A    
C95   H15   S    
C76   O3    A    
C41   H118  S    
C28   C128  S    
Cu1   N2    S    
C49   H133  S    
C19   H65   S    
C41   C114  S    
C53   H22   S    
C32   C130  S    
C60   H38   S    
C5    C138  A    
C99   C125  A    
Cu3   O15   S    
C76   C99   S    
Cu4   O8    S    
C98   C105  S    
C62   C67   A    
C63   C81   A    
C104  C109  S    
C11   C24   A    
C42   H115  S    
C33   H95   S    
Cu1   O3    S    
C37   C112  S    
C42   H117  S    
C43   H124  S    
C131  O15   A    
C73   C78   A    
C28   H87   S    
Cu2   O4    S    
C21   C127  S    
C75   C80   A    
C51   H139  S    
C136  C145  A    
C52   C68   S    
C27   H79   S    
C78   C86   A    
C23   C25   S    
C87   O4    A    
C15   C57   A    
C1    O1    A    
C119  H97   S    
C121  H86   S    
C19   C124  S    
C129  C138  A    
C58   H32   S    
C8    C151  A    
C47   H128  S    
C54   C67   S    
C109  O6    A    
C56   H37   S    
C18   H56   S    
C128  C137  A    
C37   H107  S    
C58   H34   S    
C72   C77   A    
C44   H121  S    
Cu3   O6    S    
C138  C147  A    
C58   H33   S    
C36   H101  S    
C14   H9    S    
C64   C82   A    
C41   H120  S    
C35   C141  A    
C66   H47   S    
C135  C144  A    
C56   C70   S    
C98   O12   A    
C18   H57   S    
C19   H63   S    
C60   H40   S    
C4    C151  A    
C23   H76   S    
C10   C13   A    
C46   C143  A    
C65   O2    A    
C21   H69   S    
C22   H67   S    
C32   H96   S    
C25   H72   S    
C74   C79   A    
C116  H1    S    
C3    C10   A    
C86   C92   A    
C71   C75   A    
C17   C125  S    
C59   H41   S    
C34   H103  S    
C55   H29   S    
C50   H140  S    
C51   H137  S    
C23   H74   S    
C24   C149  A    
C27   H77   S    
C90   H51   S    
Cu2   O9    S    
C45   C107  S    
C11   C152  A    
C28   H85   S    
C31   H89   S    
C13   C148  A    
Cu1   Cu2   S    
C17   H59   S    
C29   H83   S    
C87   C97   S    
