data_mof_unit_11377.cif
_audit_creation_date              2012-12-11T16:51:17-0500
_audit_creation_method            fapswitch 2.2
_symmetry_space_group_name_H-M    P1
_symmetry_Int_Tables_number       1
_space_group_crystal_system       triclinic
_cell_length_a                    24.368147
_cell_length_b                    17.238769
_cell_length_c                    15.561957
_cell_angle_alpha                 90.0
_cell_angle_beta                  128.707263
_cell_angle_gamma                 90.000012
_cell_volume                      5101.32552975

loop_
_atom_site_label
_atom_site_type_symbol
_atom_type_description
_atom_site_fract_x
_atom_site_fract_y
_atom_site_fract_z
_atom_type_partial_charge
C1    C     C_R   0.840447 0.872707 0.217645 -0.133270
C2    C     C_R   0.159553 0.872707 0.782355 -0.133270
C3    C     C_R   0.340447 0.372707 0.217645 -0.133270
C4    C     C_R   0.659553 0.372707 0.782355 -0.133270
C5    C     C_R   0.884612 0.102228 0.591492 -0.117317
C6    C     C_R   0.115388 0.102228 0.408507 -0.117317
C7    C     C_R   0.384612 0.602228 0.591492 -0.117318
C8    C     C_R   0.615388 0.602228 0.408507 -0.117318
C9    C     C_R   0.815339 0.115356 0.499787 0.072912
C10   C     C_R   0.184661 0.115356 0.500212 0.072912
C11   C     C_R   0.315339 0.615356 0.499787 0.072913
C12   C     C_R   0.684661 0.615356 0.500212 0.072912
C13   C     C_R   0.856441 0.134327 0.143926 0.148573
C14   C     C_R   0.143559 0.134327 0.856074 0.148573
C15   C     C_R   0.356440 0.634327 0.143925 0.148573
C16   C     C_R   0.643559 0.634328 0.856074 0.148572
C17   C     C_R   0.851505 0.704551 0.597205 0.130867
C18   C     C_R   0.148497 0.704556 0.402793 0.130867
C19   C     C_R   0.351504 0.204553 0.597206 0.130867
C20   C     C_R   0.648496 0.204554 0.402794 0.130866
C21   C     C_R   0.827283 0.742322 0.499752 0.049911
C22   C     C_R   0.172718 0.742324 0.500247 0.049910
C23   C     C_R   0.327283 0.242322 0.499752 0.049911
C24   C     C_R   0.672717 0.242323 0.500247 0.049911
C25   C     C_R   0.771540 0.707340 0.400003 -0.202455
C26   C     C_R   0.228459 0.707340 0.599995 -0.202454
C27   C     C_R   0.271541 0.207340 0.400004 -0.202454
C28   C     C_R   0.728459 0.207340 0.599996 -0.202454
C29   C     C_R   0.229189 0.152883 0.400137 -0.186431
C30   C     C_R   0.770810 0.152882 0.599863 -0.186431
C31   C     C_R   0.729188 0.652883 0.400136 -0.186431
C32   C     C_R   0.270810 0.652882 0.599862 -0.186431
C33   C     C_R   0.243154 0.133628 0.500125 0.006670
C34   C     C_R   0.756846 0.133628 0.499874 0.006671
C35   C     C_R   0.743153 0.633628 0.500124 0.006669
C36   C     C_R   0.256846 0.633627 0.499874 0.006671
C37   C     C_R   0.311126 0.148834 0.597632 0.108230
C38   C     C_R   0.688874 0.148835 0.402367 0.108230
C39   C     C_R   0.811126 0.648833 0.597630 0.108231
C40   C     C_R   0.188874 0.648835 0.402366 0.108230
C41   C     C_3   0.842050 0.668633 0.714401 -0.067997
C42   C     C_3   0.157952 0.668638 0.285598 -0.068001
C43   C     C_3   0.342049 0.168636 0.714401 -0.067997
C44   C     C_3   0.657952 0.168637 0.285598 -0.067998
C45   C     C_R   0.092760 0.859576 0.408336 -0.136032
C46   C     C_R   0.907241 0.859574 0.591663 -0.136031
C47   C     C_R   0.592759 0.359575 0.408336 -0.136032
C48   C     C_R   0.407241 0.359575 0.591664 -0.136031
C49   C     C_3   0.883890 0.731926 0.710893 -0.589204
C50   C     C_3   0.116116 0.731934 0.289108 -0.589198
C51   C     C_3   0.383888 0.231930 0.710893 -0.589205
C52   C     C_3   0.616114 0.231932 0.289108 -0.589204
C53   C     C_2   0.159334 0.768102 0.894348 -0.220552
C54   C     C_2   0.840667 0.768101 0.105653 -0.220553
C55   C     C_2   0.659334 0.268102 0.894348 -0.220553
C56   C     C_2   0.340666 0.268102 0.105652 -0.220552
C57   C     C_2   0.200277 0.720529 0.888750 -0.109849
C58   C     C_2   0.799723 0.720530 0.111250 -0.109848
C59   C     C_2   0.700277 0.220530 0.888750 -0.109848
C60   C     C_2   0.299723 0.220530 0.111250 -0.109847
C61   C     C_2   0.811145 0.164754 0.032248 -0.218651
C62   C     C_2   0.188855 0.164754 0.967752 -0.218652
C63   C     C_2   0.311145 0.664753 0.032247 -0.218651
C64   C     C_2   0.688854 0.664754 0.967752 -0.218650
C65   C     C_2   0.741502 0.163460 0.974169 -0.115651
C66   C     C_2   0.258498 0.163460 0.025831 -0.115650
C67   C     C_2   0.241501 0.663460 0.974168 -0.115651
C68   C     C_2   0.758498 0.663460 0.025831 -0.115651
C69   C     C_R   0.168341 0.861259 0.591449 -0.128228
C70   C     C_R   0.831660 0.861258 0.408551 -0.128227
C71   C     C_R   0.668341 0.361259 0.591449 -0.128228
C72   C     C_R   0.331660 0.361258 0.408551 -0.128227
C73   C     C_R   0.068563 0.873373 0.783922 -0.152513
C74   C     C_R   0.931437 0.873372 0.216079 -0.152512
C75   C     C_R   0.568563 0.373373 0.783922 -0.152512
C76   C     C_R   0.431437 0.373373 0.216078 -0.152512
C77   C     C_R   0.868750 0.837070 0.173958 0.154292
C78   C     C_R   0.131250 0.837070 0.826043 0.154291
C79   C     C_R   0.368750 0.337070 0.173957 0.154292
C80   C     C_R   0.631250 0.337070 0.826043 0.154292
C81   C     C_R   0.146068 0.818161 0.499785 0.072435
C82   C     C_R   0.853933 0.818160 0.500215 0.072435
C83   C     C_R   0.646068 0.318161 0.499785 0.072435
C84   C     C_R   0.353933 0.318160 0.500215 0.072435
C85   C     C_R   0.810849 0.099701 0.408725 -0.145286
C86   C     C_R   0.189151 0.099702 0.591275 -0.145285
C87   C     C_R   0.310849 0.599701 0.408724 -0.145284
C88   C     C_R   0.689151 0.599702 0.591275 -0.145284
C89   C     C_R   0.925886 0.111909 0.202603 -0.148297
C90   C     C_R   0.074114 0.111909 0.797397 -0.148297
C91   C     C_R   0.425886 0.611908 0.202602 -0.148298
C92   C     C_R   0.574113 0.611909 0.797397 -0.148296
C93   C     C_R   0.164856 0.113126 0.795198 -0.117968
C94   C     C_R   0.835144 0.113126 0.204802 -0.117967
C95   C     C_R   0.664856 0.613127 0.795198 -0.117967
C96   C     C_R   0.335144 0.613126 0.204801 -0.117968
H1    H     H_    0.787579 0.866075 0.189736 0.085116
H2    H     H_    0.212420 0.866075 0.810264 0.085117
H3    H     H_    0.287579 0.366075 0.189736 0.085116
H4    H     H_    0.712420 0.366075 0.810264 0.085117
H5    H     H_    0.181022 0.135581 0.321522 0.121929
H6    H     H_    0.818977 0.135580 0.678477 0.121929
H7    H     H_    0.681021 0.635583 0.321521 0.121929
H8    H     H_    0.318976 0.635579 0.678476 0.121929
H9    H     H_    0.803957 0.694274 0.723234 0.127396
H10   H     H_    0.196048 0.694276 0.276769 0.127397
H11   H     H_    0.303955 0.194276 0.723232 0.127397
H12   H     H_    0.696047 0.194276 0.276769 0.127396
H13   H     H_    0.865464 0.790676 0.712004 0.182801
H14   H     H_    0.134547 0.790683 0.288004 0.182802
H15   H     H_    0.365460 0.290679 0.712001 0.182802
H16   H     H_    0.634544 0.290681 0.288002 0.182803
H17   H     H_    0.941902 0.724085 0.768926 0.194502
H18   H     H_    0.058103 0.724099 0.231071 0.194495
H19   H     H_    0.441900 0.224090 0.768927 0.194500
H20   H     H_    0.558102 0.224094 0.231072 0.194499
H21   H     H_    0.716683 0.133018 0.002790 0.127639
H22   H     H_    0.283317 0.133018 0.997210 0.127638
H23   H     H_    0.216683 0.633017 0.002790 0.127638
H24   H     H_    0.783316 0.633017 0.997211 0.127639
H25   H     H_    0.212169 0.731615 0.833164 0.127992
H26   H     H_    0.787830 0.731615 0.166835 0.127992
H27   H     H_    0.712169 0.231615 0.833164 0.127992
H28   H     H_    0.287830 0.231615 0.166835 0.127992
H29   H     H_    0.835103 0.196226 0.002676 0.130225
H30   H     H_    0.164896 0.196226 0.997324 0.130225
H31   H     H_    0.335103 0.696225 0.002675 0.130225
H32   H     H_    0.664896 0.696227 0.997324 0.130224
H33   H     H_    0.147729 0.756853 0.950269 0.129354
H34   H     H_    0.852272 0.756851 0.049733 0.129354
H35   H     H_    0.647730 0.256853 0.950270 0.129354
H36   H     H_    0.352271 0.256852 0.049732 0.129354
H37   H     H_    0.065857 0.845202 0.324132 0.104735
H38   H     H_    0.934144 0.845199 0.675867 0.104736
H39   H     H_    0.565856 0.345201 0.324133 0.104736
H40   H     H_    0.434144 0.345200 0.675867 0.104735
H41   H     H_    0.212525 0.849231 0.675469 0.084132
H42   H     H_    0.787476 0.849231 0.324530 0.084131
H43   H     H_    0.712524 0.349231 0.675470 0.084132
H44   H     H_    0.287476 0.349231 0.324530 0.084131
H45   H     H_    0.038886 0.866335 0.813354 0.086250
H46   H     H_    0.961114 0.866334 0.186647 0.086248
H47   H     H_    0.538886 0.366335 0.813354 0.086249
H48   H     H_    0.461114 0.366335 0.186647 0.086249
H49   H     H_    0.763987 0.090090 0.325766 0.088209
H50   H     H_    0.236012 0.090091 0.674234 0.088210
H51   H     H_    0.263988 0.590090 0.325765 0.088207
H52   H     H_    0.736012 0.590091 0.674234 0.088209
H53   H     H_    0.956116 0.111474 0.173318 0.093501
H54   H     H_    0.043884 0.111474 0.826682 0.093501
H55   H     H_    0.456115 0.611474 0.173318 0.093502
H56   H     H_    0.543884 0.611475 0.826682 0.093501
H57   H     H_    0.217132 0.114695 0.819258 0.080496
H58   H     H_    0.782868 0.114695 0.180743 0.080496
H59   H     H_    0.717132 0.614695 0.819258 0.080496
H60   H     H_    0.282868 0.614694 0.180742 0.080496
H61   H     H_    0.905276 0.098322 0.676232 0.083118
H62   H     H_    0.094724 0.098322 0.323768 0.083118
H63   H     H_    0.405276 0.598322 0.676232 0.083118
H64   H     H_    0.594724 0.598322 0.323767 0.083118
H65   H     H_    0.754848 0.728136 0.321393 0.119320
H66   H     H_    0.245151 0.728135 0.678605 0.119320
H67   H     H_    0.254849 0.228135 0.321394 0.119320
H68   H     H_    0.745151 0.228135 0.678605 0.119320
N1    N     N_R   0.888400 0.921830 0.294620 -0.041541
N2    N     N_R   0.111600 0.921830 0.705380 -0.041541
N3    N     N_R   0.388400 0.421830 0.294620 -0.041541
N4    N     N_R   0.611600 0.421830 0.705380 -0.041540
N5    N     N_R   0.079940 0.922160 0.443410 -0.040261
N6    N     N_R   0.920060 0.922160 0.556590 -0.040261
N7    N     N_R   0.579940 0.422160 0.443410 -0.040261
N8    N     N_R   0.420060 0.422160 0.556590 -0.040261
N9    N     N_R   0.125650 0.922400 0.556620 -0.038861
N10   N     N_R   0.874350 0.922400 0.443380 -0.038862
N11   N     N_R   0.625650 0.422400 0.556620 -0.038862
N12   N     N_R   0.374350 0.422400 0.443380 -0.038862
N13   N     N_R   0.054230 0.922730 0.705400 -0.038730
N14   N     N_R   0.945770 0.922730 0.294600 -0.038730
N15   N     N_R   0.554230 0.422730 0.705400 -0.038730
N16   N     N_R   0.445770 0.422730 0.294600 -0.038729
N17   N     N_R   0.873790 0.077030 0.443380 -0.039501
N18   N     N_R   0.126210 0.077030 0.556620 -0.039501
N19   N     N_R   0.373790 0.577030 0.443380 -0.039501
N20   N     N_R   0.626210 0.577030 0.556620 -0.039501
N21   N     N_R   0.945200 0.076700 0.294600 -0.041793
N22   N     N_R   0.054800 0.076700 0.705400 -0.041793
N23   N     N_R   0.445200 0.576700 0.294600 -0.041793
N24   N     N_R   0.554800 0.576700 0.705400 -0.041793
N25   N     N_R   0.111030 0.077600 0.705380 -0.044782
N26   N     N_R   0.888970 0.077600 0.294620 -0.044783
N27   N     N_R   0.611030 0.577600 0.705380 -0.044782
N28   N     N_R   0.388970 0.577600 0.294620 -0.044782
N29   N     N_R   0.919490 0.077280 0.556590 -0.040741
N30   N     N_R   0.080510 0.077280 0.443410 -0.040741
N31   N     N_R   0.419490 0.577280 0.556590 -0.040741
N32   N     N_R   0.580510 0.577280 0.443410 -0.040741
Ni1   Ni    Ni4+2 0.882160 0.999430 0.370180 0.206788
Ni2   Ni    Ni4+2 0.117840 0.999430 0.629820 0.206788
Ni3   Ni    Ni4+2 0.382160 0.499430 0.370180 0.206788
Ni4   Ni    Ni4+2 0.617840 0.499430 0.629820 0.206788
Ni5   Ni    Ni4+2 0.012460 0.999430 0.370180 0.208913
Ni6   Ni    Ni4+2 0.987540 0.999430 0.629820 0.208913
Ni7   Ni    Ni4+2 0.512460 0.499430 0.370180 0.208913
Ni8   Ni    Ni4+2 0.487540 0.499430 0.629820 0.208913
C97   C     C_3   0.888504 0.604032 0.799924 -0.377592
C98   C     C_3   0.929143 0.554278 0.773906 -0.193499
C99   C     C_3   0.979409 0.498168 0.867378 -0.984192
H69   H     H_    0.020628 0.530913 0.942934 0.268522
H70   H     H_    0.950302 0.460178 0.884248 0.271296
H71   H     H_    0.005461 0.461131 0.843956 0.258431
H72   H     H_    0.891348 0.520044 0.697767 0.193561
H73   H     H_    0.960232 0.591677 0.760414 0.197626
H74   H     H_    0.926270 0.631701 0.882059 0.190586
H75   H     H_    0.854626 0.565009 0.805565 0.164862
C100  C     C_3   0.111496 0.604039 0.200072 -0.377584
C101  C     C_3   0.070842 0.554299 0.226072 -0.193488
C102  C     C_3   0.020581 0.498186 0.132601 -0.984190
H76   H     H_    0.979371 0.530928 0.057034 0.268522
H77   H     H_    0.049695 0.460185 0.115754 0.271293
H78   H     H_    0.994516 0.461158 0.156009 0.258429
H79   H     H_    0.108626 0.520067 0.302220 0.193561
H80   H     H_    0.039746 0.591707 0.239541 0.197618
H81   H     H_    0.073740 0.631709 0.117934 0.190579
H82   H     H_    0.145375 0.565007 0.194443 0.164865
C103  C     C_3   0.388504 0.104036 0.799926 -0.377592
C104  C     C_3   0.429145 0.054284 0.773913 -0.193489
C105  C     C_3   0.479410 0.998174 0.867385 -0.984194
H83   H     H_    0.520628 0.030918 0.942944 0.268522
H84   H     H_    0.450301 0.960183 0.884252 0.271295
H85   H     H_    0.505464 0.961137 0.843967 0.258431
H86   H     H_    0.391353 0.020050 0.697772 0.193560
H87   H     H_    0.460237 0.091685 0.760426 0.197622
H88   H     H_    0.426267 0.131706 0.882061 0.190584
H89   H     H_    0.354625 0.065011 0.805566 0.164863
C106  C     C_3   0.611496 0.104038 0.200072 -0.377586
C107  C     C_3   0.570850 0.054290 0.226081 -0.193489
C108  C     C_3   0.520582 0.998183 0.132606 -0.984188
H90   H     H_    0.479369 0.030930 0.057047 0.268521
H91   H     H_    0.549690 0.960188 0.115741 0.271294
H92   H     H_    0.494524 0.961151 0.156019 0.258429
H93   H     H_    0.608639 0.020054 0.302221 0.193558
H94   H     H_    0.539760 0.091694 0.239569 0.197622
H95   H     H_    0.573735 0.131709 0.117937 0.190583
H96   H     H_    0.645374 0.065011 0.194435 0.164861

loop_
_geom_bond_atom_site_label_1
_geom_bond_atom_site_label_2
_ccdc_geom_bond_type
N25   Ni2   S    
C25   C31   A    
C49   H17   S    
C26   C32   A    
C75   H47   S    
C55   C59   D    
C27   C29   A    
C1    C77   A    
C19   C23   A    
N18   Ni2   S    
C76   C79   A    
C90   H54   S    
N16   Ni7   S    
C3    C79   A    
C100  H82   S    
C94   N26   A    
C47   H39   S    
C3    N3    A    
N21   N26   A    
C39   C41   S    
C73   H45   S    
C97   C98   S    
C102  H78   S    
C7    C11   A    
C18   C50   S    
C56   C79   S    
C87   H51   S    
N24   N27   A    
C63   H31   S    
C103  H89   S    
C32   C36   A    
C49   H13   S    
C11   C36   S    
C56   C60   D    
C24   C83   S    
C85   H49   S    
C4    C80   A    
C52   H20   S    
C87   N19   A    
C88   N20   A    
C7    H63   S    
C52   H16   S    
C107  H94   S    
C104  H86   S    
C14   C62   S    
C3    H3    S    
N23   Ni7   S    
C50   H14   S    
C41   C97   S    
C107  C108  S    
N22   Ni6   S    
C60   H28   S    
C17   C39   A    
N28   Ni3   S    
N21   Ni5   S    
N8    Ni8   S    
C18   C40   A    
C101  H79   S    
C14   C90   A    
C91   N23   A    
C42   C100  S    
C19   C37   A    
C27   H67   S    
C46   C82   A    
C98   H72   S    
N5    N9    A    
C20   C24   A    
C29   C33   A    
C11   C87   A    
C64   H32   S    
C74   C77   A    
C92   H56   S    
C99   H71   S    
N19   N31   A    
C106  C107  S    
C32   H8    S    
N18   N30   A    
C23   C27   A    
C8    C12   A    
N17   N29   A    
C75   C80   A    
C2    N2    A    
C14   C93   A    
C95   N27   A    
C54   C77   S    
C9    C85   A    
C44   C52   S    
C40   C42   S    
N3    N16   A    
C74   H46   S    
C97   H74   S    
C48   N8    A    
C108  H90   S    
C69   H41   S    
N1    N14   A    
C17   C49   S    
C69   N9    A    
C57   C67   S    
C65   H21   S    
C86   H50   S    
C41   C49   S    
C6    H62   S    
C38   C44   S    
C71   C83   A    
C44   H12   S    
C59   H27   S    
C54   H34   S    
C63   C67   D    
C89   H53   S    
C58   H26   S    
C23   C84   S    
C30   C34   A    
N8    N12   A    
C99   H69   S    
C22   C81   S    
C36   C40   A    
C101  C102  S    
N19   Ni3   S    
C44   C106  S    
C1    H1    S    
C15   C96   A    
C62   H30   S    
C62   C66   D    
C98   C99   S    
C34   C38   A    
C71   H43   S    
N31   Ni8   S    
C90   N22   A    
N5    Ni5   S    
N20   Ni4   S    
C102  H76   S    
N20   N32   A    
N30   Ni5   S    
N7    N11   A    
N24   Ni8   S    
C25   H65   S    
C33   C37   A    
N29   Ni6   S    
C48   C84   A    
C72   C84   A    
C100  H81   S    
C50   H18   S    
C31   H7    S    
C107  H93   S    
C37   C43   S    
C35   C39   A    
C100  C101  S    
N2    Ni2   S    
C5    C9    A    
C2    C78   A    
N1    Ni1   S    
N15   Ni8   S    
C46   H38   S    
C20   C38   A    
C105  H83   S    
C74   N14   A    
C1    N1    A    
C73   C78   A    
C12   C88   A    
C106  H96   S    
C30   H6    S    
C103  C104  S    
C88   H52   S    
C29   H5    S    
N2    N13   A    
C43   H11   S    
N27   Ni4   S    
N32   Ni7   S    
C98   H73   S    
C70   N10   A    
C106  H95   S    
N23   N28   A    
C56   H36   S    
C46   N6    A    
C41   H9    S    
C42   C50   S    
C60   C66   S    
C76   H48   S    
C58   C68   S    
C105  H84   S    
C97   H75   S    
C70   H42   S    
C5    H61   S    
C108  H91   S    
C66   H22   S    
C9    C34   S    
C31   C35   A    
N14   Ni5   S    
C53   H33   S    
N12   Ni3   S    
C7    N31   A    
C8    H64   S    
C64   C68   D    
C6    N30   A    
C75   N15   A    
C28   H68   S    
C5    N29   A    
C54   C58   D    
C21   C25   A    
C10   C86   A    
N10   Ni1   S    
C85   N17   A    
N4    Ni4   S    
C13   C89   A    
N9    Ni2   S    
C18   C22   A    
C89   N21   A    
C48   H40   S    
N3    Ni3   S    
C45   C81   A    
C24   C28   A    
C99   H70   S    
C76   N16   A    
C57   H25   S    
C53   C57   D    
C6    C10   A    
C47   N7    A    
C92   N24   A    
C16   C92   A    
N6    N10   A    
C93   N25   A    
C45   H37   S    
C102  H77   S    
N4    N15   A    
C55   H35   S    
C51   H15   S    
C4    H4    S    
C51   H19   S    
C13   C94   A    
C103  H88   S    
C96   N28   A    
N22   N25   A    
C93   H57   S    
C53   C78   S    
C73   N13   A    
C20   C52   S    
C59   C65   S    
C91   H55   S    
C55   C80   S    
C16   C95   A    
C43   C51   S    
C96   H60   S    
C94   H58   S    
C19   C51   S    
C104  H87   S    
C71   N11   A    
C28   C30   A    
C26   H66   S    
N17   Ni1   S    
C8    N32   A    
C10   C33   S    
C95   H59   S    
C72   N12   A    
C61   C65   D    
N7    Ni7   S    
C70   C82   A    
C101  H80   S    
N11   Ni4   S    
N6    Ni6   S    
C69   C81   A    
C15   C91   A    
C47   C83   A    
C42   H10   S    
C4    N4    A    
C72   H44   S    
C105  H85   S    
C13   C61   S    
C21   C82   S    
C2    H2    S    
C104  C105  S    
C22   C26   A    
C108  H92   S    
C86   N18   A    
C15   C63   S    
N13   Ni6   S    
C61   H29   S    
C16   C64   S    
C67   H23   S    
C12   C35   S    
C68   H24   S    
C45   N5    A    
C43   C103  S    
N26   Ni1   S    
C17   C21   A    
