data_mof_unit_40645.cif
_audit_creation_date              2012-12-10T18:11:44-0500
_audit_creation_method            fapswitch 2.2
_symmetry_space_group_name_H-M    P1
_symmetry_Int_Tables_number       1
_space_group_crystal_system       triclinic
_cell_length_a                    10.497699
_cell_length_b                    12.782347
_cell_length_c                    13.06552
_cell_angle_alpha                 81.515257
_cell_angle_beta                  93.154907
_cell_angle_gamma                 102.692977
_cell_volume                      1691.16997212

loop_
_atom_site_label
_atom_site_type_symbol
_atom_type_description
_atom_site_fract_x
_atom_site_fract_y
_atom_site_fract_z
_atom_type_partial_charge
C1    C     C_R   0.477762 0.438995 0.690759 0.840216
C2    C     C_R   0.448600 0.445865 0.972558 0.111156
C3    C     C_R   0.424773 0.470027 0.865812 0.093073
C4    C     C_R   0.741944 0.501360 0.500283 0.898231
C5    C     C_R   0.465702 0.530286 0.033755 0.026423
C6    C     C_R   0.426030 0.627770 0.993036 0.106606
C7    C     C_R   0.376155 0.641265 0.892025 -0.183023
C8    C     C_R   0.376890 0.563755 0.828427 -0.184177
C9    C     C_R   0.527984 0.523976 0.131531 0.021335
C10   C     C_R   0.487357 0.698586 0.155055 0.438566
C11   C     C_R   0.450584 0.399615 0.800018 -0.103959
C12   C     C_3   0.055039 0.561747 0.416019 -0.275622
C13   C     C_R   0.330075 0.102008 0.329964 0.383604
C14   C     C_R   0.657757 0.802704 0.631604 0.327416
C15   C     C_R   0.690067 0.906625 0.657508 -0.248434
C16   C     C_R   0.517173 0.561214 0.308426 0.914666
C17   C     C_R   0.630997 0.986126 0.606119 -0.183794
C18   C     C_R   0.536919 0.963362 0.526916 -0.026327
C19   C     C_R   0.505281 0.855887 0.500709 0.130890
C20   C     C_R   0.475020 0.044656 0.472421 -0.033719
C21   C     C_R   0.387533 0.021059 0.388117 -0.005522
C22   C     C_R   0.354285 0.916713 0.365712 -0.362073
C23   C     C_3   0.990448 0.599756 0.501839 0.538484
C24   C     C_R   0.410738 0.835167 0.418955 0.508049
C25   C     C_R   0.495159 0.149543 0.498901 -0.035666
C26   C     C_R   0.352313 0.201937 0.362747 0.037455
C27   C     C_R   0.257929 0.498119 0.500785 0.890601
C28   C     C_3   0.944411 0.436371 0.586360 -0.262221
C29   C     C_3   0.059425 0.535854 0.587513 -0.261431
C30   C     C_3   0.121888 0.495356 0.501492 -0.098616
C31   C     C_3   0.009563 0.396250 0.500923 0.247505
C32   C     C_3   0.940378 0.462206 0.415801 -0.229980
C33   C     C_3   0.877652 0.502783 0.501170 -0.042159
C34   C     C_R   0.441467 0.712324 0.052304 -0.323082
C35   C     C_R   0.517977 0.598684 0.196885 -0.139976
C36   C     C_R   0.462634 0.294346 0.841853 -0.183001
C37   C     C_R   0.455563 0.262099 0.948278 -0.124130
C38   C     C_R   0.450193 0.337686 0.013731 -0.124125
H1    H     H_    0.111268 0.566895 0.656898 0.158285
H2    H     H_    0.663488 0.065178 0.629439 0.157101
H3    H     H_    0.762776 0.926504 0.717692 0.180247
H4    H     H_    0.889077 0.431470 0.346280 0.206675
H5    H     H_    0.101339 0.612680 0.346107 0.156308
H6    H     H_    0.341968 0.713857 0.860740 0.150604
H7    H     H_    0.416159 0.788224 0.019174 0.143192
H8    H     H_    0.291734 0.042746 0.201235 0.327510
H9    H     H_    0.304306 0.733879 0.332564 0.313380
H10   H     H_    0.066171 0.750476 0.501683 0.334001
H11   H     H_    0.481032 0.846050 0.172376 0.323794
H12   H     H_    0.478539 0.237461 0.792639 0.160256
H13   H     H_    0.445581 0.310842 0.096154 0.171973
H14   H     H_    0.460095 0.179902 0.980388 0.150283
H15   H     H_    0.338181 0.577369 0.750340 0.159359
H16   H     H_    0.309096 0.265674 0.320970 0.165227
H17   H     H_    0.280540 0.896243 0.306534 0.167092
H18   H     H_    0.557842 0.176574 0.561989 0.134527
H19   H     H_    0.895251 0.385420 0.655334 0.171115
I1    I     I_    0.680257 0.435079 0.169624 -0.370018
I2    I     I_    0.763145 0.694013 0.717880 -0.272561
I3    I     I_    0.016946 0.230353 0.500795 -0.323470
N1    N     N_R   0.432930 0.222190 0.444670 -0.143345
N2    N     N_R   0.566370 0.776980 0.554790 -0.134735
O1    O     O_R   0.467970 0.366730 0.627150 -0.618964
O2    O     O_3   0.373189 0.735950 0.387773 -0.690094
O3    O     O_3   0.976044 0.705895 0.501903 -0.716953
O4    O     O_3   0.506998 0.782201 0.213737 -0.724711
O5    O     O_R   0.510820 0.544830 0.662520 -0.607171
O6    O     O_R   0.664630 0.410960 0.482340 -0.615912
O7    O     O_R   0.707470 0.589060 0.517710 -0.553226
O8    O     O_R   0.489180 0.455170 0.337480 -0.619474
O9    O     O_R   0.532030 0.633270 0.372850 -0.490986
O10   O     O_R   0.292530 0.410940 0.482290 -0.602774
O11   O     O_R   0.335370 0.589040 0.517660 -0.582856
O12   O     O_3   0.253423 0.087225 0.241907 -0.757712
Zn1   Zn    Zn3+2 0.471390 0.381080 0.476380 0.970344
Zn2   Zn    Zn3+2 0.528610 0.618920 0.523620 1.040449

loop_
_geom_bond_atom_site_label_1
_geom_bond_atom_site_label_2
_ccdc_geom_bond_type
C1    C11   S    
C25   H18   S    
C7    C8    A    
C28   H19   S    
N1    Zn1   S    
O6    Zn1   S    
C14   I2    S    
C12   C23   S    
C29   C30   S    
C23   C29   S    
C36   C37   A    
C26   N1    A    
C18   C19   A    
C12   H5    S    
C16   C35   S    
C5    C6    A    
C20   C25   A    
C19   N2    A    
C14   N2    A    
C1    O1    A    
O7    Zn2   S    
C9    I1    S    
C23   C33   S    
C10   C35   A    
H10   O3    S    
C24   O2    S    
C21   C22   A    
C12   C32   S    
C27   C30   S    
N2    Zn2   S    
C16   O9    A    
O10   Zn1   S    
C26   H16   S    
C4    O7    A    
C10   O4    S    
H11   O4    S    
C16   O8    A    
C15   H3    S    
C3    C8    A    
H9    O2    S    
C4    O6    A    
C37   H14   S    
C38   H13   S    
C6    C34   A    
C17   H2    S    
C11   C36   A    
C31   I3    S    
C5    C9    A    
C37   C38   A    
C2    C38   A    
C31   C32   S    
C29   H1    S    
C17   C18   A    
C13   C21   A    
C10   C34   A    
C34   H7    S    
C25   N1    A    
C7    H6    S    
C13   O12   S    
C6    C7    A    
C28   C33   S    
O11   Zn2   S    
C22   C24   A    
C13   C26   A    
C2    C5    A    
O9    Zn2   S    
H8    O12   S    
C36   H12   S    
C15   C17   A    
C4    C33   S    
C28   C29   S    
C12   C30   S    
C28   C31   S    
C8    H15   S    
C22   H17   S    
C32   C33   S    
C23   O3    S    
C2    C3    A    
C30   C31   S    
O1    Zn1   S    
C1    O5    A    
C19   C24   A    
C18   C20   A    
C3    C11   A    
C20   C21   A    
O8    Zn1   S    
C9    C35   A    
C32   H4    S    
C14   C15   A    
O5    Zn2   S    
C27   O11   A    
C27   O10   A    
