data_mof_unit_5261.cif
_audit_creation_date              2012-12-10T19:24:57-0500
_audit_creation_method            fapswitch 2.2
_symmetry_space_group_name_H-M    P1
_symmetry_Int_Tables_number       1
_space_group_crystal_system       triclinic
_cell_length_a                    15.732398
_cell_length_b                    10.49524
_cell_length_c                    9.785623
_cell_angle_alpha                 90.580409
_cell_angle_beta                  89.9566
_cell_angle_gamma                 89.975675
_cell_volume                      1615.67249028

loop_
_atom_site_label
_atom_site_type_symbol
_atom_type_description
_atom_site_fract_x
_atom_site_fract_y
_atom_site_fract_z
_atom_type_partial_charge
C1    C     C_R   0.500016 0.257780 0.499238 0.925741
C2    C     C_3   0.446240 0.583430 0.952039 -0.254922
C3    C     C_3   0.575049 0.527399 0.951463 -0.239177
C4    C     C_3   0.424950 0.472601 0.048536 -0.239232
C5    C     C_3   0.478997 0.391263 0.951711 0.678481
C6    C     C_3   0.521003 0.608737 0.048288 0.678473
C7    C     C_R   0.338191 0.500070 0.500039 0.889949
C8    C     C_R   0.661809 0.499930 0.499961 0.889957
C9    C     C_3   0.972006 0.422004 0.595498 0.378830
C10   C     C_3   0.027994 0.577995 0.404502 0.378834
C11   C     C_3   0.028035 0.382733 0.474220 0.496981
C12   C     C_R   0.499982 0.742220 0.500762 0.925742
C13   C     C_3   0.971965 0.617267 0.525780 0.496985
C14   C     C_1   0.249373 0.500360 0.500375 -0.145884
C15   C     C_1   0.750627 0.499640 0.499625 -0.145878
C16   C     C_3   0.027474 0.540112 0.626380 -0.458810
C17   C     C_3   0.972526 0.459887 0.373619 -0.458807
C18   C     C_3   0.083381 0.500549 0.502266 -0.042083
C19   C     C_3   0.916619 0.499450 0.497733 -0.042085
C20   C     C_1   0.174154 0.500552 0.501179 0.104631
C21   C     C_1   0.825846 0.499448 0.498821 0.104635
C22   C     C_3   0.567088 0.042457 0.565711 0.499110
C23   C     C_3   0.571759 0.956673 0.438009 -0.288205
C24   C     C_3   0.432907 0.957543 0.434289 0.499101
C25   C     C_3   0.000787 0.175132 0.410724 -0.265019
C26   C     C_3   0.999212 0.824866 0.589287 -0.265016
C27   C     C_3   0.453224 0.178262 0.988129 -0.332835
C28   C     C_3   0.546710 0.821762 0.011903 -0.332836
C29   C     C_3   0.428236 0.043327 0.561991 -0.288205
C30   C     C_3   0.500574 0.877016 0.502421 -0.073809
C31   C     C_3   0.499422 0.122984 0.497579 -0.073805
C32   C     C_3   0.497572 0.961358 0.631910 -0.263652
C33   C     C_3   0.502424 0.038642 0.368091 -0.263659
C34   C     C_3   0.553760 0.416570 0.047961 -0.254870
H1    H     H_    0.948809 0.429404 0.271620 0.188307
H2    H     H_    0.401510 0.652969 0.906565 0.155932
H3    H     H_    0.976100 0.200083 0.308008 0.168181
H4    H     H_    0.947903 0.170182 0.485991 0.191356
H5    H     H_    0.029239 0.078639 0.402525 0.187828
H6    H     H_    0.052104 0.829811 0.514035 0.191350
H7    H     H_    0.023889 0.799914 0.692010 0.168180
H8    H     H_    0.970763 0.921359 0.597479 0.187824
H9    H     H_    0.989690 0.302304 0.739122 0.343772
H10   H     H_    0.010311 0.697696 0.260878 0.343775
H11   H     H_    0.668890 0.019513 0.669768 0.329511
H12   H     H_    0.051192 0.570594 0.728379 0.188305
H13   H     H_    0.331107 0.980486 0.330230 0.329504
H14   H     H_    0.413584 0.204183 0.078520 0.157021
H15   H     H_    0.519114 0.154513 0.019886 0.157381
H16   H     H_    0.425357 0.091219 0.941117 0.193896
H17   H     H_    0.480791 0.845534 0.980325 0.157443
H18   H     H_    0.586258 0.795859 0.921402 0.157000
H19   H     H_    0.574632 0.908788 0.058871 0.193902
H20   H     H_    0.630464 0.917585 0.390483 0.175807
H21   H     H_    0.369531 0.082416 0.609518 0.175799
H22   H     H_    0.497226 0.927119 0.738732 0.153818
H23   H     H_    0.502766 0.072882 0.261269 0.153813
H24   H     H_    0.637486 0.552161 0.905993 0.167947
H25   H     H_    0.362513 0.447842 0.094007 0.167934
H26   H     H_    0.598491 0.347032 0.093433 0.155934
N1    N     N_3   0.499940 0.500030 0.863290 -0.120428
N2    N     N_3   0.500060 0.499970 0.136710 -0.120425
O1    O     O_R   0.500000 0.313960 0.616610 -0.535179
O2    O     O_3   0.935619 0.738799 0.546909 -0.601130
O3    O     O_3   0.939306 0.339301 0.693485 -0.741571
O4    O     O_3   0.060694 0.660699 0.306515 -0.741570
O5    O     O_3   0.637262 0.093850 0.634270 -0.743653
O6    O     O_3   0.362734 0.906150 0.365730 -0.743671
O7    O     O_3   0.453611 0.275354 0.889974 -0.571133
O8    O     O_3   0.546405 0.724638 0.110023 -0.571143
O9    O     O_R   0.500000 0.686040 0.383390 -0.535187
O10   O     O_R   0.500040 0.313950 0.383350 -0.655805
O11   O     O_R   0.499960 0.686050 0.616650 -0.655808
O12   O     O_R   0.376760 0.499990 0.616610 -0.610432
O13   O     O_R   0.623240 0.500010 0.383390 -0.610426
O14   O     O_R   0.376790 0.499980 0.383350 -0.606372
O15   O     O_R   0.623210 0.500020 0.616650 -0.606369
O16   O     O_3   0.064381 0.261201 0.453089 -0.601136
Zn1   Zn    Zn3+2 0.499980 0.500010 0.655740 1.005628
Zn2   Zn    Zn3+2 0.500020 0.499990 0.344260 1.005626

loop_
_geom_bond_atom_site_label_1
_geom_bond_atom_site_label_2
_ccdc_geom_bond_type
C27   H14   S    
C11   C18   S    
H10   O4    S    
C1    C31   S    
C3    C6    S    
O1    Zn1   S    
C22   C32   S    
N2    Zn2   S    
C19   C21   S    
C9    C16   S    
N1    Zn1   S    
C29   C32   S    
C28   H17   S    
C3    N1    S    
C4    N2    S    
C34   N2    S    
C26   O2    S    
C24   C29   S    
C5    O7    S    
C25   H3    S    
C9    C19   S    
C7    C14   S    
C23   C33   S    
H11   O5    S    
C31   C33   S    
O13   Zn2   S    
C27   O7    S    
C27   H16   S    
O15   Zn1   S    
C12   O11   A    
C34   H26   S    
C2    C6    S    
C1    O1    A    
O9    Zn2   S    
C7    O12   A    
C24   C30   S    
C10   O4    S    
C1    O10   A    
C22   C31   S    
C13   C19   S    
C25   O16   S    
C23   C30   S    
C14   C20   T    
C16   H12   S    
C29   H21   S    
C3    C34   S    
C8    O13   A    
O10   Zn2   S    
C2    C4    S    
C11   O16   S    
C25   H4    S    
H9    O3    S    
C5    C34   S    
O11   Zn1   S    
C5    N1    S    
C9    C11   S    
C12   O9    A    
C8    C15   S    
O12   Zn1   S    
C8    O15   A    
H13   O6    S    
C26   H8    S    
C23   H20   S    
C2    H2    S    
C6    O8    S    
C11   C17   S    
C33   H23   S    
C12   C30   S    
C28   O8    S    
O14   Zn2   S    
C4    C5    S    
C10   C13   S    
C28   H19   S    
C2    N1    S    
C7    O14   A    
C17   H1    S    
C24   C33   S    
C6    N2    S    
C29   C31   S    
C25   H5    S    
C30   C32   S    
C28   H18   S    
C26   H6    S    
C13   O2    S    
C10   C18   S    
C4    H25   S    
C17   C19   S    
C18   C20   S    
C9    O3    S    
C22   O5    S    
C24   O6    S    
C3    H24   S    
C15   C21   T    
C16   C18   S    
C13   C16   S    
C22   C23   S    
C10   C17   S    
C32   H22   S    
C27   H15   S    
C26   H7    S    
