data_mof_unit_64423.cif
_audit_creation_date              2012-12-10T19:30:58-0500
_audit_creation_method            fapswitch 2.2
_symmetry_space_group_name_H-M    P1
_symmetry_Int_Tables_number       1
_space_group_crystal_system       triclinic
_cell_length_a                    17.915052
_cell_length_b                    16.66216
_cell_length_c                    23.497238
_cell_angle_alpha                 91.199692
_cell_angle_beta                  92.336494
_cell_angle_gamma                 91.159916
_cell_volume                      7005.07680539

loop_
_atom_site_label
_atom_site_type_symbol
_atom_type_description
_atom_site_fract_x
_atom_site_fract_y
_atom_site_fract_z
_atom_type_partial_charge
C1    C     C_R   0.355386 0.499218 0.501460 0.853290
C2    C     C_R   0.567406 0.508894 0.704168 -0.074028
C3    C     C_R   0.427007 0.492820 0.237007 0.091901
C4    C     C_R   0.565250 0.516429 0.764330 0.113049
C5    C     C_R   0.495334 0.493994 0.208875 0.278803
C6    C     C_R   0.495413 0.512374 0.790416 0.256203
C7    C     C_R   0.848301 0.574392 0.483541 0.080107
C8    C     C_R   0.151440 0.431393 0.474132 0.066356
C9    C     C_R   0.154065 0.568941 0.514167 0.072825
C10   C     C_R   0.843981 0.427255 0.478838 0.064881
C11   C     C_R   0.770309 0.575117 0.490803 -0.067416
C12   C     C_R   0.644526 0.500679 0.496795 0.867630
C13   C     C_R   0.229844 0.428266 0.482576 -0.044863
C14   C     C_R   0.233028 0.567101 0.520397 -0.056050
C15   C     C_R   0.764973 0.428355 0.477681 -0.054688
C16   C     C_R   0.727455 0.501713 0.488437 -0.240785
C17   C     C_R   0.271742 0.497568 0.502581 -0.236024
C18   C     C_R   0.885082 0.500489 0.481855 0.074559
C19   C     C_R   0.113982 0.501278 0.490633 0.063536
C20   C     C_R   0.498862 0.499302 0.391138 0.857970
C21   C     C_R   0.500338 0.500462 0.608823 0.869959
C22   C     C_1   0.965907 0.500521 0.484059 -0.037788
C23   C     C_R   0.564767 0.495806 0.239855 0.154828
C24   C     C_1   0.033166 0.501376 0.486682 -0.035629
C25   C     C_R   0.536825 0.833496 0.542731 -0.158204
C26   C     C_R   0.465724 0.166957 0.454953 -0.166199
C27   C     C_R   0.461160 0.827587 0.455669 -0.146132
C28   C     C_R   0.524968 0.171107 0.548604 -0.156879
C29   C     C_R   0.533400 0.747724 0.544251 0.059023
C30   C     C_R   0.473203 0.252403 0.453175 0.086483
C31   C     C_R   0.462688 0.741653 0.456590 0.092370
C32   C     C_R   0.528764 0.257140 0.546480 0.063680
C33   C     C_R   0.499107 0.873985 0.498809 -0.035283
C34   C     C_R   0.427596 0.503017 0.757720 0.148315
C35   C     C_R   0.493008 0.125579 0.502487 -0.039289
C36   C     C_1   0.496247 0.962980 0.500004 0.138130
C37   C     C_1   0.494246 0.036506 0.501548 0.135811
C38   C     C_R   0.491972 0.581402 0.882230 0.531202
C39   C     C_R   0.492750 0.425478 0.116742 0.530546
C40   C     C_R   0.495712 0.438258 0.877308 0.547150
C41   C     C_R   0.496611 0.568708 0.122071 0.528020
C42   C     C_R   0.495431 0.434116 0.936664 -0.031252
C43   C     C_R   0.494414 0.572883 0.062628 -0.037085
C44   C     C_R   0.493065 0.505546 0.969540 -0.017639
C45   C     C_R   0.565951 0.498594 0.300208 0.108571
C46   C     C_R   0.494846 0.501414 0.029656 -0.013402
C47   C     C_R   0.489247 0.580849 0.942383 -0.086678
C48   C     C_R   0.497310 0.426065 0.056773 -0.082343
C49   C     C_R   0.499435 0.359937 0.963422 -0.198392
C50   C     C_R   0.490235 0.647071 0.035924 -0.201194
C51   C     C_R   0.501947 0.354875 0.022758 -0.034621
C52   C     C_R   0.485263 0.652015 0.976569 -0.031769
C53   C     C_2   0.559447 0.712393 0.598143 0.959587
C54   C     C_2   0.468392 0.284984 0.395471 0.930577
C55   C     C_2   0.415130 0.697948 0.413055 0.929124
C56   C     C_R   0.429855 0.493132 0.697781 0.107798
C57   C     C_2   0.570310 0.299070 0.594078 0.950633
C58   C     C_2   0.515164 0.274537 0.046554 0.943987
C59   C     C_2   0.471356 0.732364 0.953081 0.939644
C60   C     C_3   0.637134 0.493317 0.207738 -0.414347
C61   C     C_3   0.665262 0.407667 0.201981 -0.739478
C62   C     C_3   0.353614 0.508821 0.787666 -0.365967
C63   C     C_3   0.316371 0.427095 0.797121 -0.786307
C64   C     C_3   0.639719 0.508022 0.334695 -0.406424
C65   C     C_3   0.662375 0.596438 0.342667 -0.742936
C66   C     C_3   0.359738 0.468528 0.661965 -0.382270
C67   C     C_R   0.497542 0.497392 0.328493 -0.138032
C68   C     C_3   0.353454 0.377324 0.653371 -0.720671
C69   C     C_2   0.356470 0.500177 0.327944 0.841814
C70   C     C_2   0.640490 0.503746 0.675561 0.815793
C71   C     C_3   0.353621 0.482512 0.202046 -0.356643
C72   C     C_3   0.323931 0.562480 0.180867 -0.657132
C73   C     C_3   0.636416 0.532433 0.801410 -0.349861
C74   C     C_3   0.670469 0.615532 0.791282 -0.736241
C75   C     C_3   0.892751 0.652253 0.474961 -0.387252
C76   C     C_3   0.908847 0.662047 0.412133 -0.818209
C77   C     C_3   0.107175 0.358977 0.448782 -0.395568
C78   C     C_R   0.499288 0.501353 0.671338 -0.133285
C79   C     C_3   0.089323 0.298742 0.494593 -0.793928
C80   C     C_3   0.111831 0.643037 0.532630 -0.381158
C81   C     C_3   0.095839 0.696954 0.481971 -0.745510
C82   C     C_3   0.884693 0.347851 0.477030 -0.389111
C83   C     C_3   0.900356 0.318051 0.537266 -0.723804
C84   C     C_2   0.736083 0.653725 0.502170 0.921776
C85   C     C_2   0.266622 0.350637 0.472316 0.933424
C86   C     C_2   0.274224 0.636822 0.548437 0.903944
C87   C     C_2   0.722630 0.353005 0.461431 0.902327
C88   C     C_2   0.579125 0.881898 0.587878 0.878350
C89   C     C_R   0.428000 0.496080 0.297341 -0.107942
C90   C     C_2   0.433616 0.120230 0.404720 0.867927
C91   C     C_2   0.416986 0.869368 0.410641 0.873202
C92   C     C_2   0.556383 0.127842 0.598703 0.888613
Cu1   Cu    Cu3+1 0.500000 0.580420 0.500000 1.043526
Cu2   Cu    Cu3+1 0.500000 0.419580 0.500000 1.038767
H1    H     H_    0.503143 0.305170 0.938020 0.209978
H2    H     H_    0.626138 0.370623 0.174209 0.306355
H3    H     H_    0.720625 0.408718 0.182395 0.240929
H4    H     H_    0.630116 0.517912 0.164439 0.217390
H5    H     H_    0.681336 0.532333 0.228660 0.211106
H6    H     H_    0.284646 0.405272 0.758242 0.250189
H7    H     H_    0.358232 0.382132 0.810053 0.290539
H8    H     H_    0.275860 0.432869 0.831435 0.245812
H9    H     H_    0.361587 0.539392 0.829860 0.222487
H10   H     H_    0.314650 0.548511 0.764228 0.206782
H11   H     H_    0.667414 0.625799 0.301028 0.250256
H12   H     H_    0.487684 0.701874 0.061440 0.209303
H13   H     H_    0.620083 0.628593 0.367148 0.303139
H14   H     H_    0.717238 0.601470 0.366304 0.251625
H15   H     H_    0.635930 0.481315 0.377153 0.218836
H16   H     H_    0.685364 0.475065 0.314932 0.224638
H17   H     H_    0.394719 0.355807 0.623035 0.287547
H18   H     H_    0.363222 0.346127 0.694165 0.264807
H19   H     H_    0.296760 0.360533 0.635623 0.253068
H20   H     H_    0.307992 0.490286 0.680520 0.215462
H21   H     H_    0.360018 0.495954 0.619632 0.213194
H22   H     H_    0.252776 0.544671 0.331525 0.329918
H23   H     H_    0.647314 0.688441 0.650574 0.350239
H24   H     H_    0.744983 0.460530 0.676019 0.340098
H25   H     H_    0.332321 0.610902 0.213805 0.300762
H26   H     H_    0.352140 0.580674 0.141971 0.235997
H27   H     H_    0.263260 0.555811 0.169739 0.230182
H28   H     H_    0.360009 0.441335 0.164974 0.213679
H29   H     H_    0.310487 0.452008 0.226932 0.219495
H30   H     H_    0.690707 0.620076 0.747504 0.248714
H31   H     H_    0.628520 0.662552 0.798151 0.288772
H32   H     H_    0.718751 0.627003 0.821709 0.244209
H33   H     H_    0.626370 0.529761 0.847504 0.200219
H34   H     H_    0.403453 0.319583 0.328899 0.339627
H35   H     H_    0.677873 0.485214 0.794940 0.256601
H36   H     H_    0.942313 0.611547 0.396249 0.253134
H37   H     H_    0.855580 0.664162 0.386345 0.261528
H38   H     H_    0.940670 0.719032 0.406583 0.252307
H39   H     H_    0.864064 0.706919 0.488975 0.231520
H40   H     H_    0.945474 0.652849 0.501149 0.213856
H41   H     H_    0.141075 0.270679 0.511440 0.271631
H42   H     H_    0.061803 0.329095 0.530336 0.255569
H43   H     H_    0.051344 0.250649 0.476134 0.249330
H44   H     H_    0.054808 0.377607 0.426694 0.196632
H45   H     H_    0.312534 0.652935 0.390997 0.342995
H46   H     H_    0.137270 0.328782 0.414413 0.241894
H47   H     H_    0.148599 0.720552 0.464981 0.299272
H48   H     H_    0.064763 0.662841 0.447248 0.245509
H49   H     H_    0.061876 0.748441 0.495493 0.240716
H50   H     H_    0.058704 0.625398 0.552076 0.193650
H51   H     H_    0.142561 0.678378 0.566898 0.219083
H52   H     H_    0.936955 0.361884 0.562014 0.235986
H53   H     H_    0.847579 0.309947 0.559809 0.295036
H54   H     H_    0.928689 0.259485 0.535292 0.240175
H55   H     H_    0.853096 0.301020 0.451325 0.219433
H56   H     H_    0.666919 0.352461 0.622162 0.350787
H57   H     H_    0.937832 0.354067 0.455164 0.200905
H58   H     H_    0.671486 0.743133 0.473332 0.341939
H59   H     H_    0.318124 0.255298 0.506382 0.341057
H60   H     H_    0.300678 0.755053 0.547703 0.348894
H61   H     H_    0.695197 0.238998 0.480551 0.348396
H62   H     H_    0.657841 0.967781 0.606460 0.357620
H63   H     H_    0.447899 0.033607 0.345149 0.358025
H64   H     H_    0.336850 0.949085 0.391868 0.352344
H65   H     H_    0.539783 0.044919 0.658462 0.362029
H66   H     H_    0.578830 0.206007 0.098097 0.352957
H67   H     H_    0.405167 0.801416 0.903818 0.354115
H68   H     H_    0.671048 0.378925 0.244045 0.260435
N1    N     N_R   0.493582 0.510851 0.851532 -0.466249
N2    N     N_R   0.494396 0.495951 0.147675 -0.455104
N3    N     N_R   0.500000 0.701220 0.500000 -0.251160
N4    N     N_R   0.500000 0.298780 0.500000 -0.246095
O1    O     O_R   0.391260 0.567930 0.500000 -0.554027
O2    O     O_2   0.484389 0.355843 0.144196 -0.516710
O3    O     O_2   0.499404 0.370271 0.845345 -0.521049
O4    O     O_2   0.499839 0.636822 0.154313 -0.513310
O5    O     O_2   0.515342 0.703627 0.636057 -0.542724
O6    O     O_R   0.635469 0.701961 0.609371 -0.696056
O7    O     O_2   0.525189 0.290722 0.368512 -0.557933
O8    O     O_R   0.399233 0.302131 0.369742 -0.660651
O9    O     O_2   0.437262 0.688101 0.364893 -0.550796
O10   O     O_R   0.341895 0.676659 0.425191 -0.731476
O11   O     O_2   0.545475 0.298845 0.641824 -0.586200
O12   O     O_R   0.608740 0.432070 0.500000 -0.542553
O13   O     O_R   0.640525 0.333069 0.585446 -0.702434
O14   O     O_2   0.475826 0.217151 0.030087 -0.561486
O15   O     O_R   0.574987 0.263667 0.085536 -0.731400
O16   O     O_2   0.512185 0.789339 0.967955 -0.562049
O17   O     O_R   0.409293 0.743751 0.916318 -0.711910
O18   O     O_2   0.347820 0.461105 0.370636 -0.581452
O19   O     O_R   0.298909 0.548969 0.308066 -0.763708
O20   O     O_2   0.649644 0.537249 0.630575 -0.597548
O21   O     O_R   0.698448 0.458651 0.699168 -0.764713
O22   O     O_2   0.752979 0.690374 0.546562 -0.538915
O23   O     O_R   0.608740 0.567930 0.500000 -0.550438
O24   O     O_R   0.689516 0.688494 0.460845 -0.767610
O25   O     O_2   0.271517 0.324209 0.423790 -0.510698
O26   O     O_R   0.294468 0.307333 0.518579 -0.774519
O27   O     O_2   0.311449 0.627614 0.592444 -0.614481
O28   O     O_R   0.269739 0.713014 0.524955 -0.717767
O29   O     O_2   0.684788 0.349382 0.416946 -0.589037
O30   O     O_R   0.726892 0.286142 0.496241 -0.715733
O31   O     O_2   0.566338 0.873272 0.638131 -0.550755
O32   O     O_R   0.632897 0.938417 0.572330 -0.737427
O33   O     O_2   0.371031 0.134854 0.385502 -0.537309
O34   O     O_R   0.391260 0.432070 0.500000 -0.558474
O35   O     O_R   0.475358 0.060317 0.379289 -0.733492
O36   O     O_2   0.427768 0.855756 0.360346 -0.537633
O37   O     O_R   0.363359 0.924694 0.426091 -0.739688
O38   O     O_2   0.620506 0.141969 0.616508 -0.558139
O39   O     O_R   0.512506 0.070170 0.624924 -0.730582
O40   O     O_R   0.499980 0.567930 0.417880 -0.587689
O41   O     O_R   0.500020 0.432070 0.582120 -0.603971
O42   O     O_R   0.500020 0.567930 0.582120 -0.549483
O43   O     O_R   0.499980 0.432070 0.417880 -0.560126
O44   O     O_2   0.494961 0.651079 0.854251 -0.498249

loop_
_geom_bond_atom_site_label_1
_geom_bond_atom_site_label_2
_ccdc_geom_bond_type
C66   C68   S    
C75   C76   S    
C34   C56   A    
C8    C13   A    
C23   C45   A    
C32   N4    A    
C72   H27   S    
C73   C74   S    
C71   H28   S    
C74   H30   S    
C77   H46   S    
C20   O40   A    
C63   H7    S    
C60   H5    S    
Cu2   N4    S    
C61   H2    S    
C27   C33   A    
C85   O26   S    
C7    C11   A    
C79   H42   S    
C30   C54   S    
Cu1   Cu2   S    
C58   O15   S    
C2    C78   A    
C54   O7    D    
C71   H29   S    
C36   C37   T    
C35   C37   S    
C87   O30   S    
C60   H4    S    
C10   C15   A    
C86   O27   D    
C68   H18   S    
C76   H37   S    
C74   H31   S    
C1    O1    A    
C88   O32   S    
C15   C16   A    
C34   C62   S    
C33   C36   S    
C56   C78   A    
Cu2   O12   S    
C29   N3    A    
C39   O2    S    
H58   O24   S    
C92   O39   S    
C20   C67   S    
C53   O6    S    
C76   H36   S    
C9    C19   A    
C48   C51   A    
C80   H51   S    
C12   C16   S    
C28   C35   A    
C49   C51   A    
C21   C78   S    
C45   C67   A    
C50   C52   A    
C84   O24   S    
H61   O30   S    
C65   H14   S    
C82   H57   S    
C92   O38   D    
C44   C47   A    
C68   H19   S    
C90   O35   S    
C40   C42   A    
Cu1   N3    S    
H64   O37   S    
C41   C43   A    
C14   C17   A    
H45   O10   S    
C42   C44   A    
C32   C57   S    
C63   H8    S    
C69   C89   S    
Cu1   O40   S    
C65   H11   S    
C40   O3    S    
C44   C46   A    
H65   O39   S    
C62   H10   S    
C77   C79   S    
C25   C29   A    
C23   C60   S    
C46   C48   A    
C75   H40   S    
C8    C19   A    
C66   H21   S    
C27   C31   A    
C61   H68   S    
C91   O36   D    
C5    N2    S    
C31   N3    A    
C28   C32   A    
C77   H44   S    
C14   C86   S    
C40   N1    A    
C4    C6    A    
C57   O13   S    
C70   O20   D    
C7    C75   S    
C90   O33   D    
C42   C49   A    
C80   H50   S    
C73   H33   S    
C10   C82   S    
C25   C88   S    
C38   O44   S    
C6    C34   A    
C60   C61   S    
C68   H17   S    
C88   O31   D    
H67   O17   S    
C59   O16   D    
C3    C71   S    
C9    C14   A    
C63   H6    S    
C12   O23   A    
C52   C59   S    
C83   H52   S    
C11   C16   A    
C64   H16   S    
C5    C23   A    
C26   C90   S    
C7    C18   A    
C72   H26   S    
C62   C63   S    
C4    C73   S    
C28   C92   S    
C51   C58   S    
C20   O43   A    
C49   H1    S    
C59   O17   S    
C55   O9    D    
C38   C47   A    
C70   O21   S    
C83   H53   S    
C38   N1    A    
C79   H43   S    
C26   C30   A    
C8    C77   S    
C22   C24   T    
C84   O22   D    
C1    O34   A    
C27   C91   S    
C69   O19   S    
H66   O15   S    
C21   O42   A    
C15   C87   S    
C62   H9    S    
H22   O19   S    
C30   N4    A    
H62   O32   S    
C81   H48   S    
C66   H20   S    
C18   C22   S    
H34   O8    S    
C61   H3    S    
Cu2   O41   S    
C80   C81   S    
C3    C5    A    
H24   O21   S    
C75   H39   S    
C43   C50   A    
C47   C52   A    
Cu1   O23   S    
C11   C84   S    
C85   O25   D    
C79   H41   S    
C41   O4    S    
C45   C64   S    
C1    C17   S    
C13   C17   A    
C3    C89   A    
C64   C65   S    
C54   O8    S    
C19   C24   S    
C87   O29   D    
C71   C72   S    
C86   O28   S    
C57   O11   D    
C76   H38   S    
H23   O6    S    
C21   O41   A    
C64   H15   S    
C74   H32   S    
C29   C53   S    
C10   C18   A    
C73   H35   S    
C56   C66   S    
C2    C4    A    
C72   H25   S    
C81   H47   S    
C65   H13   S    
Cu2   O34   S    
C43   C46   A    
C55   O10   S    
C12   O12   A    
C82   H55   S    
C53   O5    D    
C69   O18   D    
C83   H54   S    
H60   O28   S    
C26   C35   A    
C81   H49   S    
H63   O35   S    
C6    N1    S    
Cu1   O1    S    
Cu2   O43   S    
C82   C83   S    
C41   N2    A    
C13   C85   S    
C50   H12   S    
C67   C89   A    
H56   O13   S    
C58   O14   D    
C31   C55   S    
C39   N2    A    
C2    C70   S    
Cu1   O42   S    
C9    C80   S    
C91   O37   S    
C25   C33   A    
C39   C48   A    
H59   O26   S    
