data_mof_unit_16474.cif
_audit_creation_date              2012-12-10T20:46:48-0500
_audit_creation_method            fapswitch 2.2
_symmetry_space_group_name_H-M    P1
_symmetry_Int_Tables_number       1
_space_group_crystal_system       triclinic
_cell_length_a                    12.817476
_cell_length_b                    8.926249
_cell_length_c                    8.10846
_cell_angle_alpha                 90.016038
_cell_angle_beta                  97.75368
_cell_angle_gamma                 90.086674
_cell_volume                      919.222031325

loop_
_atom_site_label
_atom_site_type_symbol
_atom_type_description
_atom_site_fract_x
_atom_site_fract_y
_atom_site_fract_z
_atom_type_partial_charge
C1    C     C_R   0.500234 0.218003 0.500036 0.958089
C2    C     C_R   0.855359 0.361788 0.639861 -0.239195
C3    C     C_R   0.131336 0.395566 0.553231 -0.067246
C4    C     C_R   0.873402 0.574298 0.456863 -0.063625
C5    C     C_R   0.020829 0.406360 0.537462 0.027127
C6    C     C_R   0.970831 0.516916 0.427133 0.030993
C7    C     C_1   0.500060 0.065209 0.500010 -0.152724
C8    C     C_1   0.499841 0.934802 0.500020 -0.161159
C9    C     C_2   0.843074 0.733152 0.412204 0.923545
C10   C     C_2   0.192370 0.314408 0.694810 0.956967
C11   C     C_2   0.963070 0.631744 0.137644 0.976072
C12   C     C_R   0.499654 0.781999 0.499955 0.972881
C13   C     C_2   0.990922 0.169327 0.702916 0.950051
C14   C     C_R   0.297422 0.492417 0.466674 0.917514
C15   C     C_R   0.702350 0.503925 0.533187 0.944925
C16   C     C_R   0.813984 0.488232 0.554256 -0.146057
C17   C     C_R   0.184454 0.477477 0.441259 -0.140628
C18   C     C_R   0.021486 0.568983 0.293646 -0.012514
C19   C     C_R   0.958577 0.318562 0.633042 -0.014989
C20   C     C_R   0.129357 0.550490 0.304455 -0.198081
H1    H     H_    0.804563 0.291359 0.703922 0.180145
H2    H     H_    0.171290 0.599322 0.209982 0.204992
H3    H     H_    0.728948 0.887848 0.356588 0.345156
H4    H     H_    0.303541 0.160184 0.769824 0.350275
H5    H     H_    0.827688 0.638289 0.978427 0.355148
H6    H     H_    0.064068 0.973106 0.673030 0.374892
N1    N     N_1   0.500020 0.500000 0.073640 -0.007627
N2    N     N_1   0.499980 0.500000 0.926360 -0.013972
O1    O     O_R   0.499990 0.285340 0.636850 -0.611113
O2    O     O_R   0.737623 0.777209 0.383181 -0.796349
O3    O     O_2   0.178535 0.343174 0.837774 -0.613397
O4    O     O_R   0.266614 0.206991 0.663872 -0.775300
O5    O     O_2   0.007305 0.716154 0.050386 -0.581582
O6    O     O_R   0.858310 0.590111 0.087498 -0.791932
O7    O     O_2   0.964648 0.129462 0.835684 -0.565386
O8    O     O_R   0.047562 0.071801 0.613372 -0.745668
O9    O     O_R   0.500010 0.714660 0.363150 -0.595134
O10   O     O_R   0.500010 0.285340 0.363150 -0.621443
O11   O     O_R   0.499990 0.714660 0.636850 -0.620077
O12   O     O_R   0.346350 0.500000 0.614250 -0.611621
O13   O     O_R   0.653650 0.500000 0.385750 -0.567821
O14   O     O_R   0.346360 0.500000 0.340500 -0.617206
O15   O     O_R   0.653640 0.500000 0.659500 -0.631228
O16   O     O_2   0.911879 0.827349 0.406008 -0.588715
Zn1   Zn    Zn3+2 0.499990 0.500000 0.682780 1.029787
Zn2   Zn    Zn3+2 0.500010 0.500000 0.317220 1.053230

loop_
_geom_bond_atom_site_label_1
_geom_bond_atom_site_label_2
_ccdc_geom_bond_type
C4    C16   A    
O13   Zn2   S    
H4    O4    S    
C11   C18   S    
C3    C17   A    
O11   Zn1   S    
C5    C19   A    
C2    C16   A    
C8    C12   S    
H5    O6    S    
C14   O14   A    
C2    H1    S    
C1    O1    A    
O9    Zn2   S    
C15   O15   A    
C7    C8    T    
C3    C10   S    
C1    C7    S    
O15   Zn1   S    
C14   C17   S    
C5    C6    A    
C1    O10   A    
C12   O11   A    
C9    O2    S    
N1    Zn2   S    
H6    O8    S    
C20   H2    S    
C13   O7    D    
C18   C20   A    
O12   Zn1   S    
C6    C18   A    
N2    Zn1   S    
O10   Zn2   S    
C13   C19   S    
C14   O12   A    
C15   C16   S    
H3    O2    S    
C10   O4    S    
C11   O5    D    
C17   C20   A    
C15   O13   A    
C13   O8    S    
C4    C6    A    
O14   Zn2   S    
C12   O9    A    
C9    O16   D    
C3    C5    A    
C4    C9    S    
C2    C19   A    
C10   O3    D    
C11   O6    S    
O1    Zn1   S    
N1    N2    T    
