data_mof_unit_31903.cif
_audit_creation_date              2012-12-10T17:32:58-0500
_audit_creation_method            fapswitch 2.2
_symmetry_space_group_name_H-M    P1
_symmetry_Int_Tables_number       1
_space_group_crystal_system       triclinic
_cell_length_a                    12.53223
_cell_length_b                    13.3289
_cell_length_c                    14.309164
_cell_angle_alpha                 96.952212
_cell_angle_beta                  109.226578
_cell_angle_gamma                 118.33537
_cell_volume                      1872.61544539

loop_
_atom_site_label
_atom_site_type_symbol
_atom_type_description
_atom_site_fract_x
_atom_site_fract_y
_atom_site_fract_z
_atom_type_partial_charge
C1    C     C_R   0.650199 0.715024 0.509207 0.816350
C2    C     C_R   0.796924 0.440296 0.915328 0.010277
C3    C     C_R   0.738604 0.441037 0.984103 -0.135142
C4    C     C_R   0.887837 0.402007 0.934879 -0.107013
C5    C     C_R   0.952266 0.401834 0.035944 -0.154328
C6    C     C_R   0.896617 0.405893 0.106314 0.582596
C7    C     C_R   0.796130 0.432041 0.084575 0.089090
C8    C     C_R   0.915395 0.364582 0.854944 0.575835
C9    C     C_R   0.027503 0.355583 0.878020 0.025857
C10   C     C_R   0.100800 0.363138 0.982178 -0.008523
C11   C     C_R   0.069991 0.397681 0.062803 0.053387
C12   C     C_R   0.615723 0.513137 0.688655 0.773921
C13   C     C_R   0.207728 0.343140 0.010296 0.198926
C14   C     C_R   0.303856 0.391704 0.116342 -0.169726
C15   C     C_R   0.165289 0.439694 0.168657 -0.108461
C16   C     C_R   0.075758 0.957796 0.320012 0.531217
C17   C     C_R   0.237647 0.154398 0.456435 -0.236870
C18   C     C_R   0.748617 0.934868 0.589474 0.616986
C19   C     C_R   0.839697 0.055940 0.606242 -0.220964
C20   C     C_R   0.925931 0.086494 0.558440 -0.277678
C21   C     C_R   0.919497 0.995442 0.490893 0.146427
C22   C     C_R   0.806084 0.875456 0.455488 0.016135
C23   C     C_R   0.343117 0.283345 0.483356 0.867922
C24   C     C_R   0.020066 0.019250 0.455508 -0.003476
C25   C     C_R   0.984229 0.933211 0.363032 -0.086780
C26   C     C_R   0.858199 0.822742 0.315758 -0.141604
C27   C     C_R   0.772397 0.792019 0.363800 -0.194901
C28   C     C_R   0.156134 0.122004 0.510318 0.045979
C29   C     C_R   0.199045 0.068736 0.364433 0.490476
C30   C     C_R   0.732769 0.842477 0.515405 -0.237826
C31   C     C_R   0.276185 0.676866 0.689825 -0.326687
C32   C     C_R   0.646941 0.329831 0.358748 0.225563
C33   C     C_R   0.717870 0.277877 0.345833 -0.260368
C34   C     C_R   0.374900 0.475720 0.310613 0.775985
C35   C     C_R   0.853403 0.334636 0.406588 0.616556
C36   C     C_R   0.925121 0.447376 0.483200 -0.180561
C37   C     C_R   0.850425 0.493243 0.509334 0.176093
C38   C     C_R   0.069689 0.513961 0.537712 0.001350
C39   C     C_R   0.135073 0.603078 0.635234 0.135753
C40   C     C_R   0.060052 0.623462 0.676089 -0.281745
C41   C     C_R   0.931026 0.593667 0.608984 0.195399
C42   C     C_R   0.153658 0.497643 0.499785 0.077515
C43   C     C_R   0.352534 0.657385 0.648794 0.108744
C44   C     C_R   0.663523 0.500900 0.797227 -0.211925
C45   C     C_R   0.283922 0.439681 0.196698 -0.147971
C46   C     C_R   0.627886 0.453768 0.949967 0.547566
C47   C     C_R   0.591865 0.486385 0.859549 0.038929
C48   C     C_R   0.780126 0.497078 0.838693 0.212322
Cu1   Cu    Cu3+1 0.416420 0.526630 0.522910 0.967677
Cu2   Cu    Cu3+1 0.583580 0.473370 0.477090 0.952444
H1    H     H_    0.828501 0.757067 0.244338 0.196606
H2    H     H_    0.998224 0.181281 0.575283 0.190951
H3    H     H_    0.848184 0.126363 0.660590 0.200977
H4    H     H_    0.679952 0.702874 0.328982 0.161991
H5    H     H_    0.461540 0.711496 0.691047 0.172636
H6    H     H_    0.152226 0.480119 0.230474 0.209853
H7    H     H_    0.115824 0.689135 0.754625 0.142532
H8    H     H_    0.326924 0.748254 0.764118 0.153279
H9    H     H_    0.113450 0.433162 0.424466 0.215275
H10   H     H_    0.670881 0.193722 0.284817 0.195521
H11   H     H_    0.392178 0.388465 0.136111 0.175418
N1    N     N_R   0.290690 0.566960 0.557640 -0.210942
N2    N     N_R   0.709100 0.433710 0.442970 -0.212093
O1    O     O_R   0.545970 0.684450 0.528810 -0.510646
O2    O     O_R   0.687130 0.639470 0.490120 -0.584549
O3    O     O_R   0.519670 0.535100 0.660030 -0.580534
O4    O     O_R   0.660830 0.490120 0.621340 -0.556397
O5    O     O_R   0.312870 0.360530 0.509880 -0.578180
O6    O     O_R   0.454030 0.315550 0.471190 -0.538404
O7    O     O_R   0.339170 0.509880 0.378660 -0.571391
O8    O     O_R   0.480330 0.464900 0.339970 -0.613760
C49   C     C_3   0.766742 0.462129 0.175698 -0.318253
C50   C     C_3   0.893859 0.567849 0.270668 -0.826480
H12   H     H_    0.966216 0.543256 0.308821 0.288519
H13   H     H_    0.945041 0.646707 0.246371 0.286482
H14   H     H_    0.865004 0.594657 0.330058 0.226453
H15   H     H_    0.694972 0.490227 0.157979 0.255343
H16   H     H_    0.723038 0.380636 0.198195 0.220723
C51   C     C_3   0.210538 0.258307 0.930981 -0.385418
C52   C     C_3   0.247328 0.173793 0.973549 -0.805747
H17   H     H_    0.356566 0.224294 0.027622 0.280245
H18   H     H_    0.185382 0.128573 0.013833 0.262030
H19   H     H_    0.226529 0.103254 0.907533 0.239724
H20   H     H_    0.107390 0.196461 0.865459 0.200825
H21   H     H_    0.282081 0.310976 0.900284 0.239673
F1    F     F_    0.279231 0.092646 0.315632 -0.665879
F2    F     F_    0.043166 0.876774 0.231494 -0.657871
C53   C     C_3   0.223324 0.184721 0.629115 -0.415241
C54   C     C_3   0.350110 0.184295 0.685765 -0.790350
H22   H     H_    0.326287 0.090647 0.664327 0.260866
H23   H     H_    0.432314 0.242521 0.666027 0.250854
H24   H     H_    0.387162 0.219547 0.771975 0.250296
H25   H     H_    0.248785 0.278779 0.647090 0.214261
H26   H     H_    0.156558 0.137259 0.665055 0.206541
F3    F     F_    0.678122 0.908644 0.647233 -0.665396
C55   C     C_3   0.506249 0.274983 0.272262 -0.310331
C56   C     C_3   0.435804 0.145144 0.199722 -0.783530
H27   H     H_    0.480421 0.143677 0.144523 0.221175
H28   H     H_    0.442611 0.085545 0.246135 0.301597
H29   H     H_    0.327104 0.107448 0.152511 0.283104
H30   H     H_    0.438053 0.273156 0.304611 0.299410
H31   H     H_    0.516365 0.333749 0.223450 0.169161
F4    F     F_    0.911081 0.273227 0.393358 -0.665349
C57   C     C_3   0.928548 0.705537 0.637741 -0.336248
C58   C     C_3   0.985281 0.788004 0.578425 -0.786722
H32   H     H_    0.089857 0.813173 0.596527 0.243376
H33   H     H_    0.923419 0.741159 0.492948 0.271803
H34   H     H_    0.991875 0.873006 0.605154 0.233906
H35   H     H_    0.837782 0.689776 0.643245 0.211076
H36   H     H_    0.999409 0.764183 0.721106 0.157670
C59   C     C_3   0.087913 0.378546 0.800393 -0.386772
C60   C     C_3   0.211444 0.507344 0.844860 -0.871207
H37   H     H_    0.182029 0.572865 0.855259 0.260894
H38   H     H_    0.287784 0.524342 0.922215 0.261976
H39   H     H_    0.256550 0.521530 0.789396 0.254745
H40   H     H_    0.112765 0.313830 0.776853 0.169466
H41   H     H_    0.016103 0.370016 0.724371 0.263059
F5    F     F_    0.544848 0.422753 0.997332 -0.744971
C61   C     C_3   0.492161 0.523606 0.843979 -0.350031
C62   C     C_3   0.566948 0.661500 0.881349 -0.785145
H42   H     H_    0.623926 0.700819 0.836272 0.260077
H43   H     H_    0.639428 0.699633 0.965845 0.264980
H44   H     H_    0.494147 0.688739 0.872244 0.227170
H45   H     H_    0.411278 0.480683 0.762768 0.212839
H46   H     H_    0.436882 0.492036 0.891262 0.241346
C63   C     C_3   0.905557 0.592110 0.833640 -0.391838
C64   C     C_3   0.020604 0.682011 0.941720 -0.835662
H47   H     H_    0.982752 0.718191 0.987635 0.290294
H48   H     H_    0.066983 0.639225 0.986371 0.256653
H49   H     H_    0.100901 0.758733 0.931645 0.237181
H50   H     H_    0.941457 0.549566 0.792505 0.255615
H51   H     H_    0.880727 0.647385 0.791681 0.180360
F6    F     F_    0.930179 0.373202 0.192437 -0.683133
F7    F     F_    0.832516 0.337581 0.753056 -0.689062

loop_
_geom_bond_atom_site_label_1
_geom_bond_atom_site_label_2
_ccdc_geom_bond_type
C9    C59   S    
C13   C51   S    
C63   C64   S    
Cu2   N2    S    
Cu1   O5    S    
C55   H31   S    
C17   C29   A    
C50   H12   S    
C23   O6    A    
C35   C36   A    
C51   H21   S    
C4    C8    A    
C60   H38   S    
C56   H27   S    
C27   H4    S    
C61   H45   S    
C58   H33   S    
C26   C27   A    
C17   C23   S    
C31   C43   A    
C5    C6    A    
C31   H8    S    
C36   C37   A    
Cu2   O6    S    
C38   C42   A    
C6    F6    S    
C35   F4    S    
C57   H35   S    
C46   F5    S    
C18   C19   A    
C60   H37   S    
C49   H16   S    
C37   N2    A    
C53   H25   S    
C11   C15   A    
C59   C60   S    
C8    C9    A    
C28   C53   S    
C16   F2    S    
C1    O2    A    
C59   H40   S    
C18   C30   A    
C13   C14   A    
C54   H23   S    
Cu2   O4    S    
C42   N1    A    
C62   H44   S    
C19   H3    S    
C47   C61   S    
Cu1   O1    S    
C55   H30   S    
C18   F3    S    
C50   H13   S    
C52   H19   S    
C57   C58   S    
C56   H28   S    
C62   H43   S    
C14   C45   A    
C12   O4    A    
C53   H26   S    
Cu1   O3    S    
C8    F7    S    
C24   C25   A    
C52   H18   S    
C7    C49   S    
C49   C50   S    
C2    C48   A    
C16   C29   A    
C14   H11   S    
C12   O3    A    
C23   O5    A    
C2    C4    A    
Cu2   O8    S    
C64   H48   S    
C49   H15   S    
C63   H51   S    
C55   C56   S    
C34   C45   S    
C58   H34   S    
C20   C21   A    
C54   H24   S    
C29   F1    S    
C61   H46   S    
C43   H5    S    
C40   C41   A    
C32   C55   S    
C33   H10   S    
Cu1   O7    S    
C50   H14   S    
C15   C45   A    
C64   H47   S    
C1    O1    A    
C39   C40   A    
C56   H29   S    
C62   H42   S    
C9    C10   A    
C16   C25   A    
C34   O7    A    
C46   C47   A    
Cu1   N1    S    
C22   C30   A    
C51   H20   S    
C17   C28   A    
C24   C28   A    
C32   N2    A    
C52   H17   S    
C40   H7    S    
C10   C13   A    
C42   H9    S    
C61   C62   S    
C44   C47   A    
C5    C11   A    
C6    C7    A    
C58   H32   S    
C3    C46   A    
C3    C7    A    
C41   C57   S    
C59   H41   S    
C22   C27   A    
C15   H6    S    
C19   C20   A    
C36   C38   A    
C2    C3    A    
C25   C26   A    
C64   H49   S    
C20   H2    S    
C26   H1    S    
C32   C33   A    
C57   H36   S    
C38   C39   A    
C63   H50   S    
C1    C30   S    
C33   C35   A    
C31   C39   A    
C37   C41   A    
Cu2   O2    S    
C10   C11   A    
C48   C63   S    
C51   C52   S    
C4    C5    A    
C53   C54   S    
C12   C44   S    
Cu1   Cu2   S    
C21   C24   A    
C54   H22   S    
C21   C22   A    
C34   O8    A    
C60   H39   S    
C44   C48   A    
C43   N1    A    
