data_mof_unit_44766.cif
_audit_creation_date              2012-10-26T19:55:49-0400
_audit_creation_method            fapswitch 2.2
_symmetry_space_group_name_H-M    P1
_symmetry_Int_Tables_number       1
_space_group_crystal_system       triclinic
_cell_length_a                    10.876331
_cell_length_b                    10.873507
_cell_length_c                    9.56186
_cell_angle_alpha                 89.810278
_cell_angle_beta                  90.817705
_cell_angle_gamma                 91.754947
_cell_volume                      1130.17229208

loop_
_atom_site_label
_atom_site_type_symbol
_atom_type_description
_atom_site_fract_x
_atom_site_fract_y
_atom_site_fract_z
_atom_type_partial_charge
C1    C     C_R   0.506492 0.262311 0.501701 0.544856
C2    C     C_R   0.815434 0.367595 0.973861 -0.114346
C3    C     C_R   0.796527 0.239972 0.969574 -0.115536
C4    C     C_R   0.262209 0.498521 0.499219 0.545882
C5    C     C_R   0.818253 0.175738 0.846334 -0.126686
C6    C     C_R   0.855848 0.239356 0.726185 -0.071996
C7    C     C_R   0.875334 0.367495 0.730011 0.095668
C8    C     C_R   0.532698 0.114896 0.770127 -0.106474
C9    C     C_R   0.508086 0.051553 0.893681 -0.138786
C10   C     C_R   0.453868 0.934975 0.888431 -0.126301
C11   C     C_R   0.432686 0.878196 0.759752 -0.096752
C12   C     C_R   0.198085 0.752655 0.037827 -0.108424
C13   C     C_R   0.471828 0.935351 0.633517 0.025705
C14   C     C_R   0.505703 0.061494 0.637154 0.024091
C15   C     C_R   0.511155 0.127732 0.507912 -0.010111
C16   C     C_R   0.490781 0.737157 0.500600 0.531398
C17   C     C_R   0.507320 0.063585 0.381148 -0.168480
C18   C     C_R   0.497532 0.936716 0.379967 -0.175887
C19   C     C_R   0.481069 0.871121 0.504704 -0.013884
C20   C     C_R   0.658578 0.666944 0.145884 -0.106172
C21   C     C_R   0.734843 0.749290 0.074313 -0.184766
C22   C     C_R   0.734857 0.749095 0.930379 -0.173835
C23   C     C_R   0.933078 0.545631 0.392394 -0.169754
C24   C     C_R   0.658821 0.666319 0.857326 -0.089477
C25   C     C_R   0.577370 0.582507 0.925918 0.153603
C26   C     C_R   0.577346 0.582565 0.075702 0.152722
C27   C     C_R   0.427079 0.421032 0.073149 -0.000675
C28   C     C_R   0.737240 0.495448 0.501298 0.537155
C29   C     C_R   0.427604 0.420657 0.925078 -0.017177
C30   C     C_R   0.224423 0.794594 0.173408 -0.106070
C31   C     C_R   0.183977 0.726063 0.288853 -0.054313
C32   C     C_R   0.117263 0.614768 0.268719 0.056430
C33   C     C_R   0.093283 0.572256 0.132065 -0.095289
C34   C     C_R   0.870592 0.490454 0.503456 -0.034324
C35   C     C_R   0.133783 0.641042 0.017168 -0.116686
C36   C     C_R   0.936234 0.431687 0.611633 0.005227
C37   C     C_R   0.064560 0.431406 0.607711 0.065430
C38   C     C_R   0.127852 0.494012 0.498494 0.002729
C39   C     C_R   0.060468 0.549148 0.388548 -0.053086
C40   C     C_R   0.856765 0.430960 0.855187 -0.065343
Cu1   Cu    Cu3+1 0.499990 0.499990 0.640660 0.901695
Cu2   Cu    Cu3+1 0.500010 0.500010 0.359340 0.923389
H1    H     H_    0.225603 0.807297 0.948473 0.102561
H2    H     H_    0.502971 0.889969 0.280444 0.135567
H3    H     H_    0.367345 0.356368 0.127920 0.118240
H4    H     H_    0.273776 0.881483 0.188982 0.100608
H5    H     H_    0.668987 0.673149 0.255934 0.184784
H6    H     H_    0.795634 0.812642 0.131326 0.121765
H7    H     H_    0.795764 0.812152 0.874618 0.117843
H8    H     H_    0.670310 0.670739 0.747587 0.189241
H9    H     H_    0.369280 0.354804 0.868993 0.117384
H10   H     H_    0.201697 0.761063 0.393373 0.094107
H11   H     H_    0.041061 0.487153 0.114772 0.110495
H12   H     H_    0.765950 0.190731 0.061936 0.110215
H13   H     H_    0.113183 0.609172 0.912115 0.107860
H14   H     H_    0.882246 0.590415 0.309233 0.128163
H15   H     H_    0.877145 0.528837 0.861450 0.102832
H16   H     H_    0.800674 0.417051 0.069947 0.120329
H17   H     H_    0.172872 0.423563 0.783056 0.244351
H18   H     H_    0.190156 0.304426 0.667470 0.243191
H19   H     H_    0.804860 0.076705 0.843583 0.112115
H20   H     H_    0.873748 0.188576 0.631752 0.102744
H21   H     H_    0.513776 0.111443 0.281832 0.129784
H22   H     H_    0.579002 0.202851 0.783216 0.168565
H23   H     H_    0.529325 0.094082 0.993742 0.102896
H24   H     H_    0.430908 0.887428 0.984499 0.112597
H25   H     H_    0.383712 0.790407 0.761542 0.145594
N1    N     N_R   0.501190 0.501210 0.147910 -0.241300
N2    N     N_R   0.501230 0.501290 0.852040 -0.247787
N3    N     N_3   0.127893 0.362683 0.713866 -0.636082
O1    O     O_R   0.499990 0.319640 0.618810 -0.517545
O2    O     O_R   0.500000 0.319660 0.381240 -0.506250
O3    O     O_R   0.319640 0.500000 0.618780 -0.514868
O4    O     O_R   0.319650 0.500020 0.381210 -0.486291
O5    O     O_R   0.500000 0.680340 0.618760 -0.533282
O6    O     O_R   0.500010 0.680360 0.381190 -0.520349
O7    O     O_R   0.680350 0.499980 0.618790 -0.518672
O8    O     O_R   0.680360 0.500000 0.381220 -0.526753

loop_
_geom_bond_atom_site_label_1
_geom_bond_atom_site_label_2
_ccdc_geom_bond_type
C27   C29   A    
C16   O5    A    
C7    C36   S    
C31   H10   S    
C23   H14   S    
C1    O1    A    
C21   C22   A    
C36   C37   A    
C12   H1    S    
Cu1   O7    S    
C5    C6    A    
C3    H12   S    
C18   C19   A    
Cu1   Cu2   S    
C32   C39   S    
C27   N1    A    
C8    C9    A    
C7    C40   A    
C1    C15   S    
C28   O8    A    
C9    C10   A    
C4    O4    A    
Cu1   O1    S    
C21   H6    S    
C27   H3    S    
C28   C34   S    
C13   C14   A    
Cu2   N1    S    
C11   H25   S    
C29   N2    A    
C10   H24   S    
C24   H8    S    
C38   C39   A    
Cu2   O4    S    
C1    O2    A    
C13   C19   A    
C35   H13   S    
C24   C25   A    
C25   C26   A    
C37   C38   A    
C18   H2    S    
Cu1   O5    S    
C31   C32   A    
H18   N3    S    
C23   C34   A    
Cu2   O2    S    
C17   C18   A    
C5    H19   S    
C12   C35   A    
C28   O7    A    
C33   H11   S    
C4    O3    A    
C8    H22   S    
C22   H7    S    
C4    C38   S    
Cu2   O8    S    
C22   C24   A    
C25   N2    A    
Cu1   N2    S    
C29   H9    S    
C15   C17   A    
C8    C14   A    
C40   H15   S    
C12   C30   A    
C16   O6    A    
C30   H4    S    
C3    C5    A    
C2    H16   S    
C6    C7    A    
Cu2   O6    S    
C26   N1    A    
C32   C33   A    
C6    H20   S    
C2    C3    A    
C17   H21   S    
C11   C13   A    
C30   C31   A    
C20   C26   A    
C16   C19   S    
C23   C39   A    
C33   C35   A    
C34   C36   A    
C9    H23   S    
C20   H5    S    
C10   C11   A    
H17   N3    S    
Cu1   O3    S    
C2    C40   A    
C20   C21   A    
C14   C15   A    
C37   N3    S    
