data_mof_unit_58254.cif
_audit_creation_date              2012-12-10T18:10:47-0500
_audit_creation_method            fapswitch 2.2
_symmetry_space_group_name_H-M    P1
_symmetry_Int_Tables_number       1
_space_group_crystal_system       triclinic
_cell_length_a                    12.72769
_cell_length_b                    13.093597
_cell_length_c                    15.717335
_cell_angle_alpha                 92.639737
_cell_angle_beta                  102.838877
_cell_angle_gamma                 81.548301
_cell_volume                      2525.84946467

loop_
_atom_site_label
_atom_site_type_symbol
_atom_type_description
_atom_site_fract_x
_atom_site_fract_y
_atom_site_fract_z
_atom_type_partial_charge
C1    C     C_R   0.438776 0.691381 0.492326 0.874510
C2    C     C_3   0.387542 0.475317 0.025777 0.292242
C3    C     C_3   0.494447 0.507600 0.082056 0.015495
C4    C     C_3   0.591873 0.429548 0.064036 0.457939
C5    C     C_3   0.594758 0.429721 0.966481 -0.552456
C6    C     C_1   0.493539 0.503908 0.173522 0.032891
C7    C     C_1   0.502912 0.506433 0.826333 0.025409
C8    C     C_1   0.503479 0.504130 0.750910 -0.145907
C9    C     C_R   0.699025 0.070396 0.630578 -0.135912
C10   C     C_R   0.597646 0.200748 0.528979 -0.048576
C11   C     C_R   0.302579 0.836819 0.425503 0.630801
C12   C     C_R   0.501250 0.500995 0.661366 0.860984
C13   C     C_R   0.276619 0.940787 0.405211 -0.230551
C14   C     C_R   0.349663 0.009008 0.439687 -0.268621
C15   C     C_R   0.448671 0.974651 0.499109 0.094324
C16   C     C_R   0.466180 0.873016 0.529929 -0.066666
C17   C     C_R   0.530751 0.037790 0.529204 0.031615
C18   C     C_R   0.620092 0.005215 0.598898 0.028498
C19   C     C_R   0.627351 0.909476 0.636911 0.569531
C20   C     C_R   0.551067 0.844358 0.602953 -0.263143
C21   C     C_R   0.526639 0.132515 0.491152 -0.209864
C22   C     C_R   0.686532 0.169080 0.596827 -0.212945
C23   C     C_R   0.561076 0.308983 0.510425 0.879484
C24   C     C_R   0.399241 0.801808 0.485919 -0.215073
C25   C     C_R   0.092501 0.351225 0.369524 -0.258154
C26   C     C_R   0.799921 0.629370 0.605043 0.041322
C27   C     C_R   0.902467 0.659898 0.625166 -0.198102
C28   C     C_R   0.982313 0.612759 0.582804 -0.128614
C29   C     C_R   0.960451 0.533515 0.519700 -0.068228
C30   C     C_R   0.854329 0.505640 0.500318 0.081135
C31   C     C_R   0.040286 0.480247 0.476562 -0.039692
C32   C     C_R   0.011984 0.404016 0.410683 0.038281
C33   C     C_R   0.905391 0.379715 0.388254 -0.038184
C34   C     C_R   0.498509 0.499714 0.338632 0.916490
C35   C     C_R   0.831006 0.427076 0.436538 0.587494
C36   C     C_R   0.149140 0.498547 0.497137 0.047686
C37   C     C_R   0.197314 0.372935 0.393388 0.041902
C38   C     C_3   0.390442 0.476534 0.927990 0.405568
C39   C     C_3   0.511692 0.616846 0.957402 -0.387489
C40   C     C_3   0.508532 0.618231 0.055945 -0.131773
C41   C     C_1   0.494677 0.501322 0.249032 -0.159981
C42   C     C_3   0.499909 0.507672 0.917479 0.055956
H1    H     H_    0.316197 0.528935 0.038319 0.163361
H2    H     H_    0.381513 0.398386 0.898651 0.142481
H3    H     H_    0.742069 0.222225 0.626927 0.166166
H4    H     H_    0.767225 0.047251 0.684047 0.195994
H5    H     H_    0.464908 0.158030 0.434356 0.139660
H6    H     H_    0.325184 0.088442 0.420337 0.157409
H7    H     H_    0.201680 0.968014 0.359472 0.172516
H8    H     H_    0.558350 0.771436 0.634957 0.173859
H9    H     H_    0.259649 0.333224 0.362057 0.130596
H10   H     H_    0.077202 0.292372 0.319691 0.138372
H11   H     H_    0.179040 0.554121 0.545650 0.125239
H12   H     H_    0.737745 0.665631 0.637912 0.161039
H13   H     H_    0.059876 0.640589 0.600698 0.149637
H14   H     H_    0.920096 0.720220 0.673493 0.188571
H15   H     H_    0.590180 0.639668 0.950326 0.184507
H16   H     H_    0.445912 0.673792 0.920132 0.224250
H17   H     H_    0.588805 0.635625 0.094378 0.231562
H18   H     H_    0.588242 0.350726 0.938250 0.156165
H19   H     H_    0.673959 0.450257 0.958786 0.248043
H20   H     H_    0.583297 0.350433 0.081921 0.142604
N1    N     N_R   0.222200 0.444690 0.455710 -0.109620
N2    N     N_R   0.776960 0.554780 0.543830 -0.111317
O1    O     O_R   0.366740 0.627160 0.478850 -0.552540
O2    O     O_R   0.544830 0.662520 0.507140 -0.629246
O3    O     O_R   0.410920 0.482310 0.608710 -0.607682
O4    O     O_R   0.589010 0.517670 0.637000 -0.629353
O5    O     O_R   0.455170 0.337480 0.492860 -0.633710
O6    O     O_R   0.633260 0.372840 0.521150 -0.532657
O7    O     O_R   0.410990 0.482330 0.363000 -0.605597
O8    O     O_R   0.589080 0.517690 0.391290 -0.542575
Zn1   Zn    Zn3+2 0.381090 0.476390 0.481110 0.989940
Zn2   Zn    Zn3+2 0.618910 0.523610 0.518890 0.994907
F1    F     F_    0.374626 0.377239 0.047960 -0.684003
F2    F     F_    0.689460 0.454129 0.114169 -0.676959
F3    F     F_    0.709028 0.877997 0.706066 -0.691105
F4    F     F_    0.235444 0.770272 0.383238 -0.654612
F5    F     F_    0.303554 0.544925 0.884233 -0.671543
C43   C     C_3   0.876088 0.299843 0.314496 -0.363210
C44   C     C_3   0.757502 0.278702 0.284724 -0.221739
C45   C     C_3   0.744256 0.206443 0.205118 -0.909083
H21   H     H_    0.766714 0.241183 0.149670 0.291268
H22   H     H_    0.796561 0.131118 0.221002 0.265361
H23   H     H_    0.658139 0.192596 0.185034 0.257102
H24   H     H_    0.733280 0.240096 0.337456 0.252916
H25   H     H_    0.702536 0.352269 0.267126 0.277826
H26   H     H_    0.898747 0.326713 0.255744 0.228762
H27   H     H_    0.926934 0.224674 0.334483 0.187763
F6    F     F_    0.738959 0.388536 0.424285 -0.676088
C46   C     C_3   0.420623 0.705116 0.077392 -0.432427
C47   C     C_3   0.454047 0.812813 0.074651 -0.355909
C48   C     C_3   0.368044 0.896938 0.097812 -0.809220
H28   H     H_    0.289095 0.895543 0.050565 0.268663
H29   H     H_    0.357049 0.885608 0.164757 0.263367
H30   H     H_    0.394370 0.973724 0.095337 0.255176
H31   H     H_    0.532408 0.817240 0.122059 0.229017
H32   H     H_    0.465313 0.827721 0.008469 0.233717
H33   H     H_    0.341588 0.701610 0.030652 0.242072
H34   H     H_    0.407815 0.694668 0.143892 0.220683

loop_
_geom_bond_atom_site_label_1
_geom_bond_atom_site_label_2
_ccdc_geom_bond_type
C5    C42   S    
C48   H28   S    
C30   N2    A    
C23   O5    A    
C19   C20   A    
C3    C6    S    
C44   C45   S    
C47   H32   S    
C7    C8    T    
C10   C22   A    
C12   O4    A    
C26   C27   A    
C30   C35   A    
C28   C29   A    
C38   C42   S    
C37   H9    S    
C9    C22   A    
C38   F5    S    
O4    Zn2   S    
C15   C16   A    
O2    Zn2   S    
C4    H20   S    
C11   C24   A    
O1    Zn1   S    
C18   C19   A    
C7    C42   S    
C43   H27   S    
C19   F3    S    
C26   N2    A    
C20   H8    S    
C36   H11   S    
C25   C37   A    
C6    C41   T    
O6    Zn2   S    
C1    O1    A    
O5    Zn1   S    
O3    Zn1   S    
C46   H34   S    
C36   N1    A    
C44   H24   S    
C8    C12   S    
C25   C32   A    
C9    H4    S    
C16   C24   A    
C40   H17   S    
C13   C14   A    
C23   O6    A    
C34   C41   S    
C26   H12   S    
C37   N1    A    
C28   H13   S    
C47   H31   S    
C1    O2    A    
C39   C42   S    
C10   C21   A    
C12   O3    A    
O8    Zn2   S    
C46   C47   S    
O7    Zn1   S    
C27   H14   S    
C43   C44   S    
C14   H6    S    
N1    Zn1   S    
C39   H16   S    
C17   C21   A    
C38   H2    S    
C29   C30   A    
C11   F4    S    
C2    C38   S    
C31   C32   A    
C2    H1    S    
C16   C20   A    
C17   C18   A    
C5    H19   S    
C44   H25   S    
C13   H7    S    
C3    C40   S    
C48   H30   S    
C45   H22   S    
C3    C4    S    
C34   O8    A    
C39   C40   S    
C15   C17   A    
C5    H18   S    
C14   C15   A    
C4    C5    S    
C33   C43   S    
C10   C23   S    
C45   H23   S    
C32   C33   A    
C2    C3    S    
C25   H10   S    
C43   H26   S    
C11   C13   A    
C48   H29   S    
C47   C48   S    
C33   C35   A    
C40   C46   S    
C4    F2    S    
C35   F6    S    
C9    C18   A    
C22   H3    S    
C1    C24   S    
C29   C31   A    
C45   H21   S    
C27   C28   A    
N2    Zn2   S    
C31   C36   A    
C46   H33   S    
C34   O7    A    
C2    F1    S    
C21   H5    S    
C39   H15   S    
