data_mof_unit_27963.cif
_audit_creation_date              2012-12-10T19:04:45-0500
_audit_creation_method            fapswitch 2.2
_symmetry_space_group_name_H-M    P1
_symmetry_Int_Tables_number       1
_space_group_crystal_system       triclinic
_cell_length_a                    15.8511
_cell_length_b                    10.843348
_cell_length_c                    9.600413
_cell_angle_alpha                 90.5605
_cell_angle_beta                  90.278242
_cell_angle_gamma                 91.538592
_cell_volume                      1649.41384845

loop_
_atom_site_label
_atom_site_type_symbol
_atom_type_description
_atom_site_fract_x
_atom_site_fract_y
_atom_site_fract_z
_atom_type_partial_charge
C1    C     C_R   0.499890 0.262533 0.499557 0.800061
C2    C     C_3   0.083170 0.506909 0.496619 0.129011
C3    C     C_3   0.973908 0.600979 0.581811 -0.236122
C4    C     C_3   0.916716 0.504408 0.505614 0.090924
C5    C     C_3   0.028384 0.614478 0.447582 -0.213640
C6    C     C_3   0.970202 0.517561 0.374638 0.342146
C7    C     C_1   0.174840 0.505318 0.495954 -0.046475
C8    C     C_1   0.825087 0.502608 0.504601 -0.051591
C9    C     C_R   0.483474 0.064981 0.623001 0.019704
C10   C     C_R   0.494261 0.129108 0.498778 -0.081290
C11   C     C_R   0.495154 0.062421 0.372870 -0.227643
C12   C     C_R   0.339997 0.500578 0.499455 0.833196
C13   C     C_R   0.491605 0.934149 0.373299 -0.211781
C14   C     C_R   0.491881 0.870413 0.500165 -0.130793
C15   C     C_R   0.482583 0.937574 0.623952 0.051403
C16   C     C_3   0.529845 0.936525 0.760575 0.505830
C17   C     C_3   0.531344 0.077636 0.757281 -0.475508
C18   C     C_R   0.558442 0.570687 0.074298 0.160993
C19   C     C_R   0.439851 0.435025 0.073815 0.268382
C20   C     C_R   0.438488 0.437597 0.924073 0.266939
C21   C     C_R   0.559799 0.565621 0.927302 0.142806
C22   C     C_3   0.651904 0.544637 0.921804 -0.483009
C23   C     C_R   0.498699 0.737448 0.500484 0.791936
C24   C     C_3   0.653361 0.558491 0.079088 0.041515
C25   C     C_R   0.659950 0.499731 0.500526 0.806127
C26   C     C_3   0.971422 0.397336 0.554862 -0.273133
C27   C     C_3   0.025469 0.410493 0.420466 -0.245346
C28   C     C_1   0.250358 0.503175 0.497533 -0.208953
C29   C     C_1   0.749567 0.501070 0.502339 -0.197337
C30   C     C_3   0.029599 0.494288 0.627754 0.338759
Cu1   Cu    Cu3+1 0.500000 0.499980 0.640670 0.960975
Cu2   Cu    Cu3+1 0.500000 0.500020 0.359330 0.950511
H1    H     H_    0.052302 0.702190 0.401799 0.137701
N1    N     N_R   0.500530 0.500930 0.147930 -0.234465
N2    N     N_R   0.500530 0.500890 0.852020 -0.216925
O1    O     O_R   0.500000 0.319640 0.618810 -0.569750
O2    O     O_R   0.500010 0.319680 0.381230 -0.560918
O3    O     O_R   0.379070 0.499970 0.618770 -0.542021
O4    O     O_R   0.379080 0.500010 0.381190 -0.563616
O5    O     O_R   0.499990 0.680320 0.618770 -0.564312
O6    O     O_R   0.500000 0.680360 0.381190 -0.592510
O7    O     O_R   0.620920 0.499990 0.618810 -0.571994
O8    O     O_R   0.620930 0.500030 0.381230 -0.581597
H2    H     H_    0.046884 0.334420 0.352162 0.142358
N3    N     N_2   0.613650 0.884853 0.748639 -0.434429
H3    H     H_    0.644364 0.904443 0.656560 0.234047
C31   C     C_3   0.668351 0.900644 0.869101 -0.690059
H4    H     H_    0.726280 0.846998 0.853553 0.225475
H5    H     H_    0.636401 0.866659 0.964275 0.264764
H6    H     H_    0.687005 0.999344 0.883853 0.212772
H7    H     H_    0.494757 0.122572 0.840826 0.178059
H8    H     H_    0.594997 0.120754 0.741517 0.172299
N4    N     N_2   0.377570 0.366032 0.148002 -0.362159
H9    H     H_    0.319354 0.405659 0.154283 0.245218
C32   C     C_3   0.375700 0.233148 0.131740 -0.696169
H10   H     H_    0.322255 0.202593 0.063618 0.201876
H11   H     H_    0.365463 0.190764 0.235081 0.242196
H12   H     H_    0.435521 0.199863 0.086726 0.210451
N5    N     N_2   0.376117 0.368085 0.847910 -0.369056
H13   H     H_    0.382026 0.273838 0.850848 0.234917
C33   C     C_3   0.290112 0.409475 0.857250 -0.640458
H14   H     H_    0.256913 0.367292 0.946793 0.196123
H15   H     H_    0.254932 0.379806 0.762037 0.247003
H16   H     H_    0.288769 0.511710 0.865818 0.224979
H17   H     H_    0.666308 0.449645 0.886077 0.174902
H18   H     H_    0.686216 0.619127 0.864754 0.222164
H19   H     H_    0.675158 0.475169 0.133839 0.149599
N6    N     N_2   0.701573 0.670477 0.116452 -0.430714
H20   H     H_    0.765985 0.659264 0.116260 0.266377
C34   C     C_3   0.672873 0.750016 0.227016 -0.614073
H21   H     H_    0.681217 0.706626 0.329648 0.232198
H22   H     H_    0.606426 0.773904 0.209250 0.233241
H23   H     H_    0.710965 0.837426 0.226800 0.199452
H24   H     H_    0.947580 0.309991 0.601641 0.142858
N7    N     N_2   0.933266 0.530181 0.237645 -0.431413
H25   H     H_    0.888564 0.462135 0.214495 0.245048
C35   C     C_3   0.992950 0.550508 0.126700 -0.736455
H26   H     H_    0.958089 0.566783 0.028315 0.232040
H27   H     H_    0.032681 0.468422 0.113001 0.226063
H28   H     H_    0.033786 0.633127 0.149504 0.238127
H29   H     H_    0.951801 0.677029 0.649483 0.139794
N8    N     N_2   0.063322 0.479467 0.766740 -0.431595
H30   H     H_    0.020032 0.440711 0.834244 0.244740
C36   C     C_3   0.107141 0.587106 0.824475 -0.739394
H31   H     H_    0.136550 0.563204 0.925450 0.229066
H32   H     H_    0.062241 0.662424 0.842653 0.222812
H33   H     H_    0.157813 0.619917 0.753464 0.244966
H34   H     H_    0.502729 0.108538 0.274421 0.169837
H35   H     H_    0.492878 0.885867 0.274280 0.166907
N9    N     N_2   0.481153 0.882332 0.875113 -0.410376
H36   H     H_    0.493459 0.790746 0.890805 0.271585
C37   C     C_3   0.391553 0.905218 0.885255 -0.741177
H37   H     H_    0.367474 0.868975 0.985701 0.227310
H38   H     H_    0.356600 0.857010 0.799201 0.229331
H39   H     H_    0.379019 0.005221 0.882544 0.228384

loop_
_geom_bond_atom_site_label_1
_geom_bond_atom_site_label_2
_ccdc_geom_bond_type
C32   H10   S    
C16   N9    S    
Cu1   O7    S    
C33   H16   S    
C18   C21   A    
C19   C20   A    
C36   H33   S    
C4    C8    S    
C17   H7    S    
C6    N7    S    
C31   H5    S    
C35   H26   S    
C26   C27   S    
C12   C28   S    
C18   C24   S    
C8    C29   T    
C36   H32   S    
C5    C6    S    
Cu2   O4    S    
C15   C16   S    
Cu1   O5    S    
N3    C31   S    
C33   H15   S    
C22   H18   S    
C24   H19   S    
C20   N2    A    
C27   H2    S    
Cu1   Cu2   S    
C16   C17   S    
C5    H1    S    
C3    H29   S    
Cu2   O6    S    
C34   H21   S    
C9    C10   A    
C1    O2    A    
C19   N4    S    
C35   H27   S    
N5    H13   S    
C21   C22   S    
C25   O8    A    
C17   H8    S    
C31   H6    S    
N4    C32   S    
C25   C29   S    
N5    C33   S    
C31   H4    S    
C36   H31   S    
C4    C6    S    
N6    H20   S    
N3    H3    S    
C37   H39   S    
C7    C28   T    
Cu2   N1    S    
C14   C23   S    
C16   N3    S    
C3    C30   S    
N7    H25   S    
C22   H17   S    
N7    C35   S    
N9    C37   S    
C6    C27   S    
C11   H34   S    
C34   H23   S    
C37   H38   S    
Cu2   O2    S    
C20   N5    S    
C18   N1    A    
C2    C27   S    
C9    C17   S    
C26   C30   S    
N8    C36   S    
C32   H11   S    
C2    C7    S    
C22   C24   S    
C2    C5    S    
C3    C4    S    
C35   H28   S    
C30   N8    S    
C13   H35   S    
C14   C15   A    
C1    C10   S    
C3    C5    S    
C19   N1    A    
C25   O7    A    
C4    C26   S    
N4    H9    S    
C21   N2    A    
C23   O6    A    
Cu1   O3    S    
C2    C30   S    
C12   O4    A    
C9    C15   A    
C11   C13   A    
N9    H36   S    
C37   H37   S    
C26   H24   S    
Cu2   O8    S    
Cu1   N2    S    
C12   O3    A    
C33   H14   S    
C10   C11   A    
C24   N6    S    
N6    C34   S    
N8    H30   S    
C32   H12   S    
Cu1   O1    S    
C34   H22   S    
C13   C14   A    
C23   O5    A    
C1    O1    A    
