data_mof_unit_6994.cif
_audit_creation_date              2012-12-11T14:41:06-0500
_audit_creation_method            fapswitch 2.2
_symmetry_space_group_name_H-M    P1
_symmetry_Int_Tables_number       1
_space_group_crystal_system       triclinic
_cell_length_a                    24.736187
_cell_length_b                    17.593108
_cell_length_c                    15.549646
_cell_angle_alpha                 90.797562
_cell_angle_beta                  129.473969
_cell_angle_gamma                 89.897521
_cell_volume                      5222.80982862

loop_
_atom_site_label
_atom_site_type_symbol
_atom_type_description
_atom_site_fract_x
_atom_site_fract_y
_atom_site_fract_z
_atom_type_partial_charge
C1    C     C_R   0.334516 0.387893 0.201085 -0.061309
C2    C     C_R   0.685317 0.614539 0.501932 -0.153386
C3    C     C_2   0.814975 0.389709 0.566651 0.607729
C4    C     C_2   0.259388 0.660661 0.997431 0.558369
C5    C     C_2   0.207149 0.418671 0.955998 0.581453
C6    C     C_2   0.759397 0.160591 0.997419 0.558344
C7    C     C_2   0.707139 0.918671 0.955993 0.581430
C8    C     C_2   0.592936 0.407048 0.298057 0.549291
C9    C     C_2   0.586728 0.585401 0.290986 0.519506
C10   C     C_2   0.092883 0.906950 0.298011 0.549390
C11   C     C_2   0.086737 0.085377 0.290994 0.519194
C12   C     C_R   0.176640 0.861437 0.500870 -0.207726
C13   C     C_R   0.185321 0.114527 0.501932 -0.153378
C14   C     C_R   0.344885 0.334819 0.504730 -0.182941
C15   C     C_R   0.319153 0.617324 0.503049 -0.125978
C16   C     C_R   0.844907 0.834794 0.504733 -0.182942
C17   C     C_R   0.819156 0.117353 0.503039 -0.125983
C18   C     C_3   0.335182 0.262489 0.630415 -0.470689
C19   C     C_3   0.313690 0.755025 0.505461 -0.460823
C20   C     C_3   0.835208 0.762460 0.630422 -0.470676
C21   C     C_R   0.355073 0.643350 0.253211 -0.089378
C22   C     C_3   0.813744 0.255059 0.505539 -0.460880
C23   C     C_3   0.788102 0.706271 0.630729 -0.152022
C24   C     C_3   0.769887 0.323151 0.491056 -0.216019
C25   C     C_3   0.288082 0.206289 0.630720 -0.152030
C26   C     C_3   0.269812 0.823100 0.490958 -0.216029
C27   C     C_3   0.228620 0.304256 0.442693 -0.367131
C28   C     C_3   0.286448 0.678170 0.610188 -0.412328
C29   C     C_3   0.728645 0.804257 0.442723 -0.367121
C30   C     C_3   0.786405 0.178181 0.610123 -0.412145
C31   C     C_3   0.307145 0.201559 0.457942 -0.403651
C32   C     C_R   0.834514 0.887899 0.201080 -0.061268
C33   C     C_3   0.202089 0.675484 0.400985 -0.335558
C34   C     C_3   0.807139 0.701541 0.457919 -0.403642
C35   C     C_3   0.702108 0.175569 0.400922 -0.335523
C36   C     C_3   0.304842 0.276813 0.508683 0.396779
C37   C     C_3   0.280632 0.679481 0.504975 0.353056
C38   C     C_3   0.804860 0.776794 0.508687 0.396761
C39   C     C_3   0.780640 0.179522 0.504960 0.353033
C40   C     C_3   0.731028 0.672648 0.508872 0.326065
C41   C     C_3   0.715407 0.296035 0.503797 0.350324
C42   C     C_3   0.231023 0.172648 0.508868 0.326096
C43   C     C_R   0.855070 0.143348 0.253202 -0.089445
C44   C     C_3   0.215382 0.795975 0.503806 0.350356
C45   C     C_3   0.683892 0.738748 0.429273 -0.364008
C46   C     C_3   0.753476 0.250518 0.614383 -0.340994
C47   C     C_3   0.183876 0.238734 0.429243 -0.363996
C48   C     C_3   0.253523 0.750511 0.614450 -0.340861
C49   C     C_R   0.662605 0.381647 0.787534 -0.115297
C50   C     C_R   0.651322 0.637784 0.759376 -0.090487
C51   C     C_R   0.162622 0.881687 0.787583 -0.115246
C52   C     C_R   0.151323 0.137782 0.759380 -0.090491
C53   C     C_3   0.772176 0.637526 0.473665 -0.394685
C54   C     C_R   0.639539 0.354004 0.842083 0.126517
C55   C     C_3   0.662547 0.238261 0.408359 -0.452381
C56   C     C_3   0.272187 0.137536 0.473687 -0.394757
C57   C     C_3   0.162524 0.738149 0.408458 -0.452246
C58   C     C_2   0.680269 0.304352 0.936526 -0.201521
C59   C     C_2   0.646386 0.752056 0.855409 -0.138195
C60   C     C_2   0.180300 0.804436 0.936625 -0.201463
C61   C     C_2   0.146391 0.252051 0.855422 -0.138211
C62   C     C_2   0.749491 0.304225 0.995387 -0.231248
C63   C     C_2   0.694296 0.792754 0.860728 -0.068866
C64   C     C_2   0.249520 0.804296 0.995472 -0.231255
C65   C     C_R   0.619761 0.679673 0.792940 0.073936
C66   C     C_2   0.194298 0.292751 0.860734 -0.068848
C67   C     C_2   0.355277 0.747235 0.148349 -0.219711
C68   C     C_2   0.307439 0.331951 0.026690 -0.310364
C69   C     C_2   0.855259 0.247208 0.148298 -0.219706
C70   C     C_2   0.807435 0.831963 0.026680 -0.310314
C71   C     C_2   0.290179 0.736908 0.052114 0.010028
C72   C     C_2   0.238695 0.348496 0.950960 -0.028328
C73   C     C_2   0.790166 0.236852 0.052062 0.010058
C74   C     C_2   0.738690 0.848502 0.950953 -0.028300
C75   C     C_R   0.612817 0.389338 0.407541 -0.169157
C76   C     C_R   0.139564 0.854064 0.842153 0.126462
C77   C     C_R   0.616284 0.598630 0.408092 -0.180766
C78   C     C_R   0.112794 0.889292 0.407532 -0.169117
C79   C     C_R   0.116287 0.098620 0.408094 -0.180703
C80   C     C_R   0.403074 0.371397 0.596027 -0.238454
C81   C     C_R   0.387307 0.601298 0.593841 -0.260901
C82   C     C_R   0.903091 0.871378 0.596028 -0.238438
C83   C     C_R   0.887308 0.101315 0.593837 -0.260885
C84   C     C_R   0.685324 0.388167 0.592469 0.707743
C85   C     C_R   0.690027 0.596124 0.591940 0.650373
C86   C     C_R   0.185305 0.888125 0.592469 0.707832
C87   C     C_R   0.119764 0.179670 0.792948 0.073946
C88   C     C_R   0.190029 0.096117 0.591939 0.650369
C89   C     C_R   0.327716 0.367533 0.409769 0.716094
C90   C     C_R   0.312748 0.600270 0.410103 0.665977
C91   C     C_R   0.827730 0.867517 0.409771 0.716088
C92   C     C_R   0.812751 0.100285 0.410097 0.665950
C93   C     C_R   0.572962 0.381350 0.790814 -0.121603
C94   C     C_R   0.560735 0.639216 0.760546 -0.104353
C95   C     C_R   0.072976 0.881386 0.790852 -0.121616
C96   C     C_R   0.060738 0.139214 0.760552 -0.104364
C97   C     C_R   0.423949 0.385123 0.199624 -0.118254
C98   C     C_R   0.676677 0.361511 0.500874 -0.207469
C99   C     C_R   0.445463 0.645065 0.251953 -0.055849
C100  C     C_R   0.923946 0.885132 0.199616 -0.118236
C101  C     C_R   0.945460 0.145061 0.251944 -0.055785
C102  C     C_R   0.354116 0.365255 0.139494 0.102167
C103  C     C_R   0.388623 0.685304 0.224963 0.127350
C104  C     C_R   0.854112 0.865265 0.139485 0.102162
C105  C     C_R   0.888618 0.185298 0.224946 0.127321
C106  C     C_2   0.260266 0.243215 0.684470 0.479418
C107  C     C_2   0.314879 0.889699 0.566467 0.607512
C108  C     C_2   0.760304 0.743205 0.684504 0.479413
F1    F     F_    0.746591 0.395238 0.697802 -0.692940
F2    F     F_    0.749553 0.577882 0.694411 -0.712500
F3    F     F_    0.246574 0.895177 0.697804 -0.693040
F4    F     F_    0.249554 0.077877 0.694412 -0.712516
F5    F     F_    0.270761 0.352736 0.302847 -0.744240
F6    F     F_    0.252147 0.588194 0.305101 -0.728169
F7    F     F_    0.770775 0.852716 0.302850 -0.744244
F8    F     F_    0.752149 0.088194 0.305100 -0.728185
H1    H     H_    0.281764 0.389415 0.172161 0.175930
H2    H     H_    0.741801 0.342768 0.405071 0.173958
H3    H     H_    0.322593 0.159214 0.686026 0.161529
H4    H     H_    0.241691 0.842678 0.404947 0.174022
H5    H     H_    0.226821 0.352686 0.487636 0.199347
H6    H     H_    0.341707 0.676420 0.688038 0.172721
H7    H     H_    0.726864 0.852688 0.487683 0.199350
H8    H     H_    0.841654 0.176410 0.687999 0.172708
H9    H     H_    0.647685 0.759145 0.443792 0.194285
H10   H     H_    0.795831 0.284994 0.687612 0.257253
H11   H     H_    0.147655 0.259122 0.443737 0.194289
H12   H     H_    0.307578 0.657908 0.239069 0.147491
H13   H     H_    0.295892 0.785018 0.687618 0.257298
H14   H     H_    0.779060 0.708406 0.367430 0.219576
H15   H     H_    0.679153 0.119052 0.393399 0.184037
H16   H     H_    0.279074 0.208416 0.367455 0.219546
H17   H     H_    0.179170 0.618954 0.393511 0.183991
H18   H     H_    0.362215 0.185897 0.498623 0.163985
H19   H     H_    0.195305 0.684943 0.324133 0.225179
H20   H     H_    0.862203 0.685866 0.498581 0.163977
H21   H     H_    0.695365 0.185027 0.324104 0.225091
H22   H     H_    0.813091 0.598723 0.539603 0.167913
H23   H     H_    0.781762 0.889422 0.172157 0.175916
H24   H     H_    0.626499 0.264170 0.325413 0.209602
H25   H     H_    0.313106 0.098741 0.539635 0.167965
H26   H     H_    0.126399 0.764009 0.325491 0.209737
H27   H     H_    0.739878 0.602250 0.397157 0.237640
H28   H     H_    0.628830 0.212731 0.424883 0.170987
H29   H     H_    0.239900 0.102255 0.397182 0.237601
H30   H     H_    0.128879 0.712597 0.425112 0.170950
H31   H     H_    0.205263 0.324755 0.358520 0.222266
H32   H     H_    0.259212 0.626924 0.607915 0.176320
H33   H     H_    0.705284 0.824762 0.358551 0.222256
H34   H     H_    0.807571 0.157903 0.239050 0.147488
H35   H     H_    0.759148 0.126935 0.607789 0.176289
H36   H     H_    0.713597 0.375220 0.810371 0.183152
H37   H     H_    0.698957 0.650931 0.773462 0.131540
H38   H     H_    0.213622 0.875279 0.810442 0.183185
H39   H     H_    0.198959 0.150928 0.773469 0.131540
H40   H     H_    0.650497 0.719661 0.341056 0.207245
H41   H     H_    0.716001 0.234543 0.628187 0.145695
H42   H     H_    0.150497 0.219634 0.341032 0.207229
H43   H     H_    0.216096 0.734545 0.628359 0.145760
H44   H     H_    0.776403 0.352294 0.993739 0.168443
H45   H     H_    0.388871 0.238609 0.678952 0.160464
H46   H     H_    0.710247 0.775892 0.812623 0.135010
H47   H     H_    0.276436 0.852353 0.993809 0.168431
H48   H     H_    0.210243 0.275893 0.812621 0.135002
H49   H     H_    0.378039 0.803779 0.179239 0.140052
H50   H     H_    0.328537 0.284719 0.010651 0.162010
H51   H     H_    0.878004 0.303761 0.179162 0.140049
H52   H     H_    0.828536 0.784735 0.010639 0.162012
H53   H     H_    0.653440 0.260686 0.945914 0.137360
H54   H     H_    0.631352 0.768592 0.905175 0.171753
H55   H     H_    0.153473 0.760779 0.946030 0.137374
H56   H     H_    0.316487 0.754792 0.436697 0.142856
H57   H     H_    0.131361 0.268584 0.905194 0.171746
H58   H     H_    0.428907 0.364579 0.683092 0.138802
H59   H     H_    0.410829 0.602974 0.680771 0.144179
H60   H     H_    0.928931 0.864552 0.683095 0.138808
H61   H     H_    0.910829 0.103008 0.680766 0.144174
H62   H     H_    0.543959 0.376298 0.820756 0.106421
H63   H     H_    0.524817 0.655831 0.774608 0.114812
H64   H     H_    0.043974 0.876349 0.820799 0.106444
H65   H     H_    0.024821 0.155828 0.774617 0.114806
H66   H     H_    0.451195 0.381186 0.166954 0.098715
H67   H     H_    0.888892 0.738567 0.678942 0.160471
H68   H     H_    0.480951 0.663883 0.238655 0.086075
H69   H     H_    0.951188 0.881206 0.166939 0.098756
H70   H     H_    0.980946 0.163874 0.238638 0.086073
H71   H     H_    0.339846 0.317047 0.672068 0.181832
H72   H     H_    0.368634 0.760053 0.584615 0.207937
H73   H     H_    0.839889 0.817015 0.672094 0.181847
H74   H     H_    0.868681 0.260052 0.584719 0.207910
H75   H     H_    0.278376 0.222965 0.764362 0.037324
H76   H     H_    0.304374 0.945988 0.531523 0.000257
H77   H     H_    0.778407 0.722941 0.764387 0.037386
H78   H     H_    0.816568 0.254841 0.436805 0.142845
H79   H     H_    0.804534 0.446009 0.531760 0.000234
H80   H     H_    0.203359 0.654015 0.931685 0.011354
H81   H     H_    0.240031 0.464592 0.013860 0.048749
H82   H     H_    0.703368 0.153923 0.931683 0.011355
H83   H     H_    0.740018 0.964593 0.013856 0.048741
H84   H     H_    0.545942 0.438337 0.238705 -0.005263
H85   H     H_    0.533083 0.565839 0.230231 0.013904
H86   H     H_    0.045953 0.938359 0.238747 -0.005209
H87   H     H_    0.033084 0.065842 0.230227 0.013997
H88   H     H_    0.822606 0.659187 0.686020 0.161536
N1    N     N_R   0.389430 0.421450 0.294590 -0.055754
N2    N     N_R   0.581780 0.577610 0.443390 -0.114634
N3    N     N_R   0.081780 0.922390 0.443390 -0.113665
N4    N     N_R   0.081780 0.077610 0.443390 -0.114629
N5    N     N_R   0.419850 0.423100 0.556610 -0.069819
N6    N     N_R   0.419850 0.576900 0.556610 -0.071181
N7    N     N_R   0.919850 0.923100 0.556610 -0.069818
N8    N     N_R   0.919850 0.076900 0.556610 -0.071174
N9    N     N_R   0.627410 0.423100 0.556610 -0.107868
N10   N     N_R   0.627410 0.576900 0.556610 -0.103775
N11   N     N_R   0.127410 0.923100 0.556610 -0.107847
N12   N     N_R   0.389430 0.578550 0.294590 -0.041487
N13   N     N_R   0.127410 0.076900 0.556610 -0.103777
N14   N     N_R   0.374220 0.422390 0.443390 -0.100227
N15   N     N_R   0.374220 0.577610 0.443390 -0.106487
N16   N     N_R   0.874220 0.922390 0.443390 -0.100219
N17   N     N_R   0.874220 0.077610 0.443390 -0.106471
N18   N     N_R   0.555000 0.424040 0.705410 -0.048274
N19   N     N_R   0.555000 0.575960 0.705410 -0.048050
N20   N     N_R   0.055000 0.924040 0.705410 -0.048276
N21   N     N_R   0.055000 0.075960 0.705410 -0.048048
N22   N     N_R   0.446630 0.421450 0.294590 -0.061642
N23   N     N_R   0.889430 0.921450 0.294590 -0.055757
N24   N     N_R   0.446630 0.578550 0.294590 -0.058210
N25   N     N_R   0.946630 0.921450 0.294590 -0.061654
N26   N     N_R   0.946630 0.078550 0.294590 -0.058202
N27   N     N_R   0.889430 0.078550 0.294590 -0.041479
N28   N     N_R   0.612200 0.424040 0.705410 -0.050370
N29   N     N_R   0.612200 0.575960 0.705410 -0.041634
N30   N     N_R   0.112200 0.924040 0.705410 -0.050385
N31   N     N_R   0.112200 0.075960 0.705410 -0.041639
N32   N     N_R   0.581780 0.422390 0.443390 -0.113654
Ni1   Ni    Ni4+2 0.382890 0.500000 0.370170 0.289382
Ni2   Ni    Ni4+2 0.882890 0.000000 0.370170 0.289383
Ni3   Ni    Ni4+2 0.618740 0.500000 0.629830 0.299469
Ni4   Ni    Ni4+2 0.118740 0.000000 0.629830 0.299446
Ni5   Ni    Ni4+2 0.514090 0.500000 0.370170 0.185315
Ni6   Ni    Ni4+2 0.014090 0.000000 0.370170 0.185307
Ni7   Ni    Ni4+2 0.487550 0.500000 0.629830 0.202658
Ni8   Ni    Ni4+2 0.987550 0.000000 0.629830 0.202664
O1    O     O_2   0.220571 0.297155 0.642670 -0.603700
O2    O     O_2   0.620915 0.593090 0.260163 -0.594580
O3    O     O_2   0.130066 0.891636 0.274306 -0.609043
O4    O     O_2   0.120939 0.093024 0.260191 -0.594645
O5    O     O_2   0.361529 0.881889 0.666414 -0.532842
O6    O     O_2   0.720629 0.797162 0.642732 -0.603707
O7    O     O_2   0.861572 0.381855 0.666605 -0.532805
O8    O     O_2   0.296341 0.605610 0.020576 -0.595801
O9    O     O_2   0.143719 0.426816 0.892713 -0.558832
O10   O     O_2   0.796368 0.105555 0.020585 -0.595811
O11   O     O_2   0.643709 0.926812 0.892706 -0.558838
O12   O     O_2   0.630229 0.391935 0.274499 -0.608921

loop_
_geom_bond_atom_site_label_1
_geom_bond_atom_site_label_2
_ccdc_geom_bond_type
C58   C62   D    
C63   H46   S    
C99   C103  A    
C13   C79   A    
C51   H38   S    
N31   Ni4   S    
C96   H65   S    
N5    Ni7   S    
C27   H5    S    
C26   C44   S    
C97   H66   S    
C15   C81   A    
N21   Ni8   S    
N7    N16   A    
C18   C25   S    
N12   N24   A    
C57   H26   S    
C51   N30   A    
C11   O4    D    
C81   H59   S    
C22   C24   S    
C92   N17   A    
C26   H4    S    
N6    Ni7   S    
C5    C72   S    
C64   H47   S    
C76   C95   A    
C14   C36   S    
C18   H45   S    
C43   N27   A    
C22   C39   S    
C50   H37   S    
C79   N4    A    
C18   H71   S    
C100  C104  A    
C88   N13   A    
C6    O10   D    
C2    C85   A    
C43   C105  A    
C64   C71   S    
C5    O9    D    
C56   H29   S    
C19   C26   S    
C17   C39   S    
C78   N3    A    
C41   C55   S    
C54   C93   A    
N20   N30   A    
N19   N29   A    
C42   C56   S    
C89   N14   A    
C86   N11   A    
C61   C66   D    
C15   C37   S    
N24   Ni5   S    
N19   Ni7   S    
C12   C78   A    
C29   C38   S    
C70   C74   D    
N28   Ni3   S    
C33   C57   S    
C41   C46   S    
C32   C104  A    
C62   C73   S    
C69   C73   D    
C101  N26   A    
C68   C102  S    
C14   C80   A    
C31   C56   S    
C22   H74   S    
C59   H54   S    
C1    N1    A    
C49   C54   A    
C67   C71   D    
C99   N24   A    
C42   C47   S    
C95   N20   A    
C100  H69   S    
N2    N10   A    
C90   F6    S    
C81   N6    A    
C30   H8    S    
N18   N28   A    
C26   C107  S    
C57   H30   S    
C101  C105  A    
C24   C41   S    
C53   H27   S    
N16   Ni2   S    
C3    C24   S    
C17   C92   A    
C106  H75   S    
C31   H18   S    
C25   H3    S    
C16   C82   A    
C13   C42   S    
C46   H10   S    
C25   C106  S    
C7    C74   S    
C89   F5    S    
N8    N17   A    
C10   C78   S    
C40   C45   S    
C48   H43   S    
C66   C72   S    
C28   H32   S    
C107  O5    D    
C35   C55   S    
C53   H22   S    
N21   N31   A    
N1    N22   A    
C58   H53   S    
C61   H57   S    
C51   C76   A    
C4    O8    D    
C32   H23   S    
C85   F2    S    
N3    Ni6   S    
C45   H9    S    
C20   H73   S    
C6    H82   S    
C23   C40   S    
C83   H61   S    
N20   Ni8   S    
N22   Ni5   S    
N30   Ni4   S    
C67   C103  S    
N23   Ni2   S    
C8    O12   D    
C8    C75   S    
C33   C37   S    
C55   H24   S    
C29   C45   S    
C52   H39   S    
C21   C103  A    
N32   Ni5   S    
C107  H76   S    
C50   N29   A    
C35   C39   S    
C69   H51   S    
C14   C89   A    
N12   Ni1   S    
C31   H16   S    
N26   Ni6   S    
C70   H52   S    
C19   H72   S    
C20   C38   S    
C33   H19   S    
C20   C23   S    
C34   H20   S    
C44   C57   S    
C68   C72   D    
N18   Ni7   S    
C87   C96   A    
N3    N11   A    
C91   N16   A    
C21   N12   A    
C66   H48   S    
C75   N32   A    
C45   H40   S    
C9    C77   S    
C19   H56   S    
C21   H12   S    
N1    Ni1   S    
C9    O2    D    
C10   H86   S    
N13   Ni4   S    
C99   H68   S    
C93   N18   A    
C43   H34   S    
C11   C79   S    
C34   C53   S    
C20   H67   S    
C108  O6    D    
C56   H25   S    
C3    O7    D    
C35   H21   S    
C27   H31   S    
C65   C94   A    
N23   N25   A    
C82   H60   S    
C11   H87   S    
C60   C76   S    
N27   Ni2   S    
C94   N19   A    
C62   H44   S    
C48   H13   S    
C8    H84   S    
N2    Ni5   S    
C19   C37   S    
N5    N14   A    
C101  H70   S    
N9    N32   A    
C35   H15   S    
C85   N10   A    
N14   Ni1   S    
C84   N9    A    
C6    C73   S    
C61   C87   S    
C82   N7    A    
C54   C58   S    
C28   H6    S    
C27   C47   S    
N4    N13   A    
C4    H80   S    
C28   C48   S    
C69   C105  S    
C55   H28   S    
C49   H36   S    
C7    O11   D    
C34   C38   S    
C60   H55   S    
C59   C63   D    
N7    Ni8   S    
C30   C46   S    
C52   C87   A    
C22   H78   S    
C97   C102  A    
N4    Ni6   S    
N9    Ni3   S    
C25   C42   S    
C5    H81   S    
C93   H62   S    
C47   H11   S    
N11   Ni4   S    
C63   C74   S    
C27   C36   S    
N17   Ni2   S    
C24   H2    S    
C84   F1    S    
C92   F8    S    
C12   C86   A    
C23   H88   S    
C60   C64   D    
C84   C98   A    
C96   N21   A    
N15   Ni1   S    
C49   N28   A    
C86   F3    S    
N29   Ni3   S    
C80   H58   S    
N8    Ni8   S    
C2    C77   A    
C77   N2    A    
C59   C65   S    
C15   C90   A    
N25   Ni6   S    
C46   H41   S    
C67   H49   S    
C30   H35   S    
C28   C37   S    
C23   C108  S    
C29   H7    S    
C13   C88   A    
C83   N8    A    
C91   F7    S    
C30   C39   S    
N10   Ni3   S    
C70   C104  S    
C94   H63   S    
C75   C98   A    
C106  O1    D    
C7    H83   S    
N26   N27   A    
C50   C65   A    
C97   N22   A    
N6    N15   A    
C29   H33   S    
C88   F4    S    
C2    C40   S    
C95   H64   S    
C9    H85   S    
C34   H14   S    
C16   C91   A    
C90   N15   A    
C40   C53   S    
C32   N23   A    
C33   H17   S    
C31   C36   S    
C12   C44   S    
C3    H79   S    
C10   O3    D    
C100  N25   A    
C17   C83   A    
C108  H77   S    
C1    H1    S    
C18   C36   S    
C1    C102  A    
C4    C71   S    
C41   C98   S    
C44   C48   S    
C52   N31   A    
C16   C38   S    
C80   N5    A    
C47   H42   S    
C68   H50   S    
