data_mof_unit_50634.cif
_audit_creation_date              2012-12-10T17:05:46-0500
_audit_creation_method            fapswitch 2.2
_symmetry_space_group_name_H-M    P1
_symmetry_Int_Tables_number       1
_space_group_crystal_system       triclinic
_cell_length_a                    15.938628
_cell_length_b                    11.035639
_cell_length_c                    9.845482
_cell_angle_alpha                 111.340168
_cell_angle_beta                  98.343643
_cell_angle_gamma                 90.683558
_cell_volume                      1592.00040574

loop_
_atom_site_label
_atom_site_type_symbol
_atom_type_description
_atom_site_fract_x
_atom_site_fract_y
_atom_site_fract_z
_atom_type_partial_charge
C1    C     C_R   0.494029 0.254022 0.440495 0.858402
C2    C     C_2   0.502304 0.069606 0.516424 -0.134523
C3    C     C_2   0.509794 0.885501 0.593046 -0.299398
C4    C     C_R   0.340520 0.500089 0.501036 0.811930
C5    C     C_2   0.499246 0.930374 0.483526 -0.134002
C6    C     C_2   0.503852 0.516946 0.085414 0.003623
C7    C     C_2   0.491608 0.493989 0.922447 -0.101883
C8    C     C_R   0.506201 0.745971 0.559501 0.878038
C9    C     C_R   0.659432 0.500031 0.498933 0.822191
C10   C     C_3   0.058952 0.443567 0.611574 0.607007
C11   C     C_3   0.035279 0.412715 0.327951 -0.273421
C12   C     C_3   0.960578 0.458101 0.626703 0.201779
C13   C     C_3   0.933939 0.395419 0.336137 -0.243806
C14   C     C_1   0.748272 0.500671 0.496904 0.035607
C15   C     C_3   0.082761 0.500581 0.493532 -0.074983
C16   C     C_2   0.941122 0.545175 0.780785 0.932859
C17   C     C_2   0.910019 0.692410 0.394896 0.961591
C18   C     C_2   0.613459 0.629465 0.944569 1.012363
C19   C     C_2   0.058462 0.476946 0.220259 0.999157
C20   C     C_2   0.071811 0.279284 0.256999 0.961484
C21   C     C_2   0.902368 0.257015 0.325062 0.969955
C22   C     C_2   0.877545 0.399416 0.196094 0.911332
C23   C     C_3   0.915908 0.502555 0.494559 -0.226935
C24   C     C_2   0.108176 0.731253 0.693898 0.939759
C25   C     C_2   0.926898 0.760999 0.652002 0.866219
C26   C     C_3   0.953581 0.649467 0.520597 -0.294593
C27   C     C_3   0.056983 0.648866 0.539184 0.123400
C28   C     C_1   0.823384 0.501673 0.495886 0.154658
C29   C     C_1   0.176054 0.500648 0.499417 0.185427
C30   C     C_1   0.251524 0.500612 0.502347 -0.029535
C31   C     C_2   0.490968 0.114481 0.406932 -0.306216
Cu1   Cu    Cu3+1 0.514650 0.521810 0.644910 1.015395
Cu2   Cu    Cu3+1 0.485350 0.478190 0.355090 1.004676
H1    H     H_    0.488065 0.864180 0.368502 0.181945
H2    H     H_    0.851146 0.601557 0.912620 0.364835
H3    H     H_    0.916336 0.760472 0.231354 0.350968
H4    H     H_    0.722764 0.645018 0.084060 0.356381
H5    H     H_    0.136306 0.301692 0.587363 0.351303
H6    H     H_    0.152292 0.530580 0.130793 0.361733
H7    H     H_    0.063651 0.111973 0.077937 0.363232
H8    H     H_    0.926462 0.079534 0.332160 0.361373
H9    H     H_    0.849469 0.321593 0.972971 0.363665
H10   H     H_    0.221328 0.823765 0.808390 0.342197
H11   H     H_    0.082381 0.798340 0.483967 0.381361
H12   H     H_    0.513806 0.135800 0.631438 0.185698
H13   H     H_    0.938117 0.954966 0.771613 0.377337
H14   H     H_    0.521017 0.951957 0.707877 0.165966
H15   H     H_    0.479437 0.048012 0.292111 0.161092
H16   H     H_    0.439284 0.426344 0.851472 0.156271
H17   H     H_    0.546826 0.596721 0.163163 0.185675
H18   H     H_    0.422412 0.369970 0.062578 0.203051
H19   H     H_    0.864577 0.333287 0.609587 0.346438
H20   H     H_    0.109116 0.453307 0.809862 0.365137
N1    N     N_2   0.463320 0.445430 0.137380 -0.288305
N2    N     N_2   0.536720 0.554500 0.862620 -0.244280
O1    O     O_R   0.507820 0.332330 0.577400 -0.593478
O2    O     O_3   0.112496 0.506924 0.748396 -0.746815
O3    O     O_2   0.996462 0.605411 0.884053 -0.480911
O4    O     O_R   0.857051 0.545613 0.807320 -0.743444
O5    O     O_2   0.833121 0.703860 0.382364 -0.568155
O6    O     O_R   0.954626 0.732170 0.304471 -0.668265
O7    O     O_2   0.632455 0.730125 0.927874 -0.560572
O8    O     O_R   0.669929 0.583942 0.035065 -0.747546
O9    O     O_3   0.074371 0.309732 0.563544 -0.611495
O10   O     O_2   0.005507 0.514676 0.145051 -0.511754
O11   O     O_R   0.143865 0.488576 0.204353 -0.742173
O12   O     O_R   0.483070 0.295500 0.332660 -0.568665
O13   O     O_2   0.135566 0.246860 0.316625 -0.570699
O14   O     O_R   0.034029 0.195841 0.115451 -0.703712
O15   O     O_2   0.825750 0.229521 0.307679 -0.599592
O16   O     O_R   0.957418 0.163311 0.340278 -0.646896
O17   O     O_2   0.815549 0.463843 0.202681 -0.541106
O18   O     O_R   0.891400 0.314157 0.057028 -0.687278
O19   O     O_2   0.077370 0.763258 0.807180 -0.527186
O20   O     O_R   0.193315 0.771085 0.703412 -0.736096
O21   O     O_3   0.088116 0.702531 0.444803 -0.651532
O22   O     O_2   0.869199 0.745246 0.714345 -0.548259
O23   O     O_R   0.391820 0.518430 0.622420 -0.591842
O24   O     O_R   0.962063 0.887966 0.687722 -0.728183
O25   O     O_R   0.367070 0.481600 0.377680 -0.548379
O26   O     O_R   0.516930 0.704500 0.667340 -0.545720
O27   O     O_R   0.492180 0.667670 0.422600 -0.594100
O28   O     O_R   0.632930 0.518400 0.622320 -0.560368
O29   O     O_R   0.608180 0.481570 0.377580 -0.551534
O30   O     O_3   0.926956 0.333461 0.610976 -0.654877

loop_
_geom_bond_atom_site_label_1
_geom_bond_atom_site_label_2
_ccdc_geom_bond_type
C24   C27   S    
C7    N2    D    
Cu1   O26   S    
C12   C23   S    
C11   C19   S    
C26   C27   S    
C12   O30   S    
C21   O16   S    
C25   O22   D    
C17   C26   S    
H19   O30   S    
C1    O1    A    
C4    O25   A    
C10   C15   S    
H13   O24   S    
C18   O8    S    
C1    C31   S    
C13   C23   S    
C19   O11   S    
H2    O4    S    
C23   C26   S    
H11   O21   S    
C17   O6    S    
C11   C15   S    
C12   C16   S    
Cu2   O27   S    
Cu1   N2    S    
H8    O16   S    
C6    N1    D    
C22   O17   D    
H4    O8    S    
C15   C29   S    
H5    O9    S    
C2    H12   S    
H10   O20   S    
C11   C20   S    
H7    O14   S    
C8    O26   A    
C10   O2    S    
C7    H16   S    
C3    C8    S    
H20   O2    S    
C18   O7    D    
C17   O5    D    
C25   C26   S    
C2    C31   D    
C16   O4    S    
C9    C14   S    
C4    O23   A    
C29   C30   T    
C15   C27   S    
C5    H1    S    
C13   C21   S    
Cu2   O25   S    
C16   O3    D    
C23   C28   S    
C6    H17   S    
C10   C12   S    
C18   N2    S    
C9    O28   A    
C31   H15   S    
H6    O11   S    
C8    O27   A    
C20   O14   S    
C2    C5    S    
C27   O21   S    
Cu2   O12   S    
Cu2   N1    S    
Cu1   O28   S    
H9    O18   S    
C25   O24   S    
C20   O13   D    
C10   O9    S    
C3    C5    D    
C24   O20   S    
C6    C7    S    
C21   O15   D    
H18   N1    S    
Cu1   Cu2   S    
C11   C13   S    
C24   O19   D    
C3    H14   S    
C1    O12   A    
C13   C22   S    
C19   O10   D    
Cu2   O29   S    
C9    O29   A    
Cu1   O23   S    
C22   O18   S    
C14   C28   T    
Cu1   O1    S    
C4    C30   S    
H3    O6    S    
