data_mof_unit_62941.cif
_audit_creation_date              2012-10-26T17:40:04-0400
_audit_creation_method            fapswitch 2.2
_symmetry_space_group_name_H-M    P1
_symmetry_Int_Tables_number       1
_space_group_crystal_system       triclinic
_cell_length_a                    30.382429
_cell_length_b                    30.382421
_cell_length_c                    35.681821
_cell_angle_alpha                 90.000135
_cell_angle_beta                  89.999827
_cell_angle_gamma                 90.0
_cell_volume                      32937.5945499

loop_
_atom_site_label
_atom_site_type_symbol
_atom_type_description
_atom_site_fract_x
_atom_site_fract_y
_atom_site_fract_z
_atom_type_partial_charge
Br1   Br    Br    0.267136 0.499309 0.418474 -0.420097
Br2   Br    Br    0.000377 0.232864 0.918472 -0.420093
Br3   Br    Br    0.232865 0.000726 0.918473 -0.420086
Br4   Br    Br    0.999951 0.767135 0.918472 -0.420090
Br5   Br    Br    0.767136 0.000695 0.081527 -0.420086
Br6   Br    Br    0.000049 0.767136 0.081528 -0.420089
Br7   Br    Br    0.232864 0.999274 0.081526 -0.420098
Br8   Br    Br    0.999623 0.232864 0.081528 -0.420094
Br9   Br    Br    0.500212 0.732865 0.418472 -0.420092
Br10  Br    Br    0.732864 0.500688 0.418473 -0.420088
Br11  Br    Br    0.499958 0.267135 0.418472 -0.420090
Br12  Br    Br    0.267135 0.500691 0.581527 -0.420088
Br13  Br    Br    0.500042 0.267135 0.581528 -0.420090
Br14  Br    Br    0.732864 0.499311 0.581526 -0.420097
Br15  Br    Br    0.499788 0.732865 0.581528 -0.420091
Br16  Br    Br    0.767136 0.999305 0.918474 -0.420098
C1    C     C_R   0.085132 0.500000 0.500000 0.551742
C2    C     C_R   0.500000 0.866442 0.500000 0.017411
C3    C     C_R   0.999915 0.540013 0.672900 0.222847
C4    C     C_R   0.540013 0.999912 0.327100 0.222848
C5    C     C_R   0.000085 0.540012 0.327100 0.222847
C6    C     C_R   0.459988 0.000088 0.327100 0.222846
C7    C     C_R   0.999915 0.459987 0.327100 0.222847
C8    C     C_R   0.039854 0.500088 0.133704 -0.088737
C9    C     C_R   0.500084 0.960145 0.133704 -0.088741
C10   C     C_R   0.960145 0.499912 0.133704 -0.088743
C11   C     C_R   0.499916 0.039855 0.133704 -0.088740
C12   C     C_R   0.039855 0.499912 0.866296 -0.088743
C13   C     C_R   0.866442 0.500000 0.500000 0.017411
C14   C     C_R   0.500084 0.039854 0.866296 -0.088741
C15   C     C_R   0.960146 0.500088 0.866296 -0.088738
C16   C     C_R   0.499915 0.960145 0.866296 -0.088740
C17   C     C_R   0.539854 0.000087 0.633704 -0.088739
C18   C     C_R   0.000084 0.460145 0.633704 -0.088740
C19   C     C_R   0.460145 0.999912 0.633704 -0.088742
C20   C     C_R   0.999916 0.539855 0.633704 -0.088740
C21   C     C_R   0.539855 0.999913 0.366296 -0.088742
C22   C     C_R   0.000084 0.539854 0.366296 -0.088740
C23   C     C_R   0.460146 0.000088 0.366296 -0.088739
C24   C     C_R   0.500000 0.133558 0.500000 0.017410
C25   C     C_R   0.999915 0.460145 0.366296 -0.088741
C26   C     C_R   1.000000 0.500000 0.113721 -0.065905
C27   C     C_R   0.500000 0.000000 0.113721 -0.065904
C28   C     C_R   0.000000 0.500000 0.886279 -0.065905
C29   C     C_R   0.500000 1.000000 0.886279 -0.065905
C30   C     C_R   0.500000 1.000000 0.613721 -0.065904
C31   C     C_R   0.000000 0.500000 0.613721 -0.065904
C32   C     C_R   0.500000 1.000000 0.386279 -0.065905
C33   C     C_R   1.000000 0.500000 0.386279 -0.065905
C34   C     C_R   1.000000 0.500000 0.192707 0.052196
C35   C     C_R   0.633558 0.000000 0.000000 0.017411
C36   C     C_R   0.500000 0.000000 0.192707 0.052195
C37   C     C_R   0.000000 0.500000 0.807293 0.052195
C38   C     C_R   0.500000 1.000000 0.807293 0.052195
C39   C     C_R   0.500000 1.000000 0.692707 0.052195
C40   C     C_R   0.000000 0.500000 0.692707 0.052195
C41   C     C_R   0.500000 0.000000 0.307293 0.052195
C42   C     C_R   1.000000 0.500000 0.307293 0.052195
C43   C     C_1   0.999999 0.500000 0.233118 0.171672
C44   C     C_1   0.500000 0.000000 0.233118 0.171671
C45   C     C_1   0.000000 0.500000 0.766882 0.171671
C46   C     C_R   1.000000 0.366442 0.000000 0.017411
C47   C     C_1   0.499999 1.000000 0.766882 0.171671
C48   C     C_1   0.499999 1.000000 0.733118 0.171671
C49   C     C_1   0.000000 0.500000 0.733118 0.171671
C50   C     C_1   0.500000 0.000000 0.266882 0.171671
C51   C     C_1   1.000000 0.500000 0.266882 0.171671
C52   C     C_R   0.202775 0.539908 0.500057 -0.052431
C53   C     C_R   0.460093 0.797225 0.500215 -0.052431
C54   C     C_R   0.797225 0.460092 0.500056 -0.052431
C55   C     C_R   0.539907 0.202775 0.500150 -0.052431
C56   C     C_R   0.202775 0.460092 0.499943 -0.052431
C57   C     C_R   0.366442 0.000000 1.000000 0.017411
C58   C     C_R   0.460093 0.202775 0.499849 -0.052431
C59   C     C_R   0.797225 0.539908 0.499943 -0.052431
C60   C     C_R   0.539907 0.797225 0.499785 -0.052431
C61   C     C_R   0.702775 0.039908 0.000057 -0.052431
C62   C     C_R   0.960093 0.297225 0.000281 -0.052432
C63   C     C_R   0.297225 0.960092 0.000067 -0.052431
C64   C     C_R   0.039907 0.702775 0.000157 -0.052431
C65   C     C_R   0.702775 0.960092 0.999943 -0.052431
C66   C     C_R   0.960093 0.702775 0.999843 -0.052431
C67   C     C_R   0.297225 0.039908 0.999932 -0.052431
C68   C     C_R   0.000000 0.633558 1.000000 0.017410
C69   C     C_R   0.039906 0.297225 0.999719 -0.052432
C70   C     C_R   0.156912 0.539950 0.500054 -0.097517
C71   C     C_R   0.460050 0.843087 0.500212 -0.097517
C72   C     C_R   0.843088 0.460050 0.500053 -0.097517
C73   C     C_R   0.539950 0.156912 0.500149 -0.097517
C74   C     C_R   0.156912 0.460050 0.499946 -0.097517
C75   C     C_R   0.460050 0.156912 0.499851 -0.097517
C76   C     C_R   0.843088 0.539950 0.499946 -0.097517
C77   C     C_R   0.539950 0.843087 0.499788 -0.097517
C78   C     C_R   0.656912 0.039950 0.000054 -0.097517
C79   C     C_R   0.225713 0.500000 0.500000 0.083964
C80   C     C_R   0.960051 0.343088 0.000277 -0.097517
C81   C     C_R   0.343088 0.960050 0.000064 -0.097517
C82   C     C_R   0.039950 0.656912 0.000156 -0.097517
C83   C     C_R   0.656912 0.960050 0.999946 -0.097517
C84   C     C_R   0.960050 0.656912 0.999844 -0.097517
C85   C     C_R   0.343088 0.039950 0.999936 -0.097517
C86   C     C_R   0.039949 0.343088 0.999723 -0.097518
C87   C     C_R   0.500000 0.774287 0.500000 0.083964
C88   C     C_R   0.774287 0.500000 0.500000 0.083964
C89   C     C_R   0.500000 0.914868 0.500000 0.551742
C90   C     C_R   0.500000 0.225713 0.500000 0.083965
C91   C     C_R   0.725713 0.000000 0.000000 0.083963
C92   C     C_R   1.000000 0.274287 0.000000 0.083962
C93   C     C_R   0.274287 1.000000 1.000000 0.083963
C94   C     C_R   0.000000 0.725713 1.000000 0.083965
C95   C     C_R   0.297003 0.499700 0.465881 0.145240
C96   C     C_R   0.500099 0.702997 0.465880 0.145241
C97   C     C_R   0.702997 0.500299 0.465880 0.145241
C98   C     C_R   0.499977 0.297003 0.465880 0.145241
C99   C     C_R   0.297003 0.500300 0.534120 0.145241
C100  C     C_R   0.914868 0.500000 0.500000 0.551742
C101  C     C_R   0.500023 0.297003 0.534120 0.145241
C102  C     C_R   0.702997 0.499701 0.534119 0.145240
C103  C     C_R   0.499901 0.702997 0.534120 0.145241
C104  C     C_R   0.797003 0.999698 0.965881 0.145240
C105  C     C_R   0.000173 0.202997 0.965880 0.145240
C106  C     C_R   0.202997 0.000315 0.965880 0.145242
C107  C     C_R   0.999973 0.797003 0.965880 0.145241
C108  C     C_R   0.797003 0.000302 0.034119 0.145242
C109  C     C_R   0.000026 0.797003 0.034120 0.145241
C110  C     C_R   0.202997 0.999684 0.034119 0.145239
C111  C     C_R   0.500000 0.085132 0.500000 0.551742
C112  C     C_R   0.999827 0.202997 0.034120 0.145239
C113  C     C_R   0.342896 0.499706 0.466033 -0.094032
C114  C     C_R   0.500093 0.657104 0.466032 -0.094033
C115  C     C_R   0.657104 0.500293 0.466032 -0.094034
C116  C     C_R   0.499980 0.342896 0.466032 -0.094034
C117  C     C_R   0.342896 0.500294 0.533968 -0.094034
C118  C     C_R   0.500020 0.342896 0.533968 -0.094034
C119  C     C_R   0.657104 0.499707 0.533967 -0.094032
C120  C     C_R   0.499906 0.657104 0.533968 -0.094033
C121  C     C_R   0.842896 0.999705 0.966033 -0.094031
C122  C     C_R   0.585132 0.000000 0.000000 0.551742
C123  C     C_R   0.000166 0.157104 0.966032 -0.094032
C124  C     C_R   0.157104 0.000309 0.966032 -0.094035
C125  C     C_R   0.999977 0.842896 0.966032 -0.094033
C126  C     C_R   0.842896 0.000295 0.033968 -0.094035
C127  C     C_R   0.000023 0.842896 0.033968 -0.094034
C128  C     C_R   0.157104 0.999691 0.033967 -0.094030
C129  C     C_R   0.999834 0.157104 0.033968 -0.094032
C130  C     C_R   0.366195 0.500000 0.500000 -0.049531
C131  C     C_R   0.500000 0.633805 0.500000 -0.049532
C132  C     C_R   0.633805 0.500000 0.500000 -0.049532
C133  C     C_R   0.000000 0.414868 0.000000 0.551741
C134  C     C_R   0.500000 0.366195 0.500000 -0.049533
C135  C     C_R   0.866195 0.000000 0.000000 -0.049531
C136  C     C_R   0.000000 0.133805 0.000000 -0.049531
C137  C     C_R   0.133805 1.000000 1.000000 -0.049531
C138  C     C_R   0.000000 0.866195 1.000000 -0.049533
C139  C     C_R   0.273860 0.500000 0.500000 0.025125
C140  C     C_R   0.500000 0.726140 0.500000 0.025125
C141  C     C_R   0.726140 0.500000 0.500000 0.025126
C142  C     C_R   0.500000 0.273860 0.500000 0.025125
C143  C     C_R   0.773860 0.000000 0.000000 0.025125
C144  C     C_R   0.414868 0.000000 1.000000 0.551742
C145  C     C_R   1.000000 0.226140 0.000000 0.025126
C146  C     C_R   0.226140 0.000000 1.000000 0.025125
C147  C     C_R   0.000000 0.773860 1.000000 0.025125
C148  C     C_R   0.500000 0.585372 0.500000 0.553137
C149  C     C_R   0.585372 0.500000 0.500000 0.553137
C150  C     C_R   0.500000 0.414628 0.500000 0.553137
C151  C     C_R   0.414628 0.500000 0.500000 0.553137
C152  C     C_R   1.000000 0.085372 0.000000 0.553136
C153  C     C_R   0.085372 1.000000 1.000000 0.553137
C154  C     C_R   0.000000 0.914628 1.000000 0.553137
C155  C     C_R   0.000000 0.585132 1.000000 0.551742
C156  C     C_R   0.914628 0.000000 0.000000 0.553138
C157  C     C_R   1.000000 0.500000 0.427763 0.556637
C158  C     C_R   0.500000 1.000000 0.427763 0.556637
C159  C     C_R   0.000000 0.500000 0.572237 0.556638
C160  C     C_R   0.500000 0.000000 0.572237 0.556638
C161  C     C_R   0.500000 1.000000 0.927763 0.556637
C162  C     C_R   0.000000 0.500000 0.927763 0.556637
C163  C     C_R   0.500000 1.000000 0.072237 0.556638
C164  C     C_R   1.000000 0.500000 0.072237 0.556638
C165  C     C_R   0.040012 0.500089 0.172900 0.222845
C166  C     C_R   0.133558 0.500000 0.500000 0.017411
C167  C     C_R   0.500085 0.959987 0.172900 0.222847
C168  C     C_R   0.959987 0.499911 0.172900 0.222848
C169  C     C_R   0.499915 0.040013 0.172900 0.222847
C170  C     C_R   0.040013 0.499911 0.827100 0.222848
C171  C     C_R   0.500085 0.040012 0.827100 0.222847
C172  C     C_R   0.959988 0.500089 0.827100 0.222846
C173  C     C_R   0.499914 0.959987 0.827100 0.222847
C174  C     C_R   0.540012 0.000088 0.672900 0.222846
C175  C     C_R   0.000085 0.459987 0.672900 0.222847
C176  C     C_R   0.459987 0.999911 0.672900 0.222848
Cl1   Cl    Cl    0.091006 0.500203 0.196400 -0.480333
Cl2   Cl    Cl    0.000194 0.408994 0.696400 -0.480329
Cl3   Cl    Cl    0.408994 0.999798 0.696400 -0.480326
Cl4   Cl    Cl    0.999806 0.591006 0.696400 -0.480329
Cl5   Cl    Cl    0.591006 0.999798 0.303600 -0.480326
Cl6   Cl    Cl    0.000194 0.591006 0.303600 -0.480329
Cl7   Cl    Cl    0.408994 0.000202 0.303600 -0.480332
Cl8   Cl    Cl    0.999805 0.408994 0.303600 -0.480329
Cl9   Cl    Cl    0.500194 0.908994 0.196400 -0.480329
Cl10  Cl    Cl    0.908994 0.499796 0.196400 -0.480325
Cl11  Cl    Cl    0.499806 0.091006 0.196400 -0.480329
Cl12  Cl    Cl    0.091006 0.499797 0.803599 -0.480325
Cl13  Cl    Cl    0.500194 0.091006 0.803600 -0.480329
Cl14  Cl    Cl    0.908994 0.500204 0.803600 -0.480333
Cl15  Cl    Cl    0.499805 0.908994 0.803599 -0.480329
Cl16  Cl    Cl    0.591005 0.000201 0.696400 -0.480332
Cu1   Cu    Cu3+1 0.000000 0.456020 0.500000 1.021627
Cu2   Cu    Cu3+1 0.500000 0.500000 0.537190 1.030752
Cu3   Cu    Cu3+1 0.000000 0.000000 0.962810 1.030752
Cu4   Cu    Cu3+1 0.000000 1.000000 0.037190 1.030752
Cu5   Cu    Cu3+1 0.456020 0.000000 0.500000 1.021627
Cu6   Cu    Cu3+1 0.000000 0.543980 0.500000 1.021627
Cu7   Cu    Cu3+1 0.543980 0.000000 0.500000 1.021627
Cu8   Cu    Cu3+1 0.500000 0.956020 0.000000 1.021627
Cu9   Cu    Cu3+1 0.956020 0.500000 0.000000 1.021628
Cu10  Cu    Cu3+1 0.500000 0.043980 0.000000 1.021627
Cu11  Cu    Cu3+1 0.043980 0.500000 0.000000 1.021628
Cu12  Cu    Cu3+1 0.500000 0.500000 0.462810 1.030752
H1    H     H_    0.071001 0.500158 0.118940 0.184424
H2    H     H_    0.000151 0.428999 0.618940 0.184421
H3    H     H_    0.428998 0.999843 0.618940 0.184420
H4    H     H_    0.999850 0.571002 0.618940 0.184421
H5    H     H_    0.571002 0.999844 0.381060 0.184420
H6    H     H_    0.000151 0.571001 0.381060 0.184421
H7    H     H_    0.428999 0.000157 0.381060 0.184422
H8    H     H_    0.999849 0.428998 0.381060 0.184421
H9    H     H_    0.220427 0.570889 0.500102 0.146789
H10   H     H_    0.429113 0.779573 0.500382 0.146789
H11   H     H_    0.779573 0.429112 0.500100 0.146789
H12   H     H_    0.500151 0.928999 0.118940 0.184421
H13   H     H_    0.570887 0.220427 0.500267 0.146787
H14   H     H_    0.220427 0.429111 0.499899 0.146789
H15   H     H_    0.429112 0.220427 0.499733 0.146787
H16   H     H_    0.779573 0.570888 0.499899 0.146789
H17   H     H_    0.570887 0.779573 0.499618 0.146789
H18   H     H_    0.720427 0.070888 0.000101 0.146789
H19   H     H_    0.929114 0.279573 0.000499 0.146793
H20   H     H_    0.279573 0.929111 0.000119 0.146790
H21   H     H_    0.070887 0.720427 0.000279 0.146787
H22   H     H_    0.720427 0.929111 0.999899 0.146789
H23   H     H_    0.928998 0.499842 0.118940 0.184419
H24   H     H_    0.929113 0.720427 0.999720 0.146787
H25   H     H_    0.279573 0.070888 0.999880 0.146790
H26   H     H_    0.070886 0.279573 0.999501 0.146793
H27   H     H_    0.139808 0.571217 0.500100 0.149958
H28   H     H_    0.428784 0.860192 0.500382 0.149959
H29   H     H_    0.860192 0.428783 0.500098 0.149959
H30   H     H_    0.571216 0.139808 0.500267 0.149959
H31   H     H_    0.139808 0.428783 0.499901 0.149958
H32   H     H_    0.428784 0.139808 0.499733 0.149959
H33   H     H_    0.860192 0.571217 0.499902 0.149959
H34   H     H_    0.499850 0.071002 0.118940 0.184421
H35   H     H_    0.571216 0.860192 0.499619 0.149959
H36   H     H_    0.639808 0.071217 0.000099 0.149958
H37   H     H_    0.928785 0.360192 0.000499 0.149959
H38   H     H_    0.360192 0.928783 0.000117 0.149959
H39   H     H_    0.071216 0.639808 0.000279 0.149959
H40   H     H_    0.639808 0.928783 0.999901 0.149958
H41   H     H_    0.928784 0.639808 0.999720 0.149959
H42   H     H_    0.360192 0.071217 0.999883 0.149958
H43   H     H_    0.071215 0.360192 0.999502 0.149959
H44   H     H_    0.360243 0.499476 0.439520 0.181525
H45   H     H_    0.071002 0.499842 0.881060 0.184418
H46   H     H_    0.500167 0.639757 0.439518 0.181524
H47   H     H_    0.639757 0.500522 0.439519 0.181523
H48   H     H_    0.499964 0.360243 0.439518 0.181524
H49   H     H_    0.360243 0.500524 0.560481 0.181523
H50   H     H_    0.500036 0.360243 0.560482 0.181525
H51   H     H_    0.639757 0.499478 0.560480 0.181525
H52   H     H_    0.499833 0.639757 0.560482 0.181524
H53   H     H_    0.860243 0.999473 0.939520 0.181526
H54   H     H_    0.000296 0.139757 0.939518 0.181524
H55   H     H_    0.139757 0.000551 0.939519 0.181522
H56   H     H_    0.500151 0.071001 0.881060 0.184421
H57   H     H_    0.999958 0.860243 0.939518 0.181525
H58   H     H_    0.860243 0.000527 0.060480 0.181523
H59   H     H_    0.000042 0.860243 0.060482 0.181525
H60   H     H_    0.139757 0.999449 0.060480 0.181525
H61   H     H_    0.999704 0.139757 0.060482 0.181524
H62   H     H_    0.928999 0.500158 0.881060 0.184424
H63   H     H_    0.499849 0.928998 0.881060 0.184421
H64   H     H_    0.571001 0.000156 0.618940 0.184422
O1    O     O_R   0.064210 0.462880 0.500070 -0.506781
O2    O     O_R   0.962880 0.435790 0.000070 -0.506781
O3    O     O_R   0.435790 0.037120 0.000070 -0.506781
O4    O     O_R   0.037120 0.564210 0.000070 -0.506782
O5    O     O_R   0.564210 0.037120 0.999930 -0.506782
O6    O     O_R   0.962880 0.564210 0.999930 -0.506781
O7    O     O_R   0.435790 0.962880 0.999930 -0.506781
O8    O     O_R   0.037120 0.435790 0.999930 -0.506781
O9    O     O_R   0.999940 0.462880 0.445700 -0.502572
O10   O     O_R   0.462880 0.000060 0.445700 -0.502567
O11   O     O_R   0.000060 0.537120 0.445700 -0.502572
O12   O     O_R   0.462880 0.935790 0.500070 -0.506781
O13   O     O_R   0.537120 0.999940 0.445700 -0.502578
O14   O     O_R   0.999940 0.537120 0.554300 -0.502573
O15   O     O_R   0.462880 0.999940 0.554300 -0.502579
O16   O     O_R   0.000060 0.462880 0.554300 -0.502573
O17   O     O_R   0.537120 0.000060 0.554300 -0.502567
O18   O     O_R   0.499940 0.962880 0.945700 -0.502571
O19   O     O_R   0.962880 0.500060 0.945700 -0.502561
O20   O     O_R   0.500060 0.037120 0.945700 -0.502573
O21   O     O_R   0.037120 0.499940 0.945700 -0.502583
O22   O     O_R   0.499940 0.037120 0.054300 -0.502572
O23   O     O_R   0.935790 0.537120 0.500070 -0.506781
O24   O     O_R   0.962880 0.499940 0.054300 -0.502584
O25   O     O_R   0.500060 0.962880 0.054300 -0.502574
O26   O     O_R   0.037120 0.500060 0.054300 -0.502562
O27   O     O_R   0.499910 0.564360 0.468610 -0.505009
O28   O     O_R   0.564360 0.500090 0.468610 -0.505015
O29   O     O_R   0.500090 0.435640 0.468610 -0.505009
O30   O     O_R   0.435640 0.499910 0.468610 -0.505004
O31   O     O_R   0.499910 0.435640 0.531390 -0.505009
O32   O     O_R   0.564360 0.499910 0.531390 -0.505004
O33   O     O_R   0.500090 0.564360 0.531390 -0.505009
O34   O     O_R   0.537120 0.064210 0.500070 -0.506782
O35   O     O_R   0.435640 0.500090 0.531390 -0.505015
O36   O     O_R   0.999910 0.064360 0.968610 -0.505010
O37   O     O_R   0.064360 0.000090 0.968610 -0.505020
O38   O     O_R   0.000090 0.935640 0.968610 -0.505008
O39   O     O_R   0.935640 0.999910 0.968610 -0.504999
O40   O     O_R   0.999910 0.935640 0.031390 -0.505010
O41   O     O_R   0.064360 0.999910 0.031390 -0.504999
O42   O     O_R   0.000090 0.064360 0.031390 -0.505008
O43   O     O_R   0.935640 0.000090 0.031390 -0.505020
O44   O     O_R   0.064210 0.537120 0.499930 -0.506782
O45   O     O_R   0.462880 0.064210 0.499930 -0.506781
O46   O     O_R   0.935790 0.462880 0.499930 -0.506781
O47   O     O_R   0.537120 0.935790 0.499930 -0.506781
O48   O     O_R   0.564210 0.962880 0.000070 -0.506781

loop_
_geom_bond_atom_site_label_1
_geom_bond_atom_site_label_2
_ccdc_geom_bond_type
C7    C42   A    
C19   C176  A    
C38   C173  A    
C151  O35   A    
C16   C29   A    
C14   C29   A    
C152  O36   A    
C88   C141  S    
C68   C155  S    
C33   C157  S    
C148  O27   A    
C57   C144  S    
Cu11  O4    S    
C103  C140  A    
C34   C43   S    
C131  C148  S    
Cu11  O8    S    
Br2   C105  S    
C115  H47   S    
C38   C47   S    
C123  C136  A    
C116  C134  A    
C138  C154  S    
C20   C31   A    
C62   C92   A    
C154  O38   A    
Cu4   O40   S    
C13   C72   A    
Cu6   O14   S    
C1    C166  S    
C62   C80   A    
C80   H37   S    
C123  H54   S    
C20   H4    S    
C22   H6    S    
Br12  C99   S    
C76   H33   S    
C60   C87   A    
C57   C85   A    
C40   C175  A    
C132  C149  S    
C111  O45   A    
C25   C33   A    
Cu6   O23   S    
C75   H32   S    
Cu5   Cu7   S    
Cu3   O39   S    
C52   C79   A    
C73   H30   S    
C63   C93   A    
C167  Cl9   S    
C176  Cl3   S    
C6    Cl7   S    
C155  O4    A    
Cu11  O26   S    
Cu12  O29   S    
C127  C138  A    
C65   C83   A    
C12   C28   A    
C60   H17   S    
C126  C135  A    
Cu2   O35   S    
C107  C147  A    
C105  C145  A    
C162  O21   A    
C119  H51   S    
C120  H52   S    
C125  C138  A    
Br10  C97   S    
C38   C171  A    
C61   H18   S    
Cu9   O6    S    
C100  O23   A    
Cu10  O3    S    
C63   C81   A    
C34   C168  A    
Br6   C109  S    
Cu12  O27   S    
Cu1   O46   S    
C103  C120  A    
C7    C25   A    
Cu5   O45   S    
C14   C171  A    
C175  Cl2   S    
C54   C88   A    
Br7   C110  S    
C112  C129  A    
C35   C122  S    
C45   C49   T    
C87   C140  S    
C153  O41   A    
C55   C90   A    
C97   C141  A    
C95   C139  A    
Cu2   O32   S    
C16   H63   S    
C3    C40   A    
Cu3   O37   S    
C130  C151  S    
C9    H12   S    
C70   H27   S    
C160  O15   A    
C89   O12   A    
C41   C50   S    
C129  H61   S    
C9    C27   A    
C8    H1    S    
Cu8   Cu10  S    
C122  O5    A    
C19   H3    S    
Br16  C104  S    
Cu2   O33   S    
C111  O34   A    
C58   C90   A    
Cu7   O13   S    
C61   C78   A    
Cu8   O18   S    
C64   H21   S    
C11   C169  A    
C54   H11   S    
C156  O39   A    
C36   C44   S    
C43   C51   T    
C37   C45   S    
Br8   C112  S    
C5    C22   A    
C24   C73   A    
C113  H44   S    
Br9   C96   S    
C25   H8    S    
C3    Cl4   S    
C85   H42   S    
C171  Cl13  S    
C152  O42   A    
C63   H20   S    
C81   H38   S    
C32   C158  S    
C53   C87   A    
C89   O47   A    
C66   H24   S    
C1    O44   A    
C28   C162  S    
C10   H23   S    
C157  O9    A    
C7    Cl8   S    
C12   H45   S    
C100  O46   A    
C37   C170  A    
Cu10  O22   S    
C12   C170  A    
C56   C74   A    
C42   C51   S    
C67   H25   S    
C59   H16   S    
Cu8   O48   S    
Cu7   O34   S    
Cu5   O10   S    
C18   C31   A    
C10   C26   A    
C67   C85   A    
C114  C131  A    
C151  O30   A    
C163  O25   A    
C117  C130  A    
Cu4   O41   S    
C118  H50   S    
C74   H31   S    
C106  C146  A    
C144  O3    A    
C105  C123  A    
C106  C124  A    
C5    C42   A    
C4    C21   A    
C109  C127  A    
C6    C23   A    
C110  C128  A    
C161  O18   A    
Br15  C103  S    
C55   H13   S    
C24   C75   A    
C11   H34   S    
C129  C136  A    
C148  O33   A    
C84   H41   S    
C96   C140  A    
C2    C77   A    
C86   H43   S    
C96   C114  A    
C58   H15   S    
C31   C159  S    
C69   C86   A    
C72   H29   S    
C46   C86   A    
C82   H39   S    
C101  C142  A    
C164  O24   A    
C14   H56   S    
C62   H19   S    
C46   C80   A    
C8    C26   A    
C133  O2    A    
C126  H58   S    
C22   C33   A    
C157  O11   A    
Br5   C108  S    
C27   C163  S    
C107  C125  A    
C124  H55   S    
C37   C172  A    
C93   C146  S    
Cu12  O30   S    
Cu9   O24   S    
C98   C142  A    
Cu5   O12   S    
C95   C113  A    
Cu6   O11   S    
C69   C92   A    
C165  Cl1   S    
C23   H7    S    
C53   C71   A    
C124  C137  A    
C21   H5    S    
C8    C165  A    
C17   H64   S    
C44   C50   T    
C133  O8    A    
C17   C30   A    
C66   C84   A    
C101  C118  A    
Cu7   O47   S    
C136  C152  S    
Cu4   O43   S    
Cu7   O17   S    
Cu1   O1    S    
Cu9   O2    S    
C156  O43   A    
Cu12  O28   S    
C99   C117  A    
C24   C111  S    
C122  O48   A    
C161  O20   A    
Cu6   O44   S    
C162  O19   A    
C68   C84   A    
C58   C75   A    
C60   C77   A    
Cu3   Cu4   S    
C159  O16   A    
C172  Cl14  S    
C113  C130  A    
C164  O26   A    
C59   C88   A    
Cu9   O19   S    
Cu8   O7    S    
C92   C145  S    
C158  O10   A    
C64   C82   A    
Br13  C101  S    
C94   C147  S    
C77   H35   S    
Cu1   Cu6   S    
C39   C176  A    
C169  Cl11  S    
Br1   C95   S    
Cu8   O25   S    
C173  Cl15  S    
C112  C145  A    
C4    Cl5   S    
Cu10  O5    S    
C114  H46   S    
C155  O6    A    
C11   C27   A    
C137  C153  S    
C70   C166  A    
C17   C174  A    
C102  C141  A    
C104  C121  A    
C19   C30   A    
C13   C76   A    
C102  C119  A    
C150  O31   A    
C23   C32   A    
C134  C150  S    
C65   H22   S    
C46   C133  S    
C52   C70   A    
C36   C167  A    
C5    Cl6   S    
C54   C72   A    
C6    C41   A    
C71   H28   S    
C57   C81   A    
C66   C94   A    
C18   C175  A    
C3    C20   A    
C149  O32   A    
C40   C49   S    
C118  C134  A    
C108  C143  A    
C159  O14   A    
Cu2   Cu12  S    
C160  O17   A    
Cu1   O16   S    
C128  C137  A    
Br11  C98   S    
C56   C79   A    
C26   C164  S    
C74   C166  A    
C65   C91   A    
Br14  C102  S    
C15   C172  A    
C104  C143  A    
C67   C93   A    
Br3   C106  S    
C29   C161  S    
Cu2   O31   S    
Cu3   O38   S    
C108  C126  A    
C109  C147  A    
Cu11  O21   S    
C35   C83   A    
C168  Cl10  S    
C15   C28   A    
C39   C174  A    
C61   C91   A    
C15   H62   S    
Cu4   O42   S    
C90   C142  S    
C149  O28   A    
C135  C156  S    
C47   C48   T    
Br4   C107  S    
C78   H36   S    
C116  H48   S    
C1    O1    A    
C117  H49   S    
C55   C73   A    
C39   C48   S    
C127  H59   S    
C170  Cl12  S    
C115  C132  A    
C128  H60   S    
C21   C32   A    
C154  O40   A    
Cu5   O15   S    
C59   C76   A    
C174  Cl16  S    
C13   C100  S    
C69   H26   S    
C30   C160  S    
C34   C165  A    
C36   C169  A    
C163  O22   A    
C144  O7    A    
Cu10  O20   S    
C52   H9    S    
C153  O37   A    
C97   C115  A    
C99   C139  A    
C98   C116  A    
C91   C143  S    
Cu9   Cu11  S    
C150  O29   A    
C2    C71   A    
C158  O13   A    
C68   C82   A    
C2    C89   S    
C125  H57   S    
C53   H10   S    
C83   H40   S    
C121  H53   S    
C56   H14   S    
C16   C173  A    
C79   C139  S    
C120  C131  A    
C35   C78   A    
C18   H2    S    
Cu3   O36   S    
C119  C132  A    
C64   C94   A    
Cu1   O9    S    
C121  C135  A    
C4    C41   A    
C110  C146  A    
C9    C167  A    
C10   C168  A    
