data_mof_unit_46054.cif
_audit_creation_date              2012-12-10T18:12:45-0500
_audit_creation_method            fapswitch 2.2
_symmetry_space_group_name_H-M    P1
_symmetry_Int_Tables_number       1
_space_group_crystal_system       triclinic
_cell_length_a                    12.72513
_cell_length_b                    13.16503
_cell_length_c                    15.660096
_cell_angle_alpha                 94.145241
_cell_angle_beta                  102.369241
_cell_angle_gamma                 81.057775
_cell_volume                      2529.37257013

loop_
_atom_site_label
_atom_site_type_symbol
_atom_type_description
_atom_site_fract_x
_atom_site_fract_y
_atom_site_fract_z
_atom_type_partial_charge
C1    C     C_R   0.439385 0.690644 0.484779 0.914257
C2    C     C_R   0.598662 0.199181 0.509917 -0.088481
C3    C     C_R   0.303142 0.845052 0.490703 -0.286812
C4    C     C_R   0.501774 0.499548 0.661707 0.943480
C5    C     C_R   0.288814 0.943140 0.529902 0.397556
C6    C     C_R   0.378941 0.997468 0.553030 0.262740
C7    C     C_R   0.469110 0.965978 0.510934 -0.096216
C8    C     C_R   0.481140 0.866114 0.471822 0.054963
C9    C     C_R   0.547032 0.029568 0.505171 0.156909
C10   C     C_R   0.643425 0.989036 0.475404 0.151551
C11   C     C_R   0.653806 0.889948 0.438207 -0.269275
C12   C     C_3   0.503662 0.498289 0.917744 0.180036
C13   C     C_R   0.570624 0.831529 0.431781 -0.134496
C14   C     C_R   0.523603 0.135245 0.515711 -0.155867
C15   C     C_R   0.701441 0.157028 0.494910 -0.131065
C16   C     C_R   0.561171 0.309033 0.509103 0.856008
C17   C     C_R   0.404460 0.801462 0.475647 -0.222287
C18   C     C_R   0.101968 0.327346 0.387429 -0.210693
C19   C     C_R   0.783560 0.654411 0.571297 0.041659
C20   C     C_R   0.852435 0.707404 0.539632 -0.190912
C21   C     C_R   0.922633 0.652695 0.490104 -0.058761
C22   C     C_R   0.939933 0.544848 0.488313 0.055923
C23   C     C_3   0.461135 0.413264 0.014739 -0.148323
C24   C     C_R   0.852082 0.499569 0.500317 0.213687
C25   C     C_R   0.031625 0.482705 0.463157 -0.139799
C26   C     C_R   0.016632 0.384920 0.421539 0.053767
C27   C     C_R   0.915845 0.348526 0.414565 -0.032151
C28   C     C_R   0.498807 0.499111 0.338315 0.869973
C29   C     C_R   0.836479 0.405433 0.455655 -0.263510
C30   C     C_R   0.139706 0.508595 0.486840 0.493314
C31   C     C_R   0.203418 0.359445 0.404279 -0.051454
C32   C     C_3   0.436475 0.582531 0.021403 -0.163161
C33   C     C_3   0.540505 0.582303 0.985276 -0.159685
C34   C     C_3   0.497983 0.497296 0.082260 0.180320
C35   C     C_1   0.504984 0.499408 0.751409 -0.128587
C36   C     C_1   0.496137 0.497921 0.248628 -0.147881
C37   C     C_3   0.399641 0.498515 0.952063 -0.134626
C38   C     C_2   0.891671 0.248975 0.369822 0.867507
C39   C     C_3   0.565178 0.413033 0.978577 -0.150020
C40   C     C_3   0.602008 0.497059 0.047939 -0.151986
C41   C     C_1   0.505510 0.498972 0.827015 -0.040854
C42   C     C_1   0.495941 0.497318 0.173009 -0.055945
C43   C     C_R   0.722881 0.051912 0.475351 -0.167907
H1    H     H_    0.573071 0.651291 0.971015 0.154748
H2    H     H_    0.846254 0.790258 0.548066 0.164716
H3    H     H_    0.761472 0.376750 0.447881 0.211559
H4    H     H_    0.684621 0.496417 0.089424 0.151278
H5    H     H_    0.617895 0.343891 0.958831 0.154134
H6    H     H_    0.428566 0.344281 0.029006 0.156480
H7    H     H_    0.317034 0.499154 0.910569 0.169459
H8    H     H_    0.761270 0.205618 0.491272 0.169572
H9    H     H_    0.723051 0.859967 0.409264 0.149637
H10   H     H_    0.798342 0.021054 0.455411 0.148379
H11   H     H_    0.522578 0.142054 0.739444 0.379450
H12   H     H_    0.442621 0.168855 0.521487 0.202794
H13   H     H_    0.997357 0.954066 0.503734 0.374402
H14   H     H_    0.938555 0.096350 0.354812 0.356049
H15   H     H_    0.277513 0.691053 0.663351 0.385055
H16   H     H_    0.238703 0.799325 0.478946 0.270357
H17   H     H_    0.577001 0.758580 0.395246 0.164320
H18   H     H_    0.269153 0.313975 0.378802 0.155032
H19   H     H_    0.092113 0.257142 0.348360 0.193886
H20   H     H_    0.722682 0.697096 0.603867 0.156404
H21   H     H_    0.383735 0.651678 0.041111 0.153113
H22   H     H_    0.958160 0.693931 0.449283 0.181991
N1    N     N_R   0.222180 0.444680 0.455580 -0.153285
N2    N     N_R   0.776980 0.554790 0.543960 -0.135229
O1    O     O_R   0.366730 0.627160 0.478790 -0.554623
O2    O     O_2   0.347852 0.031311 0.718284 -0.216755
O3    O     O_3   0.523739 0.087291 0.692686 -0.564295
O4    O     O_2   0.156041 0.951840 0.642219 -0.229300
O5    O     O_2   0.139082 0.104816 0.556570 -0.200693
O6    O     O_3   0.063064 0.943037 0.478001 -0.554875
O7    O     O_2   0.804282 0.244805 0.319610 -0.640844
O8    O     O_R   0.965718 0.159237 0.388248 -0.752500
O9    O     O_2   0.120684 0.714218 0.527366 -0.350880
O10   O     O_2   0.101492 0.601956 0.637933 -0.288350
O11   O     O_3   0.288305 0.630874 0.622719 -0.518228
O12   O     O_R   0.544830 0.662520 0.507160 -0.635333
O13   O     O_R   0.410960 0.482330 0.609040 -0.514270
O14   O     O_R   0.589060 0.517690 0.637410 -0.617726
O15   O     O_R   0.455170 0.337480 0.492840 -0.620526
O16   O     O_R   0.633270 0.372840 0.521210 -0.637302
O17   O     O_R   0.410940 0.482310 0.362590 -0.623375
O18   O     O_R   0.589040 0.517670 0.390960 -0.626033
O19   O     O_2   0.329948 0.183078 0.632192 -0.273201
S1    S     S_3+6 0.392204 0.077543 0.650904 0.055933
S2    S     S_3+6 0.160063 0.989269 0.554706 0.108351
S3    S     S_3+6 0.164222 0.613367 0.568802 0.047110
Zn1   Zn    Zn3+2 0.381080 0.476390 0.481050 1.033026
Zn2   Zn    Zn3+2 0.618920 0.523610 0.518950 0.947488

loop_
_geom_bond_atom_site_label_1
_geom_bond_atom_site_label_2
_ccdc_geom_bond_type
C40   H4    S    
C8    C13   A    
C28   O17   A    
C31   H18   S    
C36   C42   T    
C19   C20   A    
C18   C26   A    
O18   Zn2   S    
C7    C8    A    
N1    Zn1   S    
C13   H17   S    
O10   S3    D    
C26   C27   A    
C34   C40   S    
C4    O13   A    
C5    C6    A    
C23   H6    S    
C27   C29   A    
C27   C38   S    
C1    O1    A    
C12   C37   S    
C24   C29   A    
C11   H9    S    
C24   N2    A    
C5    S2    S    
C43   H10   S    
C4    O14   A    
C19   H20   S    
C22   C25   A    
C34   C42   S    
O1    Zn1   S    
C19   N2    A    
C15   H8    S    
C2    C16   S    
C9    C10   A    
O12   Zn2   S    
C20   H2    S    
O2    S1    D    
O9    S3    D    
C14   H12   S    
C4    C35   S    
C21   C22   A    
O17   Zn1   S    
C30   S3    S    
C2    C14   A    
O3    S1    S    
C16   O15   A    
O5    S2    D    
C38   O8    S    
O11   S3    S    
C33   C40   S    
C32   H21   S    
C39   C40   S    
O19   S1    D    
C18   H19   S    
C25   C26   A    
C23   C37   S    
C16   O16   A    
C6    S1    S    
C32   C34   S    
C9    C14   A    
O6    S2    S    
C12   C41   S    
H11   O3    S    
C23   C34   S    
N2    Zn2   S    
C31   N1    A    
C32   C37   S    
C2    C15   A    
C30   N1    A    
C1    O12   A    
C22   C24   A    
C38   O7    D    
C25   C30   A    
C7    C9    A    
H13   O6    S    
C21   H22   S    
C10   C43   A    
C33   H1    S    
C3    C5    A    
C6    C7    A    
O16   Zn2   S    
C1    C17   S    
C8    C17   A    
O15   Zn1   S    
C29   H3    S    
C32   C33   S    
H14   O8    S    
C12   C39   S    
C15   C43   A    
C37   H7    S    
C11   C13   A    
C23   C39   S    
C3    C17   A    
O13   Zn1   S    
C35   C41   T    
C10   C11   A    
H15   O11   S    
O4    S2    D    
O14   Zn2   S    
C20   C21   A    
C28   C36   S    
C28   O18   A    
C18   C31   A    
C12   C33   S    
C39   H5    S    
C3    H16   S    
