data_mof_unit_39551.cif
_audit_creation_date              2012-10-26T20:33:19-0400
_audit_creation_method            fapswitch 2.2
_symmetry_space_group_name_H-M    P1
_symmetry_Int_Tables_number       1
_space_group_crystal_system       triclinic
_cell_length_a                    17.70726
_cell_length_b                    10.846357
_cell_length_c                    9.563829
_cell_angle_alpha                 89.408006
_cell_angle_beta                  90.391113
_cell_angle_gamma                 90.464082
_cell_volume                      1836.6219035

loop_
_atom_site_label
_atom_site_type_symbol
_atom_type_description
_atom_site_fract_x
_atom_site_fract_y
_atom_site_fract_z
_atom_type_partial_charge
C1    C     C_R   0.500200 0.262461 0.500536 0.558798
C2    C     C_R   0.114739 0.503560 0.493933 0.010509
C3    C     C_R   0.500562 0.061988 0.626123 0.004799
C4    C     C_R   0.355686 0.500020 0.499607 0.555970
C5    C     C_R   0.504743 0.129364 0.501025 0.037368
C6    C     C_R   0.515796 0.066050 0.375457 -0.131365
C7    C     C_R   0.514875 0.937744 0.374814 -0.135879
C8    C     C_R   0.504672 0.870955 0.499771 0.028751
C9    C     C_R   0.501690 0.934798 0.625605 -0.000764
C10   C     C_3   0.445463 0.923717 0.741061 -0.246342
C11   C     C_3   0.443602 0.063976 0.741683 -0.058679
C12   C     C_R   0.885355 0.480450 0.485364 0.016407
C13   C     C_R   0.516216 0.605602 0.073008 0.138753
C14   C     C_R   0.474469 0.400913 0.075013 0.021765
C15   C     C_R   0.473906 0.401417 0.926440 0.024324
C16   C     C_R   0.500167 0.737613 0.499577 0.550314
C17   C     C_R   0.519751 0.603567 0.926260 0.134313
C18   C     C_3   0.593177 0.674134 0.927263 -0.075063
C19   C     C_3   0.585669 0.683056 0.085183 -0.250237
C20   C     C_R   0.644417 0.498023 0.499733 0.554069
C21   C     C_R   0.847156 0.446453 0.607637 -0.121131
C22   C     C_R   0.768590 0.449842 0.611841 -0.084360
C23   C     C_1   0.966249 0.486534 0.489615 0.065988
C24   C     C_R   0.727370 0.492207 0.496037 0.004245
C25   C     C_R   0.765630 0.523387 0.372234 -0.128744
C26   C     C_R   0.844414 0.515388 0.364260 0.065841
C27   C     C_2   0.367998 0.116222 0.699046 0.581016
C28   C     C_2   0.661843 0.600958 0.890110 0.617845
C29   C     C_2   0.881626 0.540808 0.228000 0.606622
C30   C     C_2   0.117178 0.613679 0.257446 0.594603
C31   C     C_1   0.033910 0.494157 0.492358 0.059226
C32   C     C_R   0.153595 0.455704 0.609987 -0.132517
C33   C     C_R   0.232199 0.455960 0.612934 -0.115795
C34   C     C_R   0.272883 0.501461 0.498122 -0.014739
C35   C     C_R   0.234112 0.549678 0.381742 -0.122646
C36   C     C_R   0.155049 0.554056 0.379349 0.070890
Cu1   Cu    Cu3+1 0.500000 0.499980 0.640670 0.999951
Cu2   Cu    Cu3+1 0.500000 0.500020 0.359330 0.967785
H1    H     H_    0.878235 0.417504 0.700157 0.130401
H2    H     H_    0.283490 0.122895 0.556690 0.344867
H3    H     H_    0.467332 0.103145 0.839760 0.093200
H4    H     H_    0.454799 0.319647 0.130469 0.123294
H5    H     H_    0.453642 0.321113 0.871977 0.145009
H6    H     H_    0.726102 0.452315 0.935062 0.333108
H7    H     H_    0.573228 0.778194 0.117796 0.090241
H8    H     H_    0.733957 0.551910 0.280426 0.160185
H9    H     H_    0.966622 0.502447 0.096242 0.353457
H10   H     H_    0.122968 0.417180 0.698149 0.137806
H11   H     H_    0.265768 0.587583 0.294495 0.169954
H12   H     H_    0.470805 0.883962 0.837916 0.107890
H13   H     H_    0.121293 0.658157 0.052176 0.348166
H14   H     H_    0.589221 0.764981 0.872806 0.103170
H15   H     H_    0.630821 0.637967 0.148038 0.180256
H16   H     H_    0.739954 0.418362 0.704843 0.153465
H17   H     H_    0.261139 0.418322 0.703715 0.179798
H18   H     H_    0.521810 0.115045 0.276844 0.131570
H19   H     H_    0.518740 0.891697 0.275974 0.125355
H20   H     H_    0.392030 0.877924 0.707108 0.172554
N1    N     N_R   0.500470 0.500930 0.147930 -0.222219
N2    N     N_R   0.500480 0.500890 0.852020 -0.228371
O1    O     O_R   0.500000 0.319640 0.618810 -0.509710
O2    O     O_R   0.333610 0.080532 0.573534 -0.690742
O3    O     O_2   0.709126 0.646324 0.812186 -0.497937
O4    O     O_R   0.673638 0.485163 0.952127 -0.699158
O5    O     O_2   0.853089 0.612901 0.144211 -0.494114
O6    O     O_R   0.947611 0.478771 0.192697 -0.668383
O7    O     O_2   0.056736 0.665662 0.271491 -0.476878
O8    O     O_R   0.152163 0.614065 0.126755 -0.702041
O9    O     O_R   0.500010 0.319680 0.381230 -0.516659
O10   O     O_R   0.391250 0.499990 0.618840 -0.491163
O11   O     O_R   0.391260 0.500020 0.381250 -0.497691
O12   O     O_R   0.499990 0.680320 0.618770 -0.508536
O13   O     O_R   0.500000 0.680360 0.381190 -0.511581
O14   O     O_R   0.608740 0.499980 0.618750 -0.470648
O15   O     O_R   0.608750 0.500010 0.381160 -0.508596
O16   O     O_2   0.336855 0.189744 0.775062 -0.541211

loop_
_geom_bond_atom_site_label_1
_geom_bond_atom_site_label_2
_ccdc_geom_bond_type
C33   H17   S    
Cu1   O14   S    
C15   N2    A    
C35   C36   A    
C16   O12   A    
C4    O10   A    
C18   H14   S    
C7    C8    A    
C22   H16   S    
H6    O4    S    
C14   N1    A    
C12   C23   S    
C1    C5    S    
C10   H20   S    
C18   C19   S    
C5    C6    A    
H2    O2    S    
C2    C32   A    
C34   C35   A    
C20   C24   S    
C8    C9    A    
C35   H11   S    
C9    C10   S    
H9    O6    S    
C30   O7    D    
C14   H4    S    
C19   H15   S    
Cu2   O9    S    
C8    C16   S    
Cu1   O10   S    
C32   H10   S    
C33   C34   A    
Cu2   O15   S    
C4    C34   S    
C13   C19   S    
C16   O13   A    
C18   C28   S    
C24   C25   A    
C25   C26   A    
C12   C21   A    
C1    O9    A    
C29   O6    S    
C20   O15   A    
C12   C26   A    
C2    C31   S    
C23   C31   T    
Cu1   Cu2   S    
C3    C9    A    
C27   O2    S    
C21   H1    S    
C11   C27   S    
C17   C18   S    
C20   O14   A    
C29   O5    D    
C28   O4    S    
C22   C24   A    
C27   O16   D    
C10   H12   S    
C2    C36   A    
Cu2   O11   S    
C6    H18   S    
C3    C5    A    
C1    O1    A    
Cu1   O1    S    
C19   H7    S    
C6    C7    A    
C13   N1    A    
C30   C36   S    
C13   C17   A    
C32   C33   A    
C15   H5    S    
C11   H3    S    
H13   O8    S    
Cu1   N2    S    
C3    C11   S    
C10   C11   S    
C17   N2    A    
Cu2   N1    S    
C28   O3    D    
C26   C29   S    
Cu1   O12   S    
C14   C15   A    
C21   C22   A    
C25   H8    S    
C7    H19   S    
C4    O11   A    
C30   O8    S    
Cu2   O13   S    
