data_mof_unit_63409.cif
_audit_creation_date              2012-12-11T17:26:17-0500
_audit_creation_method            fapswitch 2.2
_symmetry_space_group_name_H-M    P1
_symmetry_Int_Tables_number       1
_space_group_crystal_system       triclinic
_cell_length_a                    6.947945
_cell_length_b                    18.955915
_cell_length_c                    20.734582
_cell_angle_alpha                 107.577467
_cell_angle_beta                  90.254269
_cell_angle_gamma                 90.541013
_cell_volume                      2603.1444942

loop_
_atom_site_label
_atom_site_type_symbol
_atom_type_description
_atom_site_fract_x
_atom_site_fract_y
_atom_site_fract_z
_atom_type_partial_charge
O1    O     O_R   0.505770 0.444240 0.557370 -0.531890
O2    O     O_R   0.169820 0.415250 0.421330 -0.535029
O3    O     O_R   0.005590 0.555760 0.442630 -0.534385
C1    C     C_R   0.338711 0.393621 0.395298 0.718903
O4    O     O_R   0.175660 0.435500 0.555540 -0.539190
O5    O     O_R   0.011460 0.576150 0.577800 -0.532915
C2    C     C_R   0.344517 0.421142 0.575616 0.724923
O6    O     O_R   0.499890 0.423850 0.422200 -0.533217
O7    O     O_3   0.341200 0.546120 0.507150 -0.366053
V1    V     V_3+5 0.063980 0.491440 0.498670 1.428836
O8    O     O_R   0.682100 0.584750 0.578670 -0.535642
C3    C     C_R   0.852037 0.606220 0.604613 0.723153
O9    O     O_R   0.676270 0.564500 0.444460 -0.536828
C4    C     C_R   0.845091 0.578863 0.424372 0.726298
V2    V     V_3+5 0.564720 0.508560 0.501330 1.435009
O10   O     O_3   0.837360 0.453880 0.492850 -0.366977
H1    H     H_    0.118328 0.648473 0.239630 0.129638
C5    C     C_R   0.026785 0.735292 0.199782 -0.234382
H2    H     H_    0.137696 0.723576 0.161551 0.135154
C6    C     C_R   0.896758 0.792918 0.204613 0.089501
C7    C     C_R   0.753116 0.807095 0.255006 0.308381
C8    C     C_R   0.745024 0.764197 0.300052 -0.222199
H3    H     H_    0.635693 0.775451 0.338854 0.121682
C9    C     C_R   0.875383 0.706660 0.294869 0.095814
C10   C     C_R   0.016137 0.692543 0.244420 -0.146432
C11   C     C_1   0.914198 0.837732 0.158641 -0.010914
C12   C     C_1   0.864267 0.662012 0.341018 -0.036011
C13   C     C_1   0.855215 0.624403 0.379237 -0.189500
C14   C     C_1   0.926202 0.875443 0.120605 -0.190445
C15   C     C_1   0.916323 0.831587 0.833108 -0.196231
C16   C     C_1   0.900960 0.780139 0.780845 0.006658
C17   C     C_1   0.881446 0.719748 0.719229 0.007430
C18   C     C_1   0.866089 0.668315 0.666956 -0.194134
C19   C     C_1   0.352940 0.331274 0.332789 -0.195383
C20   C     C_1   0.375708 0.280038 0.280680 0.009637
C21   C     C_1   0.406768 0.219982 0.219307 0.011246
C22   C     C_1   0.429531 0.168750 0.167195 -0.190425
C23   C     C_R   0.542026 0.267074 0.802186 0.297684
C24   C     C_R   0.410805 0.208060 0.795803 0.067541
C25   C     C_R   0.270882 0.192130 0.744369 -0.233763
H4    H     H_    0.170078 0.146690 0.738841 0.148517
C26   C     C_R   0.259400 0.234242 0.699444 -0.244748
H5    H     H_    0.149649 0.220625 0.660205 0.144247
C27   C     C_R   0.385933 0.293897 0.705395 0.068375
C28   C     C_R   0.528321 0.310943 0.756937 0.206842
C29   C     C_1   0.420768 0.162650 0.841476 0.050471
C30   C     C_1   0.366964 0.338171 0.658990 0.017266
C31   C     C_1   0.354609 0.375618 0.620739 -0.193144
C32   C     C_1   0.429094 0.124685 0.879401 -0.179225
O11   O     O_R   0.282550 0.076220 0.077760 -0.532972
O12   O     O_R   0.606940 0.064510 0.944450 -0.532548
O13   O     O_R   0.770980 0.923830 0.922210 -0.533677
C33   C     C_R   0.438182 0.078898 0.924347 0.724354
O14   O     O_R   0.612630 0.084760 0.078660 -0.533882
O15   O     O_R   0.776710 0.944230 0.057380 -0.535218
C34   C     C_R   0.443743 0.106407 0.104685 0.721579
O16   O     O_R   0.276820 0.055820 0.942590 -0.534457
O17   O     O_3   0.441200 0.953910 0.992830 -0.369027
V3    V     V_3+5 0.718480 0.008550 0.001330 1.442473
O18   O     O_R   0.106020 0.935440 0.055580 -0.539622
C35   C     C_R   0.937114 0.921103 0.075634 0.723007
O19   O     O_R   0.100330 0.915180 0.921370 -0.536802
C36   C     C_R   0.930389 0.893711 0.895430 0.719813
V4    V     V_3+5 0.217720 0.991360 0.998720 1.430246
O20   O     O_3   0.945130 0.046090 0.007170 -0.363085
N1    N     N_2   0.620263 0.865766 0.262294 -0.524226
H6    H     H_    0.564113 0.887521 0.310110 0.252967
C37   C     C_3   0.478968 0.856057 0.208524 -0.519194
H7    H     H_    0.332353 0.851904 0.228287 0.191009
H8    H     H_    0.504608 0.805338 0.165540 0.190910
H9    H     H_    0.484718 0.904755 0.189400 0.207272
N2    N     N_2   0.650102 0.373863 0.764381 -0.525056
H10   H     H_    0.675103 0.405943 0.813591 0.258391
C38   C     C_3   0.821648 0.359368 0.723390 -0.545967
H11   H     H_    0.917401 0.321366 0.739775 0.194453
H12   H     H_    0.900649 0.412112 0.729061 0.203536
H13   H     H_    0.783470 0.334389 0.669115 0.209247
O21   O     O_3   0.680709 0.279584 0.852565 -0.644825
H14   H     H_    0.782465 0.312820 0.844895 0.297158

loop_
_geom_bond_atom_site_label_1
_geom_bond_atom_site_label_2
_ccdc_geom_bond_type
N1    C37   S    
O15   V3    S    
C7    N1    S    
O11   V4    S    
C20   C21   S    
C9    C12   S    
C1    O6    A    
C29   C32   T    
C38   H12   S    
C21   C22   T    
C5    H2    S    
O5    C3    A    
C23   C24   A    
V2    O10   S    
C19   C20   T    
C23   C28   A    
O19   V4    S    
C22   C34   S    
O8    V2    S    
C16   C17   S    
C37   H7    S    
C38   H13   S    
O1    V2    S    
O7    V1    S    
C27   C30   S    
C25   C26   A    
N1    H6    S    
C14   C35   S    
C7    C8    A    
C28   N2    S    
C5    C10   A    
C26   C27   A    
C1    C19   S    
O14   V3    S    
O17   V4    S    
O14   C34   A    
C38   H11   S    
C9    C10   A    
N2    C38   S    
C24   C25   A    
O4    C2    A    
C33   O16   A    
O21   H14   S    
C23   O21   S    
O17   V3    S    
O11   C34   A    
C17   C18   T    
O18   C35   A    
O12   C33   A    
O2    C1    A    
O19   C36   A    
O13   V3    S    
C30   C31   T    
O3    C4    A    
C24   C29   S    
C25   H4    S    
O6    V2    S    
O9    V2    S    
C8    C9    A    
O12   V3    S    
C26   H5    S    
O2    V1    S    
C27   C28   A    
O16   V4    S    
O1    C2    A    
N2    H10   S    
O13   C36   A    
O5    V1    S    
O8    C3    A    
O18   V4    S    
H1    C10   S    
C2    C31   S    
O7    V2    S    
O4    V1    S    
O3    V1    S    
V1    O10   S    
V3    O20   S    
C15   C16   T    
C6    C11   S    
C37   H9    S    
C32   C33   S    
O15   C35   A    
V4    O20   S    
C15   C36   S    
C5    C6    A    
C6    C7    A    
C11   C14   T    
C37   H8    S    
C12   C13   T    
C8    H3    S    
C4    C13   S    
C3    C18   S    
O9    C4    A    
