data_mof_unit_66398.cif
_audit_creation_date              2012-12-10T16:56:12-0500
_audit_creation_method            fapswitch 2.2
_symmetry_space_group_name_H-M    P1
_symmetry_Int_Tables_number       1
_space_group_crystal_system       triclinic
_cell_length_a                    9.730317
_cell_length_b                    10.939288
_cell_length_c                    13.883697
_cell_angle_alpha                 90.104564
_cell_angle_beta                  84.893797
_cell_angle_gamma                 90.253266
_cell_volume                      1471.9380303

loop_
_atom_site_label
_atom_site_type_symbol
_atom_type_description
_atom_site_fract_x
_atom_site_fract_y
_atom_site_fract_z
_atom_type_partial_charge
C1    C     C_R   0.500282 0.734516 0.498895 0.843376
C2    C     C_1   0.464305 0.500020 0.786067 -0.168108
C3    C     C_2   0.612671 0.067432 0.498667 -0.149571
C4    C     C_2   0.496399 0.133426 0.505784 -0.310889
C5    C     C_2   0.612449 0.933490 0.502890 -0.154752
C6    C     C_2   0.498694 0.866467 0.494148 -0.313026
C7    C     C_2   0.068678 0.568360 0.556146 -0.092872
C8    C     C_2   0.913835 0.552798 0.566635 -0.079520
C9    C     C_R   0.477672 0.499991 0.682874 0.813125
C10   C     C_R   0.499548 0.265454 0.501105 0.849166
C11   C     C_R   0.522329 0.499962 0.317121 0.819049
C12   C     C_1   0.535707 0.499952 0.213922 -0.160656
C13   C     C_2   0.556971 0.499937 0.023377 -0.158631
C14   C     C_2   0.443060 0.500065 0.976608 -0.157132
C15   C     C_1   0.453714 0.500044 0.872936 0.007227
C16   C     C_1   0.546310 0.499945 0.127051 0.010792
Cu1   Cu    Cu3+1 0.361370 0.499980 0.499980 0.959048
Cu2   Cu    Cu3+1 0.638630 0.500020 0.500020 0.954255
H1    H     H_    0.341335 0.500177 0.015880 0.159139
H2    H     H_    0.898600 0.488582 0.434020 0.210330
H3    H     H_    0.658696 0.499824 0.984103 0.157456
H4    H     H_    0.712753 0.112503 0.490898 0.181024
H5    H     H_    0.710230 0.889343 0.512033 0.170880
H6    H     H_    0.400770 0.906954 0.481352 0.151926
H7    H     H_    0.111715 0.640333 0.598280 0.150486
H8    H     H_    0.856747 0.590305 0.630471 0.158310
N1    N     N_2   0.152970 0.501340 0.501040 -0.236623
N2    N     N_2   0.846830 0.501370 0.501060 -0.278124
O1    O     O_R   0.382960 0.678040 0.499980 -0.583788
O2    O     O_R   0.617100 0.678080 0.500020 -0.574353
O3    O     O_R   0.366380 0.499950 0.637830 -0.577606
O4    O     O_R   0.600520 0.499990 0.637860 -0.573964
O5    O     O_R   0.382900 0.321920 0.499980 -0.585778
O6    O     O_R   0.617040 0.321960 0.500020 -0.564548
O7    O     O_R   0.399480 0.500010 0.362140 -0.573307
O8    O     O_R   0.633620 0.500050 0.362170 -0.575386
H9    H     H_    0.395081 0.092144 0.517344 0.153908
C17   C     C_1   0.107227 0.386803 0.472914 0.466989
N3    N     N_1   0.069973 0.291449 0.449577 -0.347855

loop_
_geom_bond_atom_site_label_1
_geom_bond_atom_site_label_2
_ccdc_geom_bond_type
C11   C12   S    
Cu2   N2    S    
Cu2   O2    S    
Cu1   O1    S    
C7    H7    S    
C6    H6    S    
C1    O1    A    
Cu1   Cu2   S    
C13   H3    S    
C7    C8    S    
C10   O6    A    
C13   C14   D    
C2    C15   T    
Cu2   O6    S    
C5    C6    D    
Cu1   O5    S    
Cu1   O3    S    
C11   O7    A    
C11   O8    A    
C10   O5    A    
C17   N3    T    
C8    N2    D    
Cu2   O4    S    
C8    H8    S    
N1    C17   S    
C4    C10   S    
C1    C6    S    
Cu1   N1    S    
C12   C16   T    
C7    N1    D    
C4    H9    S    
C13   C16   S    
C9    O3    A    
C14   C15   S    
C1    O2    A    
C3    H4    S    
Cu1   O7    S    
H2    N2    S    
C9    O4    A    
C2    C9    S    
Cu2   O8    S    
C14   H1    S    
C3    C4    D    
C3    C5    S    
C5    H5    S    
