data_mof_unit_64349.cif
_audit_creation_date              2012-12-10T16:35:49-0500
_audit_creation_method            fapswitch 2.2
_symmetry_space_group_name_H-M    P1
_symmetry_Int_Tables_number       1
_space_group_crystal_system       triclinic
_cell_length_a                    14.269189
_cell_length_b                    16.450251
_cell_length_c                    13.146093
_cell_angle_alpha                 89.99998
_cell_angle_beta                  107.094271
_cell_angle_gamma                 90.0
_cell_volume                      2949.48185453

loop_
_atom_site_label
_atom_site_type_symbol
_atom_type_description
_atom_site_fract_x
_atom_site_fract_y
_atom_site_fract_z
_atom_type_partial_charge
C1    C     C_R   0.315747 0.844189 0.477097 0.495981
C2    C     C_R   0.685255 0.843692 0.522880 0.526085
C3    C     C_R   0.185255 0.656308 0.522880 0.526085
C4    C     C_R   0.185255 0.343692 0.522880 0.526874
C5    C     C_R   0.546885 0.000207 0.785467 0.513079
C6    C     C_R   0.046885 0.499793 0.785467 0.513079
C7    C     C_R   0.452823 0.999969 0.215115 0.510394
C8    C     C_R   0.952823 0.500031 0.215115 0.510394
C9    C     C_2   0.431624 0.999690 0.099867 0.130350
C10   C     C_2   0.931623 0.500310 0.099867 0.130350
C11   C     C_2   0.506863 0.002713 0.058300 -0.097273
C12   C     C_R   0.315747 0.155811 0.477098 0.496716
C13   C     C_2   0.006863 0.497292 0.058300 -0.097272
C14   C     C_2   0.565857 0.000944 0.901230 -0.116907
C15   C     C_2   0.065857 0.499058 0.901230 -0.116907
C16   C     C_2   0.490881 0.002736 0.942847 -0.136283
C17   C     C_2   0.990881 0.497268 0.942847 -0.136282
C18   C     C_2   0.757967 0.219795 0.530457 -0.063055
C19   C     C_2   0.757965 0.780202 0.530460 -0.064653
C20   C     C_2   0.257965 0.719797 0.530460 -0.064652
C21   C     C_2   0.257965 0.280203 0.530460 -0.063055
C22   C     C_R   0.815747 0.344189 0.477098 0.496716
C23   C     C_R   0.815747 0.655811 0.477097 0.495981
C24   C     C_2   0.240571 0.784019 0.464297 0.098532
C25   C     C_2   0.240571 0.215981 0.464298 0.098405
C26   C     C_2   0.740571 0.284020 0.464299 0.098406
C27   C     C_2   0.740571 0.715981 0.464297 0.098533
C28   C     C_R   0.685255 0.156307 0.522879 0.526874
H1    H     H_    0.416115 0.003995 0.890547 0.194881
H2    H     H_    0.827933 0.785711 0.591928 0.073380
H3    H     H_    0.284403 0.999429 0.080994 0.227779
H4    H     H_    0.320992 0.937326 0.999164 0.227107
H5    H     H_    0.784402 0.500558 0.080994 0.227779
H6    H     H_    0.820983 0.562664 0.999162 0.227104
H7    H     H_    0.620065 0.350790 0.393579 0.227272
H8    H     H_    0.666767 0.299016 0.308683 0.229697
H9    H     H_    0.666788 0.700997 0.308674 0.226666
H10   H     H_    0.620066 0.649219 0.393550 0.226937
H11   H     H_    0.166788 0.799003 0.308675 0.226666
H12   H     H_    0.916115 0.496008 0.890547 0.194880
H13   H     H_    0.120067 0.850781 0.393551 0.226937
H14   H     H_    0.166787 0.200998 0.308675 0.229701
H15   H     H_    0.120066 0.149219 0.393550 0.227270
H16   H     H_    0.581652 0.004959 0.110931 0.103790
H17   H     H_    0.081653 0.495050 0.110931 0.103790
H18   H     H_    0.641094 0.999874 0.952451 0.112833
H19   H     H_    0.141093 0.500128 0.952451 0.112832
H20   H     H_    0.327933 0.714288 0.591927 0.073379
H21   H     H_    0.327934 0.285712 0.591928 0.076012
H22   H     H_    0.827939 0.214282 0.591918 0.076012
N1    N     N_3   0.331591 0.995203 0.033555 -0.631709
N2    N     N_3   0.831590 0.504788 0.033555 -0.631707
N3    N     N_3   0.650289 0.295153 0.380953 -0.579339
N4    N     N_3   0.650297 0.704856 0.380937 -0.581058
N5    N     N_3   0.150297 0.795144 0.380938 -0.581058
N6    N     N_3   0.150297 0.204856 0.380938 -0.579340
O1    O     O_3   0.500010 0.000000 0.500000 -0.452311
O2    O     O_R   0.103010 0.337110 0.452470 -0.492071
O3    O     O_R   0.316670 0.095240 0.537470 -0.540978
O4    O     O_R   0.316670 0.904760 0.537470 -0.542419
O5    O     O_R   0.816670 0.595240 0.537470 -0.542419
O6    O     O_R   0.816670 0.404760 0.537470 -0.540979
O7    O     O_R   0.703490 0.904800 0.585920 -0.547756
O8    O     O_R   0.703490 0.095200 0.585920 -0.546571
O9    O     O_R   0.203490 0.404800 0.585920 -0.546571
O10   O     O_R   0.203490 0.595200 0.585920 -0.547756
O11   O     O_R   0.458050 0.000000 0.725250 -0.540612
O12   O     O_3   0.000010 0.500000 0.500000 -0.452311
O13   O     O_R   0.958050 0.500000 0.725250 -0.540612
O14   O     O_R   0.461630 0.932310 0.264690 -0.543095
O15   O     O_R   0.461630 0.067690 0.264690 -0.531454
O16   O     O_R   0.961630 0.432310 0.264690 -0.531451
O17   O     O_R   0.961630 0.567690 0.264690 -0.543096
O18   O     O_R   0.618750 1.000000 0.745380 -0.534053
O19   O     O_R   0.118750 0.500000 0.745380 -0.534054
O20   O     O_R   0.376880 0.837120 0.424150 -0.540216
O21   O     O_R   0.376880 0.162880 0.424150 -0.538779
O22   O     O_R   0.876880 0.337120 0.424150 -0.538779
O23   O     O_R   0.876880 0.662880 0.424150 -0.540215
O24   O     O_R   0.603010 0.162890 0.452470 -0.492071
O25   O     O_R   0.603010 0.837110 0.452470 -0.492007
O26   O     O_R   0.103010 0.662890 0.452470 -0.492007
Zn1   Zn    Zn3+2 0.485630 0.096680 0.411850 0.958078
Zn2   Zn    Zn3+2 0.485630 0.903320 0.411850 0.950858
Zn3   Zn    Zn3+2 0.985630 0.596680 0.411850 0.950858
Zn4   Zn    Zn3+2 0.985630 0.403320 0.411850 0.958079
Zn5   Zn    Zn3+2 0.399590 0.000000 0.573760 0.935787
Zn6   Zn    Zn3+2 0.899590 0.500000 0.573760 0.935786
Zn7   Zn    Zn3+2 0.629190 0.000000 0.602520 0.945106
Zn8   Zn    Zn3+2 0.129190 0.500000 0.602520 0.945106

loop_
_geom_bond_atom_site_label_1
_geom_bond_atom_site_label_2
_ccdc_geom_bond_type
C6    O13   A    
H7    N3    S    
O12   Zn4   S    
C9    N1    S    
C25   N6    S    
C15   H19   S    
C5    O11   A    
C10   N2    S    
O20   Zn2   S    
C7    O14   A    
C21   H21   S    
C27   N4    S    
C6    O19   A    
O10   Zn8   S    
H5    N2    S    
O1    Zn7   S    
O18   Zn7   S    
C7    O15   A    
C4    O9    A    
O21   Zn1   S    
C7    C9    S    
C5    O18   A    
H13   N5    S    
H8    N3    S    
O19   Zn8   S    
H14   N6    S    
C6    C15   S    
C12   O3    A    
H11   N5    S    
C20   C24   D    
C18   C26   D    
O12   Zn8   S    
O1    Zn1   S    
C23   C27   S    
C19   C27   D    
O22   Zn4   S    
O12   Zn3   S    
O8    Zn7   S    
O24   Zn1   S    
O2    Zn4   S    
O4    Zn5   S    
O15   Zn1   S    
O9    Zn8   S    
C8    O16   A    
C3    C20   S    
C18   C28   S    
C22   O22   A    
C14   H18   S    
C1    O4    A    
C16   H1    S    
O6    Zn6   S    
O1    Zn5   S    
C24   N5    S    
C17   H12   S    
H4    N1    S    
O5    Zn6   S    
C22   O6    A    
C11   C16   S    
H10   N4    S    
C12   O21   A    
O7    Zn7   S    
C3    O26   A    
O1    Zn2   S    
C11   H16   S    
C9    C11   D    
O17   Zn3   S    
C5    C14   S    
C20   H20   S    
O13   Zn6   S    
H9    N4    S    
C28   O8    A    
O12   Zn6   S    
C14   C16   D    
C3    O10   A    
C26   N3    S    
O23   Zn3   S    
O25   Zn2   S    
O14   Zn2   S    
C2    O7    A    
C18   H22   S    
C15   C17   D    
C21   C25   D    
C2    C19   S    
C1    O20   A    
H6    N2    S    
H3    N1    S    
C10   C13   D    
O16   Zn4   S    
O26   Zn3   S    
O11   Zn5   S    
C13   C17   S    
C12   C25   S    
C13   H17   S    
C4    C21   S    
C8    O17   A    
C28   O24   A    
O3    Zn5   S    
H15   N6    S    
C23   O5    A    
C1    C24   S    
C8    C10   S    
C22   C26   S    
C4    O2    A    
C2    O25   A    
C23   O23   A    
C19   H2    S    
