data_mof_unit_17787.cif
_audit_creation_date              2013-03-05T15:49:18-0500
_audit_creation_method            fapswitch 2.2
_symmetry_space_group_name_H-M    P1
_symmetry_Int_Tables_number       1
_space_group_crystal_system       triclinic
_cell_length_a                    10.697326
_cell_length_b                    12.105392
_cell_length_c                    12.94425
_cell_angle_alpha                 93.473726
_cell_angle_beta                  89.813033
_cell_angle_gamma                 90.240916
_cell_volume                      1673.11772691

loop_
_atom_site_label
_atom_site_type_symbol
_atom_site_description
_atom_site_fract_x
_atom_site_fract_y
_atom_site_fract_z
_atom_type_partial_charge
O1    O     O_R   0.506170 0.421690 0.658830 -0.568460
O2    O     O_R   0.491330 0.609320 0.646410 -0.602384
C1    C     C_R   0.496994 0.522136 0.700697 0.930903
O3    O     O_R   0.690660 0.406170 0.506210 -0.593743
O4    O     O_R   0.675810 0.593790 0.493790 -0.597878
C2    C     C_R   0.740033 0.502756 0.491913 0.908297
Zn1   Zn    Zn3+2 0.509910 0.374720 0.508290 1.113988
Zn2   Zn    Zn3+2 0.490090 0.625280 0.491710 1.091697
O5    O     O_R   0.508670 0.390680 0.353590 -0.553164
O6    O     O_R   0.493830 0.578310 0.341170 -0.574267
O7    O     O_R   0.324190 0.406210 0.506210 -0.576244
O8    O     O_R   0.309340 0.593830 0.493790 -0.567807
C3    C     C_R   0.510509 0.478124 0.299841 0.981543
C4    C     C_R   0.260024 0.497572 0.511869 0.925541
H1    H     H_    0.884607 0.672020 0.560659 0.224309
C5    C     C_R   0.891786 0.327581 0.386495 0.194397
C6    C     C_R   0.921903 0.217854 0.403697 0.181658
C7    C     C_R   0.004961 0.197879 0.483720 0.274130
C8    C     C_R   0.079698 0.286030 0.526410 0.291574
C9    C     C_R   0.055209 0.396153 0.500247 -0.102836
C10   C     C_R   0.942082 0.413550 0.451378 -0.048903
C11   C     C_R   0.874850 0.509430 0.482519 -0.070973
C12   C     C_R   0.935468 0.598782 0.534094 -0.150119
C13   C     C_R   0.061531 0.592333 0.555827 0.306384
C14   C     C_R   0.125393 0.492028 0.532056 -0.134830
C15   C     C_R   0.533664 0.464141 0.188425 -0.268101
C16   C     C_R   0.503913 0.536739 0.813201 -0.181989
C17   C     C_R   0.552744 0.650601 0.968344 0.369196
C18   C     C_R   0.536658 0.639007 0.861493 -0.219744
C19   C     C_R   0.484380 0.446082 0.872806 0.323973
C20   C     C_R   0.523000 0.450609 0.975167 -0.158618
C21   C     C_R   0.550700 0.554691 0.026742 -0.071193
C22   C     C_R   0.569440 0.557250 0.134343 0.296536
C23   C     C_R   0.528739 0.358926 0.134777 0.234782
C24   C     C_R   0.530841 0.352665 0.027768 0.266476
H2    H     H_    0.544130 0.711455 0.816837 0.240673
N1    N     N_R   0.523130 0.207800 0.519340 -0.216797
N2    N     N_R   0.476870 0.792180 0.480660 -0.200306
C25   C     C_R   0.412800 0.944638 0.384703 0.257273
C26   C     C_R   0.409246 0.831934 0.402313 0.336261
C27   C     C_R   0.548706 0.861130 0.544447 0.377973
C28   C     C_R   0.541982 0.978198 0.538828 -0.191852
C29   C     C_R   0.469298 0.020032 0.459138 -0.185972
C30   C     C_R   0.449774 0.135998 0.459070 0.436729
C31   C     C_R   0.603418 0.168486 0.589813 0.309573
C32   C     C_R   0.605527 0.055180 0.607821 0.204248
N3    N     N_R   0.556665 0.248324 0.973198 0.268638
O9    O     O_R   0.474480 0.168637 0.972724 -0.213065
O10   O     O_R   0.672021 0.224374 0.949378 -0.210289
Br1   Br    Br    0.367249 0.332781 0.828144 -0.261703
N4    N     N_R   0.335707 0.173937 0.415250 0.225197
O11   O     O_R   0.235397 0.114460 0.422723 -0.363623
O12   O     O_R   0.332882 0.255569 0.355209 -0.316098
N5    N     N_R   0.677647 0.243689 0.653121 0.257571
O13   O     O_R   0.794130 0.258503 0.628720 -0.368670
O14   O     O_R   0.642922 0.267898 0.747873 -0.286670
Br2   Br    Br    0.354714 0.987008 0.251097 -0.106149
N6    N     N_R   0.659779 0.023327 0.702543 0.262338
O15   O     O_R   0.778252 0.039603 0.720373 -0.212161
O16   O     O_R   0.587050 0.995631 0.777580 -0.244005
N7    N     N_R   0.333696 0.758711 0.337745 0.250876
O17   O     O_R   0.216872 0.745251 0.362493 -0.295498
O18   O     O_R   0.368880 0.732756 0.243078 -0.311947
Br3   Br    Br    0.668668 0.794202 0.630945 -0.357888
Br4   Br    Br    0.809083 0.364072 0.262985 -0.348101
N8    N     N_R   0.862454 0.127825 0.345851 0.262829
O19   O     O_R   0.741220 0.121937 0.341785 -0.328739
O20   O     O_R   0.928752 0.046559 0.304834 -0.223496
Br5   Br    Br    0.006410 0.052693 0.538643 -0.150556
Br6   Br    Br    0.185508 0.256312 0.638857 -0.263197
Br7   Br    Br    0.137023 0.718611 0.629251 -0.300553
Br8   Br    Br    0.678409 0.666302 0.203995 -0.278279
Br9   Br    Br    0.536532 0.219675 0.199547 -0.165134
Br10  Br    Br    0.556961 0.801453 0.024546 -0.163562

loop_
_geom_bond_atom_site_label_1
_geom_bond_atom_site_label_2
_geom_bond_distance
_ccdc_geom_bond_type
O4    Zn2   2.025094 S    
N8    O20   1.301062 A    
C29   C30   1.420189 A    
C5    C10   1.403643 A    
C16   C18   1.396451 A    
C27   C28   1.425549 A    
C15   C22   1.413218 A    
C20   C21   1.420280 A    
C8    C9    1.420794 A    
C22   Br8   1.940124 S    
C19   C20   1.387033 A    
Zn2   O8    1.969507 S    
C24   N3    1.436737 S    
C21   C22   1.406272 A    
N1    C30   1.376947 A    
H1    C12   1.079888 S    
C6    C7    1.399655 A    
C19   Br1   1.918219 S    
C17   Br10  1.924727 S    
N3    O10   1.300603 A    
O1    Zn1   1.996863 S    
C31   C32   1.405422 A    
C13   C14   1.412822 A    
C16   C19   1.393894 A    
Zn1   O7    2.025094 S    
C18   H2    1.081761 S    
C6    N8    1.432217 S    
O4    C2    1.300002 A    
Zn2   N2    2.039605 S    
C7    Br5   1.935533 S    
O3    Zn1   1.969510 S    
C30   N4    1.436098 S    
C1    C16   1.458380 S    
C17   C18   1.392877 A    
N2    C26   1.360235 A    
O8    C4    1.310701 A    
C31   N5    1.427791 S    
O2    C1    1.304612 A    
N5    O14   1.297123 A    
C11   C12   1.394833 A    
C4    C14   1.464851 S    
Zn1   N1    2.039845 S    
N7    O17   1.301127 A    
Zn2   O6    1.996864 S    
O7    C4    1.302276 A    
C20   C24   1.405504 A    
C3    C15   1.462319 S    
C28   C29   1.413115 A    
C23   Br9   1.929839 S    
N6    O16   1.301322 A    
N4    O11   1.296326 A    
C25   Br2   1.938373 S    
C28   C32   1.423330 A    
C17   C21   1.423346 A    
N8    O19   1.299595 A    
C9    C10   1.390058 A    
N2    C27   1.372646 A    
O3    C2    1.304089 A    
C23   C24   1.382740 A    
C9    C14   1.420206 A    
O2    Zn2   2.023484 S    
C25   C26   1.397142 A    
Zn1   O5    2.023483 S    
O5    C3    1.301515 A    
N5    O13   1.298841 A    
C7    C8    1.416862 A    
C8    Br6   1.899152 S    
C25   C29   1.420969 A    
C5    Br4   1.905755 S    
C12   C13   1.381956 A    
C27   Br3   1.919609 S    
O1    C1    1.304858 A    
N6    O15   1.300979 A    
C10   C11   1.405456 A    
N1    C31   1.362880 A    
C15   C23   1.414127 A    
N7    O18   1.301266 A    
C32   N6    1.432703 S    
C26   N7    1.430384 S    
N3    O9    1.302179 A    
C13   Br7   1.926344 S    
C5    C6    1.399150 A    
N4    O12   1.294186 A    
O6    C3    1.308228 A    
C2    C11   1.449226 S    
