data_mof_unit_46652.cif
_audit_creation_date              2012-12-10T20:47:08-0500
_audit_creation_method            fapswitch 2.2
_symmetry_space_group_name_H-M    P1
_symmetry_Int_Tables_number       1
_space_group_crystal_system       triclinic
_cell_length_a                    10.653352
_cell_length_b                    8.928503
_cell_length_c                    8.125112
_cell_angle_alpha                 89.921593
_cell_angle_beta                  90.000039
_cell_angle_gamma                 90.0
_cell_volume                      772.847622618

loop_
_atom_site_label
_atom_site_type_symbol
_atom_type_description
_atom_site_fract_x
_atom_site_fract_y
_atom_site_fract_z
_atom_type_partial_charge
C1    C     C_R   0.500000 0.218075 0.500051 0.933387
C2    C     C_R   0.065783 0.636545 0.570975 0.093523
C3    C     C_R   0.127982 0.513258 0.499617 -0.090259
C4    C     C_R   0.872018 0.513257 0.499617 -0.090259
C5    C     C_R   0.064141 0.395990 0.424551 -0.204629
C6    C     C_R   0.935858 0.395990 0.424551 -0.204628
C7    C     C_1   0.500000 0.065200 0.500108 -0.198643
C8    C     C_1   0.500000 0.934764 0.499903 -0.199322
C9    C     C_R   0.500000 0.781918 0.499901 0.904725
C10   C     C_R   0.259908 0.503598 0.500000 0.859371
C11   C     C_R   0.740092 0.503598 0.500001 0.859371
C12   C     C_R   0.130872 0.760620 0.637600 -0.175679
C13   C     C_R   0.869128 0.760623 0.637594 -0.175676
C14   C     C_R   0.065322 0.881608 0.703811 -0.132823
C15   C     C_R   0.934680 0.881611 0.703805 -0.132822
C16   C     C_R   0.934217 0.636545 0.570974 0.093523
H1    H     H_    0.113980 0.303026 0.368829 0.152327
H2    H     H_    0.886019 0.303024 0.368831 0.152325
H3    H     H_    0.232226 0.766429 0.637056 0.144589
H4    H     H_    0.767774 0.766435 0.637045 0.144585
H5    H     H_    0.116047 0.976164 0.753991 0.143853
H6    H     H_    0.883956 0.976173 0.753978 0.143852
N1    N     N_1   0.500000 0.500000 0.073640 -0.030362
N2    N     N_1   0.500000 0.500000 0.926360 -0.030654
O1    O     O_R   0.500000 0.285350 0.636850 -0.613348
O2    O     O_R   0.500000 0.714650 0.636850 -0.628308
O3    O     O_R   0.500000 0.285360 0.363100 -0.615335
O4    O     O_R   0.500000 0.714640 0.363100 -0.609206
O5    O     O_R   0.316770 0.500000 0.636900 -0.620492
O6    O     O_R   0.683230 0.500000 0.636900 -0.620491
O7    O     O_R   0.316780 0.500000 0.363150 -0.613617
O8    O     O_R   0.683220 0.500000 0.363150 -0.613617
Zn1   Zn    Zn3+2 0.500000 0.500000 0.682780 0.982988
Zn2   Zn    Zn3+2 0.500000 0.500000 0.317220 0.991750

loop_
_geom_bond_atom_site_label_1
_geom_bond_atom_site_label_2
_ccdc_geom_bond_type
C4    C16   A    
N1    N2    T    
C2    C16   A    
O2    Zn1   S    
N2    Zn1   S    
O6    Zn1   S    
N1    Zn2   S    
C2    C12   A    
C2    C3    A    
O7    Zn2   S    
O4    Zn2   S    
C7    C8    T    
C3    C10   S    
C4    C11   S    
C1    O1    A    
C10   O5    A    
C11   O6    A    
C12   H3    S    
C12   C14   A    
C9    O2    A    
C13   C15   A    
O3    Zn2   S    
C5    C6    A    
C6    H2    S    
C5    H1    S    
O5    Zn1   S    
C14   H5    S    
C4    C6    A    
C13   C16   A    
C1    O3    A    
C14   C15   A    
C13   H4    S    
C3    C5    A    
C1    C7    S    
C10   O7    A    
C15   H6    S    
C9    O4    A    
O1    Zn1   S    
C8    C9    S    
C11   O8    A    
O8    Zn2   S    
