data_mof_unit_25902.cif
_audit_creation_date              2013-03-05T16:34:53-0500
_audit_creation_method            fapswitch 2.2
_symmetry_space_group_name_H-M    P1
_symmetry_Int_Tables_number       1
_space_group_crystal_system       monoclinic
_cell_length_a                    15.142305
_cell_length_b                    9.093938
_cell_length_c                    7.77619
_cell_angle_alpha                 90.004644
_cell_angle_beta                  90.0
_cell_angle_gamma                 90.0
_cell_volume                      1070.80610991

loop_
_atom_site_label
_atom_site_type_symbol
_atom_site_description
_atom_site_fract_x
_atom_site_fract_y
_atom_site_fract_z
_atom_type_partial_charge
O1    O     O_R   0.500000 0.288390 0.642760 -0.566052
O2    O     O_R   0.500000 0.711610 0.357240 -0.566052
O3    O     O_R   0.500000 0.711610 0.642760 -0.587526
O4    O     O_R   0.500000 0.288390 0.357240 -0.587526
C1    C     C_R   0.500000 0.219990 0.499998 0.840887
C2    C     C_R   0.500000 0.780010 0.500002 0.840888
O5    O     O_R   0.370260 0.500000 0.642800 -0.535484
O6    O     O_R   0.629740 0.500000 0.357200 -0.535485
O7    O     O_R   0.629740 0.500000 0.642800 -0.535484
O8    O     O_R   0.370260 0.500000 0.357200 -0.535485
C3    C     C_R   0.328299 0.500000 0.500000 0.910850
C4    C     C_R   0.671701 0.500000 0.500000 0.910849
Cu1   Cu    Cu3+1 0.500000 0.500000 0.669080 1.141407
Cu2   Cu    Cu3+1 0.500000 0.500000 0.330920 1.141406
N1    N     N_1   0.500000 0.500000 0.076820 0.006395
N2    N     N_1   0.500000 0.500000 0.923180 0.006395
C5    C     C_R   0.813824 0.567694 0.365741 0.609367
C6    C     C_R   0.186176 0.432298 0.634257 0.609368
C7    C     C_R   0.813824 0.432298 0.634257 0.609368
C8    C     C_R   0.186176 0.567694 0.365741 0.609367
C9    C     C_R   0.768300 0.499997 0.499999 -0.335417
C10   C     C_R   0.231700 0.499997 0.500000 -0.335417
C11   C     C_R   0.906678 0.434277 0.639231 -0.109841
C12   C     C_R   0.093322 0.565708 0.360764 -0.109845
C13   C     C_R   0.906678 0.565708 0.360764 -0.109845
C14   C     C_R   0.093322 0.434277 0.639231 -0.109841
C15   C     C_R   0.953388 0.499992 0.499998 -0.113040
C16   C     C_R   0.046612 0.499992 0.499998 -0.113040
C17   C     C_R   0.953773 0.372593 0.779199 0.385992
C18   C     C_R   0.046227 0.627386 0.220794 0.385994
C19   C     C_R   0.953773 0.627386 0.220794 0.385994
C20   C     C_R   0.046227 0.372593 0.779199 0.385992
C21   C     C_1   0.500000 0.065364 0.499997 -0.095480
C22   C     C_1   0.500000 0.934636 0.500003 -0.095480
Cl1   Cl    Cl    0.899697 0.297237 0.962103 -0.380391
Cl2   Cl    Cl    0.100303 0.702730 0.037886 -0.380396
Cl3   Cl    Cl    0.899697 0.702730 0.037886 -0.380396
Cl4   Cl    Cl    0.100303 0.297237 0.962103 -0.380391
F1    F     F_    0.765802 0.639326 0.244435 -0.570650
F2    F     F_    0.234199 0.360671 0.755565 -0.570651
F3    F     F_    0.765801 0.360671 0.755565 -0.570651
F4    F     F_    0.234198 0.639326 0.244435 -0.570650

loop_
_geom_bond_atom_site_label_1
_geom_bond_atom_site_label_2
_geom_bond_distance
_ccdc_geom_bond_type
C13   C19   1.417017 A    
C8    F4    1.357580 S    
C14   C20   1.417026 A    
C11   C15   1.424700 A    
C13   C15   1.424700 A    
C12   C16   1.424700 A    
C17   Cl1   1.778536 S    
C3    C10   1.462735 S    
C14   C16   1.424700 A    
O3    Cu1   1.935238 S    
C18   Cl2   1.778521 S    
O6    C4    1.279367 A    
O3    C2    1.272547 A    
C5    C13   1.406677 A    
C21   C22   1.188830 T    
C6    C10   1.394373 A    
Cu1   Cu2   2.629597 S    
O5    C3    1.279368 A    
O2    C2    1.272491 A    
O1    C1    1.272491 A    
C11   C17   1.417025 A    
C7    C9    1.394374 A    
C8    C10   1.394372 A    
C17   C20   1.399961 A    
C20   Cl4   1.778537 S    
C1    C21   1.406157 S    
O4    Cu2   1.935239 S    
C18   C19   1.399959 A    
O2    Cu2   1.935205 S    
O7    C4    1.279368 A    
C12   C18   1.417017 A    
O1    Cu1   1.935206 S    
O8    C3    1.279367 A    
N1    N2    1.194735 T    
C2    C22   1.406157 S    
O5    Cu1   1.975165 S    
C5    F1    1.357579 S    
Cu1   N2    1.975929 S    
C15   C16   1.411613 A    
O7    Cu1   1.975163 S    
C7    C11   1.406680 A    
C6    F2    1.357576 S    
O6    Cu2   1.975163 S    
Cu2   N1    1.975929 S    
C4    C9    1.462735 S    
C8    C12   1.406677 A    
C5    C9    1.394371 A    
C7    F3    1.357576 S    
C19   Cl3   1.778522 S    
O4    C1    1.272547 A    
O8    Cu2   1.975165 S    
C6    C14   1.406680 A    
