data_mof_unit_54526.cif
_audit_creation_date              2013-03-05T16:12:10-0500
_audit_creation_method            fapswitch 2.2
_symmetry_space_group_name_H-M    P1
_symmetry_Int_Tables_number       1
_space_group_crystal_system       triclinic
_cell_length_a                    10.729665
_cell_length_b                    9.487246
_cell_length_c                    27.764412
_cell_angle_alpha                 89.993044
_cell_angle_beta                  92.627845
_cell_angle_gamma                 90.063698
_cell_volume                      2823.30367591

loop_
_atom_site_label
_atom_site_type_symbol
_atom_site_description
_atom_site_fract_x
_atom_site_fract_y
_atom_site_fract_z
_atom_type_partial_charge
O1    O     O_R   0.317570 0.620260 0.500030 -0.592175
O2    O     O_R   0.317570 0.379740 0.500030 -0.593803
C1    C     C_R   0.259801 0.499790 0.500020 0.747765
O3    O     O_R   0.499900 0.620250 0.430280 -0.595025
O4    O     O_R   0.499900 0.379750 0.430280 -0.594920
C2    C     C_R   0.499315 0.500000 0.407520 0.785517
Cu1   Cu    Cu3+1 0.499860 0.642410 0.500020 0.893966
Cu2   Cu    Cu3+1 0.499860 0.357590 0.500020 0.894060
O5    O     O_R   0.682190 0.620260 0.500010 -0.593432
O6    O     O_R   0.682190 0.379740 0.500010 -0.593900
O7    O     O_R   0.499860 0.620280 0.569750 -0.587002
O8    O     O_R   0.499860 0.379720 0.569750 -0.586570
C3    C     C_R   0.739863 0.499869 0.500318 0.766011
C4    C     C_R   0.500034 0.500011 0.592502 0.801546
C5    C     C_R   0.388111 0.532161 0.175494 0.543371
O9    O     O_2   0.283274 0.562826 0.198426 -0.541038
N1    N     N_R   0.495373 0.499754 0.201653 -0.465892
C6    C     C_R   0.602972 0.467420 0.179518 0.543754
C7    C     C_R   0.506263 0.372596 0.278780 -0.104472
C8    C     C_R   0.507269 0.372501 0.329015 -0.227976
C9    C     C_R   0.486326 0.627231 0.328657 -0.231461
C10   C     C_R   0.484897 0.626947 0.278408 -0.103441
C11   C     C_R   0.495180 0.499740 0.253315 0.358460
C12   C     C_R   0.496101 0.499853 0.101364 -0.053302
C13   C     C_R   0.386470 0.532870 0.124866 -0.053098
C14   C     C_R   0.278996 0.570999 0.097645 -0.152579
C15   C     C_R   0.605332 0.466766 0.128982 -0.053934
C16   C     C_R   0.497724 0.499941 0.354448 -0.037957
H1    H     H_    0.478332 0.726987 0.347215 0.148871
H2    H     H_    0.196657 0.605005 0.115664 0.193153
C17   C     C_R   0.499892 0.500126 0.645556 -0.042770
C18   C     C_R   0.382843 0.500795 0.972337 0.045518
C19   C     C_R   0.611627 0.499762 0.976703 0.046468
C20   C     C_R   0.497475 0.500404 0.949233 0.069696
C21   C     C_R   0.272895 0.471816 0.944264 -0.218000
C22   C     C_R   0.274104 0.463995 0.894181 -0.149617
C23   C     C_R   0.385690 0.482902 0.870695 -0.017804
C24   C     C_R   0.497960 0.500582 0.898274 -0.047458
C25   C     C_R   0.610716 0.518379 0.875006 -0.017033
C26   C     C_R   0.608925 0.519067 0.824432 0.532803
N2    N     N_R   0.498914 0.500676 0.798221 -0.470252
C27   C     C_R   0.388441 0.482320 0.820212 0.532675
C28   C     C_R   0.483669 0.373919 0.721142 -0.104988
C29   C     C_R   0.484230 0.373518 0.670924 -0.225525
C30   C     C_R   0.515337 0.626923 0.671386 -0.226507
C31   C     C_R   0.515397 0.626881 0.721617 -0.104611
C32   C     C_R   0.499392 0.500489 0.746610 0.363139
O10   O     O_2   0.281617 0.464863 0.793284 -0.536486
C33   C     C_R   0.383376 0.524692 0.022875 0.036714
C34   C     C_R   0.496528 0.499962 0.050391 -0.009156
C35   C     C_R   0.610127 0.475367 0.027169 0.036413
C36   C     C_R   0.277270 0.573571 0.047246 0.162563
H3    H     H_    0.471837 0.274301 0.652041 0.143130
H4    H     H_    0.471355 0.275879 0.740336 0.135781
O11   O     O_2   0.707501 0.436802 0.206366 -0.540908
C37   C     C_R   0.713181 0.428628 0.105833 -0.149891
H5    H     H_    0.516023 0.272790 0.347856 0.147975
H6    H     H_    0.514007 0.273866 0.259566 0.137712
H7    H     H_    0.795183 0.394471 0.126947 0.194933
C38   C     C_R   0.722083 0.528957 0.952875 -0.218499
C39   C     C_R   0.721824 0.537140 0.902766 -0.151817
O12   O     O_2   0.716215 0.536585 0.801602 -0.536162
C40   C     C_R   0.715717 0.426197 0.055528 0.161485
H8    H     H_    0.809105 0.549556 0.972687 0.164067
H9    H     H_    0.527920 0.726023 0.652863 0.144630
H10   H     H_    0.809189 0.557096 0.885909 0.186356
H11   H     H_    0.527451 0.725063 0.741174 0.136003
C41   C     C_3   0.077335 0.578537 0.545143 -0.368285
C42   C     C_3   0.070825 0.345919 0.501274 -0.377300
H12   H     H_    0.115280 0.526236 0.578575 0.159307
H13   H     H_    0.110620 0.288665 0.533438 0.162880
C43   C     C_3   0.933380 0.580305 0.544906 -0.379709
C44   C     C_3   0.928411 0.345893 0.502346 -0.375982
H14   H     H_    0.901658 0.531250 0.578653 0.158275
H15   H     H_    0.899656 0.292556 0.535814 0.162714
C45   C     C_3   0.065879 0.572661 0.454174 -0.389874
C46   C     C_3   0.121611 0.499243 0.500178 0.163223
C47   C     C_3   0.877843 0.499268 0.500391 0.155730
C48   C     C_3   0.922021 0.570681 0.453929 -0.367850
C49   C     C_3   0.627599 0.083495 0.509946 -0.267751
C50   C     C_3   0.627668 0.916730 0.509765 -0.268588
H16   H     H_    0.668372 0.122463 0.545044 0.160346
H17   H     H_    0.668960 0.877312 0.544710 0.159277
H18   H     H_    0.690291 0.121199 0.481852 0.143134
H19   H     H_    0.689989 0.879561 0.481474 0.143852
H20   H     H_    0.458111 0.120515 0.575215 0.139806
H21   H     H_    0.459943 0.880283 0.575379 0.140390
C51   C     C_3   0.422670 0.083124 0.539216 -0.189766
C52   C     C_3   0.423269 0.916655 0.539411 -0.187707
C53   C     C_3   0.451882 0.084142 0.453312 0.185814
C54   C     C_3   0.451296 0.915519 0.453397 0.185692
N3    N     N_3   0.500250 0.143650 0.501060 -0.122907
N4    N     N_3   0.500250 0.856350 0.501060 -0.123422
C55   C     C_3   0.824647 0.349682 0.034854 -0.882223
H22   H     H_    0.850667 0.256774 0.057523 0.239436
H23   H     H_    0.801345 0.306768 0.998400 0.247382
H24   H     H_    0.906916 0.420486 0.034319 0.225372
H25   H     H_    0.112794 0.688875 0.545519 0.161309
H26   H     H_    0.098219 0.288410 0.468557 0.165211
H27   H     H_    0.476493 0.725627 0.258914 0.137964
H28   H     H_    0.900155 0.691443 0.544239 0.162754
H29   H     H_    0.889213 0.284077 0.471077 0.162601
H30   H     H_    0.098273 0.683787 0.452805 0.166937
H31   H     H_    0.097914 0.518548 0.421392 0.155710
H32   H     H_    0.886289 0.680669 0.451294 0.161699
H33   H     H_    0.884289 0.512616 0.421601 0.160271
C56   C     C_3   0.324093 0.146780 0.434720 -0.790946
H34   H     H_    0.247499 0.116455 0.457991 0.206945
H35   H     H_    0.320669 0.260552 0.429746 0.265883
H36   H     H_    0.301575 0.111679 0.397311 0.185669
C57   C     C_3   0.322810 0.852552 0.435374 -0.793341
H37   H     H_    0.247104 0.878869 0.459629 0.208435
H38   H     H_    0.297185 0.889885 0.398502 0.185491
H39   H     H_    0.320890 0.739149 0.429267 0.263966
H40   H     H_    0.517911 0.116358 0.425511 0.102184
H41   H     H_    0.516553 0.882850 0.425410 0.103617
H42   H     H_    0.325363 0.122172 0.535172 0.145990
H43   H     H_    0.326234 0.876336 0.535946 0.146273
H44   H     H_    0.187102 0.444097 0.873976 0.189166
H45   H     H_    0.185567 0.450914 0.960709 0.165201
C58   C     C_3   0.168718 0.650112 0.022436 -0.884607
H46   H     H_    0.086886 0.578893 0.018211 0.221533
H47   H     H_    0.141308 0.742093 0.044351 0.238799
H48   H     H_    0.193240 0.694319 0.987125 0.248943

loop_
_geom_bond_atom_site_label_1
_geom_bond_atom_site_label_2
_geom_bond_distance
_ccdc_geom_bond_type
C45   H31   1.113230 S    
C44   H15   1.113785 S    
N2    C27   1.368949 A    
C42   C46   1.553556 S    
C21   C22   1.393158 A    
C12   C15   1.406582 A    
C4    C17   1.473104 S    
C49   H18   1.111902 S    
Cu1   Cu2   2.702156 S    
C30   C31   1.394602 A    
Cu1   O7    1.947338 S    
C40   C55   1.511950 S    
N1    C11   1.434447 S    
C22   C23   1.400696 A    
C53   C56   1.560907 S    
O4    C2    1.303983 A    
O7    C4    1.304108 A    
H20   C51   1.111018 S    
C5    C13   1.404992 A    
C43   H28   1.113294 S    
C5    O9    1.349728 S    
C26   O12   1.349482 S    
C54   H41   1.113794 S    
C48   H32   1.113326 S    
C5    N1    1.367717 A    
C54   C57   1.562958 S    
C23   C27   1.403302 A    
C42   H13   1.113666 S    
C22   H44   1.083231 S    
O5    C3    1.299485 A    
C58   H48   1.108875 S    
C43   C47   1.550940 S    
C31   C32   1.399693 A    
C29   H3    1.082620 S    
C2    C16   1.472821 S    
C51   N3    1.491501 S    
C56   H34   1.106220 S    
C45   C48   1.543345 S    
C42   C44   1.529712 S    
Cu2   N3    2.029910 S    
C41   C43   1.544411 S    
C51   C52   1.579366 S    
C45   H30   1.110922 S    
O1    Cu1   1.966949 S    
C9    C10   1.394540 A    
C56   H35   1.088615 S    
C21   H45   1.079159 S    
O3    Cu1   1.947715 S    
Cu1   N4    2.029907 S    
C39   H10   1.083246 S    
C50   H17   1.112827 S    
C34   C35   1.424266 A    
C7    H6    1.083135 S    
C12   C34   1.415461 A    
C25   C39   1.400806 A    
C10   H27   1.083115 S    
C17   C29   1.406162 A    
C18   C21   1.410620 A    
C35   C40   1.428424 A    
C12   C13   1.406706 A    
C49   H16   1.112791 S    
C25   C26   1.403433 A    
C15   C37   1.397225 A    
C8    C16   1.406421 A    
C55   H24   1.109289 S    
C13   C14   1.397409 A    
C44   C47   1.553614 S    
C9    H1    1.082984 S    
C48   H33   1.113237 S    
C38   C39   1.393258 A    
O1    C1    1.299579 A    
C18   C20   1.413023 A    
C49   N3    1.491454 S    
C7    C11   1.400522 A    
C28   C29   1.394548 A    
C23   C24   1.407317 A    
C14   C36   1.398785 A    
C54   N4    1.509620 S    
C50   N4    1.491198 S    
C36   C58   1.512144 S    
C28   H4    1.082894 S    
C53   N3    1.510626 S    
Cu2   O8    1.947389 S    
C33   C36   1.428620 A    
N1    C6    1.367693 A    
N2    C32   1.433195 S    
C37   C40   1.398408 A    
C57   H38   1.106059 S    
C27   O10   1.349504 S    
C53   H40   1.113883 S    
C45   C46   1.550753 S    
C55   H23   1.108742 S    
C58   H46   1.109274 S    
C6    O11   1.349805 S    
C42   H26   1.110946 S    
C43   H14   1.113143 S    
C26   N2    1.368987 A    
C9    C16   1.406471 A    
O8    C4    1.304417 A    
C14   H2    1.084471 S    
C19   C38   1.410718 A    
H21   C52   1.111471 S    
C30   H9    1.082881 S    
C56   H36   1.106778 S    
O3    C2    1.304100 A    
C1    C46   1.482940 S    
C41   C46   1.550998 S    
Cu1   O5    1.967839 S    
C3    C47   1.480408 S    
C44   H29   1.113846 S    
C57   H37   1.107399 S    
C20   C24   1.415115 A    
O2    Cu2   1.967413 S    
C6    C15   1.404500 A    
C49   C50   1.582157 S    
O6    C3    1.296091 A    
O4    Cu2   1.947664 S    
C19   C35   1.420938 A    
C37   H7    1.084481 S    
C38   H8    1.079407 S    
C7    C8    1.394309 A    
O2    C1    1.297287 A    
C8    H5    1.083015 S    
C31   H11   1.082888 S    
C47   C48   1.550130 S    
C53   C54   1.599780 S    
C24   C25   1.407386 A    
C19   C20   1.412882 A    
C57   H39   1.089208 S    
C52   N4    1.491719 S    
C55   H22   1.111450 S    
C41   H25   1.113293 S    
C18   C33   1.421119 A    
C58   H47   1.111445 S    
C52   H43   1.108826 S    
Cu2   O6    1.967374 S    
C33   C34   1.424156 A    
C17   C30   1.406321 A    
C41   H12   1.113212 S    
C10   C11   1.400557 A    
C51   H42   1.109067 S    
C28   C32   1.399720 A    
C50   H19   1.112286 S    
