data_mof_unit_26906.cif
_audit_creation_date              2012-12-10T20:34:50-0500
_audit_creation_method            fapswitch 2.2
_symmetry_space_group_name_H-M    P1
_symmetry_Int_Tables_number       1
_space_group_crystal_system       triclinic
_cell_length_a                    10.707279
_cell_length_b                    10.729563
_cell_length_c                    9.898509
_cell_angle_alpha                 87.185557
_cell_angle_beta                  90.171231
_cell_angle_gamma                 91.881885
_cell_volume                      1135.19914843

loop_
_atom_site_label
_atom_site_type_symbol
_atom_type_description
_atom_site_fract_x
_atom_site_fract_y
_atom_site_fract_z
_atom_type_partial_charge
C1    C     C_R   0.506029 0.260230 0.502751 0.969340
C2    C     C_3   0.877779 0.495916 0.500695 -0.060483
C3    C     C_3   0.930782 0.627826 0.531009 -0.487030
C4    C     C_3   0.925050 0.460421 0.359751 -0.394251
C5    C     C_R   0.438311 0.056797 0.598107 0.045303
C6    C     C_R   0.513643 0.127627 0.506668 -0.120057
C7    C     C_R   0.578413 0.069213 0.404434 0.277037
C8    C     C_R   0.565922 0.941100 0.396310 -0.255883
C9    C     C_R   0.494548 0.871236 0.491760 -0.142891
C10   C     C_R   0.429846 0.929226 0.590946 0.142258
C11   C     C_3   0.437626 0.905258 0.740219 -0.405468
C12   C     C_R   0.257442 0.498979 0.499291 0.910649
C13   C     C_3   0.449568 0.044297 0.749133 -0.495584
C14   C     C_R   0.417508 0.424908 0.075200 0.222664
C15   C     C_R   0.576172 0.580953 0.067252 0.236060
C16   C     C_R   0.577286 0.578290 0.923079 -0.162660
C17   C     C_R   0.415281 0.427518 0.932463 0.233820
C18   C     C_3   0.406883 0.289838 0.932052 -0.554155
C19   C     C_3   0.415449 0.285763 0.083869 -0.428801
C20   C     C_R   0.499190 0.739556 0.497264 0.890539
C21   C     C_R   0.741927 0.498941 0.500200 0.950316
C22   C     C_3   0.068090 0.387892 0.595710 -0.011989
C23   C     C_3   0.924915 0.400539 0.611953 0.059155
C24   C     C_3   0.073723 0.624035 0.548435 0.035118
C25   C     C_3   0.067027 0.482431 0.346630 0.413443
C26   C     C_3   0.120224 0.496941 0.496774 -0.101966
H1    H     H_    0.110063 0.399836 0.697661 0.198955
H2    H     H_    0.878530 0.515880 0.278485 0.190476
H3    H     H_    0.117178 0.704400 0.488811 0.145400
H4    H     H_    0.907885 0.695031 0.445885 0.189362
H5    H     H_    0.620502 0.895185 0.323701 0.192867
H6    H     H_    0.348927 0.864028 0.783322 0.235983
H7    H     H_    0.523749 0.857777 0.774506 0.214469
H8    H     H_    0.367953 0.079512 0.801577 0.210197
H9    H     H_    0.543046 0.075631 0.786172 0.239156
H10   H     H_    0.642805 0.636541 0.863630 0.156995
H11   H     H_    0.314026 0.257138 0.895690 0.208352
H12   H     H_    0.490193 0.252613 0.884091 0.237243
H13   H     H_    0.331669 0.241580 0.133253 0.254961
H14   H     H_    0.504768 0.248112 0.121577 0.248434
H15   H     H_    0.909034 0.440693 0.711937 0.177091
H16   H     H_    0.886508 0.662203 0.623083 0.221904
H17   H     H_    0.897416 0.361298 0.344846 0.248662
N1    N     N_R   0.499150 0.499140 0.142800 -0.131859
N2    N     N_R   0.499150 0.499180 0.857150 -0.117981
O1    O     O_R   0.500020 0.316790 0.614690 -0.616162
O2    O     O_R   0.500000 0.316760 0.385350 -0.590463
O3    O     O_R   0.314800 0.500000 0.614670 -0.586650
O4    O     O_R   0.314790 0.499960 0.385330 -0.604890
O5    O     O_R   0.500000 0.683240 0.614650 -0.621609
O6    O     O_R   0.499980 0.683210 0.385310 -0.609873
O7    O     O_R   0.685210 0.500040 0.614670 -0.616587
O8    O     O_R   0.685200 0.500000 0.385330 -0.615249
Zn1   Zn    Zn3+2 0.500010 0.500020 0.653130 0.981008
Zn2   Zn    Zn3+2 0.499990 0.499980 0.346870 1.000230
Br1   Br    Br    0.699354 0.155115 0.287135 -0.523534
N3    N     N_2   0.663040 0.660031 0.133744 -0.266081
H18   H     H_    0.750207 0.622560 0.139218 0.220768
C27   C     C_3   0.669619 0.789534 0.084582 -0.778290
H19   H     H_    0.705754 0.799167 0.979569 0.228249
H20   H     H_    0.736248 0.842516 0.147872 0.256286
H21   H     H_    0.576008 0.830881 0.089188 0.256676
N4    N     N_2   0.100749 0.266057 0.549628 -0.267419
H22   H     H_    0.039331 0.223518 0.484729 0.316762
C28   C     C_3   0.157091 0.181445 0.647846 -0.721701
H23   H     H_    0.174979 0.091758 0.601175 0.253047
H24   H     H_    0.094353 0.162983 0.736236 0.268763
H25   H     H_    0.247277 0.223305 0.680616 0.232222
Br2   Br    Br    0.827952 0.241451 0.626982 -0.526072
Br3   Br    Br    0.119153 0.656925 0.735919 -0.605433
N5    N     N_2   0.093164 0.596998 0.261571 -0.327556
H26   H     H_    0.173334 0.647795 0.283385 0.228958
C29   C     C_3   0.072176 0.596072 0.116527 -0.650605
H27   H     H_    0.989026 0.537603 0.090633 0.247760
H28   H     H_    0.155383 0.560396 0.065979 0.270409
H29   H     H_    0.057584 0.692894 0.076280 0.246443
Br4   Br    Br    0.131374 0.338879 0.253954 -0.564557

loop_
_geom_bond_atom_site_label_1
_geom_bond_atom_site_label_2
_ccdc_geom_bond_type
N4    C28   S    
C3    H16   S    
C29   H28   S    
C29   H27   S    
C23   Br2   S    
C12   O3    A    
C12   O4    A    
C24   Br3   S    
C7    C8    A    
O3    Zn1   S    
O5    Zn1   S    
C25   Br4   S    
C14   N1    A    
C18   H11   S    
C24   C26   S    
C15   N1    A    
C13   H9    S    
C20   O6    A    
C5    C6    A    
C1    O1    A    
N3    C27   S    
C15   C16   A    
C18   C19   S    
C24   H3    S    
C20   O5    A    
C22   N4    S    
C8    C9    A    
C28   H24   S    
C25   N5    S    
C9    C10   A    
C5    C13   S    
C27   H19   S    
C15   N3    S    
C14   C17   A    
C3    C24   S    
C7    Br1   S    
C4    H2    S    
O7    Zn1   S    
C4    C25   S    
O8    Zn2   S    
C27   H20   S    
C1    C6    S    
C11   H7    S    
C19   H14   S    
N5    C29   S    
C1    O2    A    
C25   C26   S    
O4    Zn2   S    
C12   C26   S    
C3    H4    S    
C2    C4    S    
C9    C20   S    
C28   H25   S    
O1    Zn1   S    
C2    C21   S    
C17   C18   S    
C19   H13   S    
C11   H6    S    
C22   H1    S    
C29   H29   S    
O2    Zn2   S    
C27   H21   S    
C8    H5    S    
C14   C19   S    
C17   N2    A    
C16   N2    A    
N2    Zn1   S    
C6    C7    A    
C4    H17   S    
C23   H15   S    
C2    C3    S    
C18   H12   S    
C13   H8    S    
C16   H10   S    
C21   O8    A    
C11   C13   S    
N1    Zn2   S    
N3    H18   S    
O6    Zn2   S    
C10   C11   S    
N4    H22   S    
C5    C10   A    
N5    H26   S    
C28   H23   S    
C22   C26   S    
C2    C23   S    
C22   C23   S    
C21   O7    A    
