data_mof_unit_30832.cif
_audit_creation_date              2013-03-05T15:45:32-0500
_audit_creation_method            fapswitch 2.2
_symmetry_space_group_name_H-M    P1
_symmetry_Int_Tables_number       1
_space_group_crystal_system       triclinic
_cell_length_a                    11.300319
_cell_length_b                    11.403451
_cell_length_c                    18.915165
_cell_angle_alpha                 89.48989
_cell_angle_beta                  89.006495
_cell_angle_gamma                 60.41975
_cell_volume                      2119.45340436

loop_
_atom_site_label
_atom_site_type_symbol
_atom_site_description
_atom_site_fract_x
_atom_site_fract_y
_atom_site_fract_z
_atom_type_partial_charge
O1    O     O_R   0.507430 0.255570 0.581420 -0.513953
O2    O     O_R   0.280190 0.527390 0.578910 -0.524860
C1    C     C_R   0.230546 0.649231 0.606378 0.582295
O3    O     O_R   0.260310 0.739740 0.584580 -0.483578
O4    O     O_R   0.532250 0.695150 0.573830 -0.435153
C2    C     C_R   0.648778 0.614352 0.602814 0.631219
O5    O     O_R   0.744930 0.503430 0.576380 -0.512683
O6    O     O_R   0.699250 0.276390 0.571950 -0.499577
C3    C     C_R   0.623815 0.231167 0.602802 0.588987
O7    O     O_R   0.499020 0.256400 0.419850 -0.492504
O8    O     O_R   0.272400 0.528160 0.429140 -0.509663
C4    C     C_R   0.225601 0.647775 0.401578 0.556712
O9    O     O_R   0.251910 0.740570 0.423020 -0.487323
O10   O     O_R   0.524460 0.695920 0.424060 -0.456371
C5    C     C_R   0.639952 0.623247 0.392712 0.563117
O11   O     O_R   0.736530 0.504260 0.414810 -0.492077
O12   O     O_R   0.691460 0.277160 0.422180 -0.514575
C6    C     C_R   0.616834 0.230944 0.395218 0.563381
Cr1   Cr    Cr6+3 0.392930 0.397900 0.502230 1.077900
Cr2   Cr    Cr6+3 0.398240 0.708600 0.501260 1.160675
Cr3   Cr    Cr6+3 0.708800 0.393470 0.496460 1.109683
O13   O     O_3   0.499990 0.499990 0.499980 -0.307474
C7    C     C_3   0.551675 0.776999 0.793073 -0.043864
C8    C     C_3   0.531636 0.757140 0.712141 -0.109158
H1    H     H_    0.453282 0.725947 0.709841 0.196140
C9    C     C_3   0.808590 0.688985 0.762601 -0.141734
C10   C     C_3   0.726629 0.527757 0.802540 -0.142513
C11   C     C_3   0.703931 0.673706 0.812728 -0.123094
H2    H     H_    0.649177 0.524508 0.836168 0.236160
C12   C     C_3   0.667489 0.638967 0.678023 -0.070550
C13   C     C_3   0.788611 0.666731 0.682719 -0.116702
C14   C     C_3   0.706480 0.504960 0.722837 -0.038659
H3    H     H_    0.906652 0.602588 0.776573 0.140573
H4    H     H_    0.879513 0.571732 0.670242 0.184106
C15   C     C_R   0.783062 0.135676 0.702209 0.004721
C16   C     C_R   0.801144 0.133739 0.777029 0.038206
C17   C     C_R   0.690119 0.157574 0.823713 0.018244
C18   C     C_R   0.559652 0.207635 0.796401 0.057869
C19   C     C_R   0.542074 0.207470 0.723926 -0.043196
C20   C     C_R   0.651885 0.181721 0.676434 -0.025778
C21   C     C_R   0.155010 0.579145 0.713891 -0.141874
H5    H     H_    0.148718 0.504269 0.682262 0.191358
C22   C     C_R   0.147026 0.578937 0.787949 0.027531
C23   C     C_R   0.147340 0.688853 0.826680 0.024278
C24   C     C_R   0.154459 0.793258 0.785981 0.045409
C25   C     C_R   0.150336 0.788623 0.712763 -0.055182
H6    H     H_    0.151041 0.868033 0.681914 0.236955
C26   C     C_R   0.168649 0.675873 0.677408 0.031090
C27   C     C_R   0.780589 0.611293 0.290810 0.025877
C28   C     C_R   0.793437 0.590331 0.217908 -0.080454
C29   C     C_R   0.677630 0.668321 0.173757 -0.064892
C30   C     C_R   0.546853 0.740667 0.203841 -0.030779
C31   C     C_R   0.532301 0.742324 0.278024 -0.064079
C32   C     C_R   0.650554 0.670918 0.321318 -0.001936
C33   C     C_R   0.564342 0.135750 0.290366 -0.054203
C34   C     C_R   0.543866 0.155191 0.217342 -0.063486
C35   C     C_R   0.642714 0.167315 0.174950 -0.001467
C36   C     C_R   0.736370 0.196904 0.208086 -0.038937
C37   C     C_R   0.732676 0.208873 0.281226 -0.107633
H7    H     H_    0.794002 0.246109 0.305437 0.218620
C38   C     C_R   0.648755 0.177493 0.322955 0.020103
C39   C     C_R   0.058102 0.796196 0.311420 0.072452
C40   C     C_R   0.018914 0.815473 0.240910 -0.128592
H8    H     H_    0.939362 0.913382 0.223577 0.145517
C41   C     C_R   0.082437 0.709492 0.192316 0.017722
C42   C     C_R   0.186350 0.583902 0.213591 -0.057633
H9    H     H_    0.239599 0.503511 0.175649 0.210873
C43   C     C_R   0.223633 0.562390 0.283935 -0.141490
H10   H     H_    0.307012 0.464861 0.299024 0.137421
C44   C     C_R   0.161555 0.668386 0.333068 0.020595
O14   O     O_R   0.089490 0.825610 0.930610 -0.421211
O15   O     O_R   0.818370 0.054540 0.929880 -0.418344
C45   C     C_R   0.704643 0.099199 0.895902 0.597456
O16   O     O_R   0.605870 0.077310 0.915530 -0.493689
O17   O     O_R   0.646440 0.806700 0.917570 -0.445196
C46   C     C_R   0.728395 0.690408 0.888216 0.598058
O18   O     O_R   0.837200 0.593290 0.915250 -0.456312
O19   O     O_R   0.065330 0.635370 0.931590 -0.433180
C47   C     C_R   0.108988 0.712331 0.903148 0.604194
O20   O     O_R   0.068300 0.828790 0.091860 -0.485094
O21   O     O_R   0.798730 0.057480 0.079370 -0.539126
C48   C     C_R   0.673916 0.106558 0.103547 0.530652
O22   O     O_R   0.584680 0.080480 0.076790 -0.469872
O23   O     O_R   0.626790 0.809640 0.067050 -0.463499
C49   C     C_R   0.702087 0.691280 0.099158 0.567240
O24   O     O_R   0.816010 0.596460 0.076500 -0.541291
O25   O     O_R   0.045680 0.638310 0.081070 -0.479196
C50   C     C_R   0.043774 0.736910 0.118917 0.531278
Cr4   Cr    Cr6+3 0.937620 0.938540 0.007640 1.148075
Cr5   Cr    Cr6+3 0.625150 0.937450 0.994520 1.158221
Cr6   Cr    Cr6+3 0.937990 0.625080 0.001190 1.146962
O26   O     O_3   0.833590 0.833690 0.001120 -0.336458
C51   C     C_2   0.514595 0.923379 0.804633 0.375379
H11   H     H_    0.577625 0.962128 0.784527 0.123127
O27   O     O_2   0.410153 0.001319 0.835522 -0.406203
C52   C     C_2   0.831591 0.382772 0.692202 0.257372
H12   H     H_    0.816370 0.320282 0.657009 0.196736
O28   O     O_2   0.947368 0.363166 0.696609 -0.470198
C53   C     C_2   0.897475 0.064695 0.648544 0.607062
O29   O     O_2   0.986067 0.094901 0.638623 -0.446250
O30   O     O_R   0.891820 0.973134 0.602260 -0.647926
H13   H     H_    0.972064 0.932077 0.567994 0.359339
C54   C     C_2   0.924384 0.130676 0.804145 0.562140
O31   O     O_2   0.944866 0.129747 0.866852 -0.434429
O32   O     O_R   0.012316 0.145423 0.758557 -0.614760
H14   H     H_    0.080381 0.160589 0.784386 0.370007
C55   C     C_2   0.441319 0.285411 0.845413 0.635506
O33   O     O_2   0.423803 0.390396 0.871521 -0.488687
O34   O     O_R   0.369002 0.225358 0.872566 -0.603948
H15   H     H_    0.332499 0.257293 0.922201 0.373318
C56   C     C_2   0.405827 0.240869 0.699967 0.330430
H16   H     H_    0.345242 0.330865 0.670229 0.132778
O35   O     O_2   0.360976 0.165487 0.712563 -0.410609
C57   C     C_2   0.140568 0.457633 0.815850 0.555101
O36   O     O_2   0.128889 0.436211 0.877807 -0.466332
O37   O     O_R   0.149750 0.361738 0.768320 -0.674941
H17   H     H_    0.172596 0.274955 0.793331 0.391888
C58   C     C_2   0.193564 0.895895 0.810134 0.629406
O38   O     O_2   0.245046 0.937232 0.766503 -0.477474
O39   O     O_R   0.185705 0.940663 0.879340 -0.573649
H18   H     H_    0.205738 0.017418 0.884451 0.383358
C59   C     C_2   0.463790 0.744142 0.844997 0.586056
O40   O     O_2   0.441391 0.786528 0.905837 -0.409466
O41   O     O_R   0.420690 0.653941 0.826606 -0.703015
H19   H     H_    0.389067 0.622868 0.869614 0.377136
C60   C     C_2   0.901086 0.564574 0.337223 0.644340
O42   O     O_2   0.908736 0.645960 0.375756 -0.478011
O43   O     O_R   0.997804 0.427626 0.341900 -0.611349
H20   H     H_    0.072505 0.409690 0.376465 0.345661
C61   C     C_2   0.921840 0.474094 0.189726 0.345112
H21   H     H_    0.916549 0.408259 0.150672 0.166049
O44   O     O_2   0.033885 0.451859 0.207699 -0.455467
C62   C     C_2   0.425110 0.801416 0.157141 0.566663
O45   O     O_2   0.422641 0.739446 0.105224 -0.460955
O46   O     O_R   0.313257 0.927611 0.172769 -0.685013
H22   H     H_    0.237461 0.956392 0.137371 0.380262
C63   C     C_2   0.391478 0.811652 0.307452 0.322892
H23   H     H_    0.316813 0.788154 0.286748 0.117640
O47   O     O_2   0.355552 0.901310 0.351199 -0.419263
C64   C     C_2   0.494794 0.076508 0.332792 0.278888
H24   H     H_    0.390947 0.102284 0.322117 0.149813
O48   O     O_2   0.554220 0.998119 0.380911 -0.422978
C65   C     C_2   0.418275 0.165555 0.187058 0.273196
H25   H     H_    0.378037 0.102506 0.206204 0.163427
O49   O     O_2   0.355878 0.248852 0.141375 -0.453251
C66   C     C_2   0.837784 0.218046 0.167904 0.231544
H26   H     H_    0.815874 0.259818 0.114873 0.131984
O50   O     O_2   0.948506 0.185479 0.193262 -0.465929
C67   C     C_2   0.992124 0.910562 0.360950 0.610992
O51   O     O_2   0.993003 0.015184 0.347767 -0.472536
O52   O     O_R   0.930818 0.898044 0.423136 -0.646113
H27   H     H_    0.884542 0.985060 0.451171 0.344860
C68   C     C_2   0.468968 0.885656 0.667171 0.669022
O53   O     O_2   0.531677 0.944935 0.654760 -0.495099
O54   O     O_R   0.341033 0.932523 0.637176 -0.587831
H28   H     H_    0.311606 0.016611 0.607470 0.376237
C69   C     C_2   0.827697 0.806933 0.779341 0.493737
O55   O     O_2   0.856167 0.823118 0.838773 -0.516352
O56   O     O_R   0.819250 0.895768 0.728175 -0.672786
H29   H     H_    0.734603 0.928271 0.699674 0.346892
C70   C     C_2   0.814424 0.739444 0.620646 0.613148
O57   O     O_2   0.927573 0.726351 0.612694 -0.480928
O58   O     O_R   0.718546 0.806440 0.567999 -0.612152
H30   H     H_    0.752894 0.844633 0.529267 0.392670
C71   C     C_2   0.846982 0.413714 0.838891 0.282502
H31   H     H_    0.948098 0.378085 0.820008 0.197574
O59   O     O_2   0.831090 0.372397 0.896293 -0.436370
C72   C     C_2   0.591677 0.472895 0.718758 0.485206
O60   O     O_2   0.562095 0.428598 0.770077 -0.518555
O61   O     O_R   0.516343 0.495750 0.658095 -0.698173
H32   H     H_    0.445397 0.467996 0.666157 0.322770

loop_
_geom_bond_atom_site_label_1
_geom_bond_atom_site_label_2
_geom_bond_distance
_ccdc_geom_bond_type
C24   C58   1.516909 S    
C42   C43   1.385528 A    
O25   C50   1.329317 A    
C13   C70   1.536474 S    
O30   H13   1.013616 S    
C39   C67   1.473772 S    
O25   Cr6   2.008908 S    
C10   H2    1.088262 S    
C21   C22   1.402229 A    
C45   O16   1.305765 A    
O58   H30   1.014124 S    
C33   C34   1.401982 A    
O43   H20   1.013980 S    
C29   C49   1.478978 S    
C58   O39   1.394714 S    
O14   C47   1.309206 A    
C57   O36   1.213200 D    
O46   H22   1.013941 S    
C71   H31   1.062242 S    
C31   C32   1.439146 A    
C30   C31   1.409161 A    
C27   C60   1.491842 S    
C63   O47   1.220028 D    
O8    Cr1   2.001047 S    
C51   H11   1.070299 S    
C16   C54   1.476556 S    
C31   C63   1.484007 S    
C16   C17   1.434191 A    
C64   O48   1.221681 D    
O2    C1    1.322236 A    
O24   Cr6   2.098455 S    
C67   O52   1.396526 S    
C22   C57   1.510848 S    
C12   C13   1.553722 S    
C40   C41   1.400396 A    
O61   H32   1.005770 S    
C65   H25   1.080401 S    
C1    C26   1.466821 S    
O20   Cr4   2.122786 S    
C34   C35   1.424514 A    
C39   C44   1.407965 A    
C9    C69   1.500877 S    
C21   H5    1.078210 S    
C18   C55   1.494964 S    
C58   O38   1.220218 D    
C4    C44   1.455149 S    
C28   C61   1.494464 S    
O17   Cr5   2.017883 S    
C34   C65   1.489187 S    
C69   O55   1.214979 D    
C56   H16   1.071332 S    
C43   H10   1.084084 S    
C52   O28   1.217904 D    
O52   H27   1.013275 S    
C8    H1    1.106777 S    
C68   O54   1.399216 S    
O21   Cr4   2.000262 S    
C19   C56   1.470748 S    
C42   H9    1.081511 S    
C10   C14   1.571490 S    
C9    C13   1.572795 S    
C71   O59   1.225072 D    
Cr3   O13   2.052789 S    
O20   C50   1.307190 A    
C30   C62   1.497717 S    
C55   O34   1.390065 S    
O23   Cr5   1.986289 S    
C15   C53   1.514290 S    
C70   O58   1.398515 S    
C28   C29   1.441035 A    
C7    C59   1.555078 S    
C66   O50   1.221623 D    
C46   O18   1.291154 A    
C18   C19   1.388756 A    
C25   C26   1.375133 A    
O1    Cr1   2.121957 S    
C23   C24   1.446613 A    
C37   C38   1.398009 A    
C5    O11   1.323095 A    
C29   C30   1.401379 A    
C5    C32   1.476198 S    
O10   Cr2   1.978777 S    
Cr1   O13   2.051493 S    
O1    C3    1.275089 A    
C64   H24   1.082081 S    
C56   O35   1.214452 D    
Cr6   O26   2.068832 S    
O4    Cr2   2.009989 S    
O19   C47   1.308774 A    
O6    C3    1.320805 A    
C36   C37   1.389258 A    
C49   O24   1.274741 A    
C3    C20   1.477531 S    
O21   C48   1.309409 A    
C33   C64   1.486833 S    
C7    C51   1.523984 S    
C15   C16   1.431821 A    
O3    Cr2   2.101821 S    
C69   O56   1.364656 S    
C61   O44   1.216315 D    
O17   C46   1.306653 A    
C17   C18   1.398781 A    
C9    H3    1.093671 S    
Cr5   O26   2.054188 S    
O56   H29   1.003629 S    
O14   Cr4   2.119280 S    
O7    Cr1   2.130523 S    
C7    C8    1.585835 S    
C52   H12   1.055439 S    
C39   C40   1.393696 A    
O12   C6    1.306710 A    
C13   H4    1.087174 S    
C54   O32   1.375472 S    
C7    C11   1.580964 S    
O23   C49   1.335680 A    
Cr4   O26   2.054777 S    
C10   C71   1.511289 S    
C43   C44   1.406095 A    
C72   O60   1.206607 D    
C53   O30   1.394557 S    
Cr2   O13   2.069126 S    
C48   O22   1.295335 A    
C14   C72   1.514914 S    
C22   C23   1.458968 A    
C62   O45   1.223640 D    
C55   O33   1.220453 D    
C59   O41   1.386754 S    
C1    O3    1.295663 A    
C11   C46   1.490652 S    
O54   H28   1.013831 S    
O39   H18   1.012215 S    
C41   C50   1.447261 S    
C66   H26   1.085397 S    
C63   H23   1.083330 S    
C65   O49   1.221207 D    
O22   Cr5   2.138953 S    
C17   C45   1.489390 S    
C25   H6    1.076162 S    
O18   Cr6   2.133885 S    
C60   O43   1.398910 S    
O9    Cr2   2.130133 S    
C2    C12   1.491122 S    
O2    Cr1   2.005983 S    
C35   C48   1.479001 S    
C23   C47   1.490712 S    
C8    C68   1.531946 S    
O15   C45   1.304098 A    
O6    Cr3   1.983952 S    
C57   O37   1.384599 S    
O8    C4    1.302591 A    
C36   C66   1.479336 S    
O11   Cr3   2.102122 S    
C2    O5    1.290761 A    
O19   Cr6   1.978854 S    
O32   H14   1.003029 S    
C9    C11   1.577869 S    
C53   O29   1.220206 D    
O16   Cr5   2.109335 S    
C61   H21   1.081029 S    
C59   O40   1.225172 D    
C14   C52   1.522220 S    
O5    Cr3   2.141228 S    
O34   H15   1.014184 S    
C12   C14   1.604072 S    
O15   Cr4   2.000826 S    
C35   C36   1.416372 A    
O4    C2    1.304474 A    
C70   O57   1.218623 D    
C6    C38   1.466501 S    
O7    C6    1.293499 A    
C60   O42   1.222082 D    
C33   C38   1.410814 A    
C72   O61   1.385206 S    
C21   C26   1.366468 A    
O37   H17   1.006710 S    
C15   C20   1.400994 A    
C41   C42   1.392013 A    
C8    C12   1.589938 S    
C40   H8    1.083963 S    
C19   C20   1.428059 A    
C24   C25   1.388862 A    
C37   H7    1.084094 S    
C4    O9    1.301950 A    
C51   O27   1.214062 D    
C27   C28   1.394411 A    
C54   O31   1.211365 D    
C62   O46   1.398115 S    
O10   C5    1.286758 A    
C68   O53   1.215975 D    
C67   O51   1.221463 D    
C27   C32   1.394892 A    
O41   H19   1.012354 S    
C10   C11   1.566986 S    
O12   Cr3   2.017659 S    
