data_mof_unit_19281.cif
_audit_creation_date              2012-12-11T14:17:46-0500
_audit_creation_method            fapswitch 2.2
_symmetry_space_group_name_H-M    P1
_symmetry_Int_Tables_number       1
_space_group_crystal_system       triclinic
_cell_length_a                    6.944372
_cell_length_b                    13.633586
_cell_length_c                    20.404095
_cell_angle_alpha                 102.061634
_cell_angle_beta                  90.343588
_cell_angle_gamma                 90.549082
_cell_volume                      1888.99484124

loop_
_atom_site_label
_atom_site_type_symbol
_atom_type_description
_atom_site_fract_x
_atom_site_fract_y
_atom_site_fract_z
_atom_type_partial_charge
O1    O     O_R   0.506860 0.599390 0.449240 -0.539237
O2    O     O_R   0.180220 0.594600 0.586780 -0.548682
O3    O     O_R   0.004500 0.400610 0.550760 -0.533911
C1    C     C_R   0.350181 0.618182 0.612617 0.731648
O4    O     O_R   0.177490 0.611290 0.451970 -0.544007
O5    O     O_R   0.001750 0.417420 0.414990 -0.544132
C2    C     C_R   0.346432 0.638072 0.435338 0.692593
O6    O     O_R   0.509610 0.582580 0.585010 -0.512893
O7    O     O_3   0.337420 0.436370 0.488020 -0.380886
V1    V     V_3+5 0.064680 0.511800 0.502220 1.471681
O8    O     O_R   0.671710 0.405400 0.413220 -0.551660
C3    C     C_R   0.839460 0.384052 0.386518 0.724473
O9    O     O_R   0.674440 0.388710 0.548030 -0.543981
C4    C     C_R   0.843324 0.362228 0.565015 0.715261
V2    V     V_3+5 0.564010 0.488200 0.497780 1.466639
O10   O     O_3   0.841140 0.563630 0.511980 -0.358993
C5    C     C_R   0.929116 0.115199 0.613192 -0.143047
H1    H     H_    0.924864 0.166329 0.520602 0.106146
H2    H     H_    0.949421 0.990103 0.696535 0.152471
H3    H     H_    0.960183 0.038681 0.588481 0.123792
C6    C     C_R   0.855507 0.284793 0.604771 -0.053478
C7    C     C_R   0.849373 0.314820 0.928495 -0.229387
C8    C     C_R   0.868691 0.391902 0.893995 -0.111554
C9    C     C_R   0.893585 0.371465 0.824583 0.259794
C10   C     C_R   0.881876 0.270356 0.787214 0.017302
C11   C     C_R   0.881036 0.191805 0.823974 0.028831
C12   C     C_R   0.879610 0.243162 0.715512 0.088647
C13   C     C_R   0.913394 0.141905 0.683239 0.127393
C14   C     C_R   0.926931 0.067751 0.720839 -0.167907
C15   C     C_R   0.903806 0.091611 0.789797 -0.162170
C16   C     C_R   0.834574 0.311289 0.674377 -0.157052
C17   C     C_R   0.906343 0.187143 0.574392 -0.178401
C18   C     C_R   0.862885 0.215176 0.894633 -0.070781
H4    H     H_    0.777997 0.384405 0.695025 0.164240
H5    H     H_    0.835968 0.333151 0.982567 0.118065
H6    H     H_    0.875037 0.468545 0.922236 0.156043
H7    H     H_    0.908084 0.030666 0.816312 0.122807
C19   C     C_2   0.004986 0.288686 0.285404 -0.133446
C20   C     C_2   0.841579 0.315697 0.319721 -0.307177
H8    H     H_    0.142138 0.317179 0.307753 0.132461
H9    H     H_    0.702870 0.287687 0.299088 0.125481
C21   C     C_2   0.013970 0.220639 0.217816 -0.134902
C22   C     C_2   0.859104 0.183292 0.180322 -0.304551
H10   H     H_    0.156952 0.201432 0.198260 0.130958
H11   H     H_    0.714922 0.201718 0.198379 0.126241
C23   C     C_2   0.212601 0.796523 0.779655 -0.074002
C24   C     C_2   0.358644 0.807238 0.824021 -0.243088
H12   H     H_    0.083536 0.840832 0.791753 0.144468
H13   H     H_    0.482209 0.758480 0.813913 0.188628
C25   C     C_2   0.212514 0.719348 0.716208 -0.123319
C26   C     C_2   0.366106 0.695577 0.675388 0.104075
H14   H     H_    0.075058 0.682255 0.701659 0.174284
C27   C     C_R   0.371681 0.888968 0.387531 -0.159554
H15   H     H_    0.367437 0.838788 0.480425 0.119384
H16   H     H_    0.382318 0.014211 0.304265 0.122015
H17   H     H_    0.379268 0.967305 0.412564 0.115128
C28   C     C_R   0.355584 0.714904 0.395199 -0.031041
C29   C     C_R   0.346601 0.684534 0.071256 -0.160814
C30   C     C_R   0.338860 0.608471 0.107052 -0.116516
C31   C     C_R   0.342225 0.631214 0.176883 -0.159411
C32   C     C_R   0.353399 0.731948 0.213049 0.077899
C33   C     C_R   0.360504 0.809656 0.175913 0.066765
C34   C     C_R   0.357715 0.758169 0.284652 0.073356
C35   C     C_R   0.368029 0.861113 0.317264 0.140775
C36   C     C_R   0.374450 0.935654 0.279699 -0.202156
C37   C     C_R   0.370964 0.910550 0.210211 -0.194123
C38   C     C_R   0.352056 0.685931 0.325302 -0.215718
C39   C     C_R   0.365151 0.816197 0.426260 -0.166797
C40   C     C_R   0.357289 0.784763 0.104930 -0.076893
H18   H     H_    0.344343 0.606547 0.304545 0.092283
H19   H     H_    0.344258 0.665211 0.016962 0.118803
H20   H     H_    0.335730 0.568005 0.200811 0.107167
H21   H     H_    0.330362 0.531000 0.080449 0.123493
H22   H     H_    0.376429 0.971340 0.183551 0.116666
O11   O     O_R   0.203230 0.917310 0.915020 -0.540024
O12   O     O_R   0.535500 0.888690 0.048040 -0.541169
O13   O     O_R   0.711080 0.082610 0.085000 -0.546389
C41   C     C_R   0.366612 0.862090 0.064840 0.687412
O14   O     O_R   0.532630 0.905370 0.913230 -0.537628
O15   O     O_R   0.708190 0.099410 0.949230 -0.537888
C42   C     C_R   0.363438 0.882635 0.887312 0.736519
O16   O     O_R   0.206120 0.900510 0.050790 -0.538753
O17   O     O_3   0.375360 0.063570 0.011990 -0.375728
V3    V     V_3+5 0.648170 0.988200 0.997780 1.447516
O18   O     O_R   0.038240 0.111390 0.951940 -0.542037
C43   C     C_R   0.869691 0.137438 0.934663 0.697951
O19   O     O_R   0.041120 0.094710 0.086750 -0.544273
C44   C     C_R   0.872836 0.115711 0.113533 0.737769
V4    V     V_3+5 0.148810 0.011930 0.002180 1.434749
O20   O     O_3   0.871750 0.936430 0.988010 -0.368059
Br1   Br    Br    0.606517 0.769967 0.689202 -0.600396
Br2   Br    Br    0.992589 0.483934 0.790879 -0.602062

loop_
_geom_bond_atom_site_label_1
_geom_bond_atom_site_label_2
_ccdc_geom_bond_type
O19   C44   A    
O15   V3    S    
O12   V3    S    
C24   H13   S    
O18   C43   A    
C7    H5    S    
C6    C16   A    
O16   V4    S    
V3    O20   S    
C22   C44   S    
C4    C6    S    
C13   C14   A    
O12   C41   A    
C19   C21   S    
O5    C3    A    
C19   C20   D    
C27   C35   A    
C29   H19   S    
H15   C39   S    
C31   H20   S    
V2    O10   S    
C37   H22   S    
C5    H3    S    
C32   C34   A    
C27   C39   A    
O15   C43   A    
C26   Br1   S    
O8    V2    S    
O13   C44   A    
C25   H14   S    
C8    C9    A    
O1    V2    S    
O7    V1    S    
C30   H21   S    
C1    O6    A    
C30   C31   A    
O9    C4    A    
C40   C41   S    
C21   H10   S    
C28   C38   A    
C9    Br2   S    
H16   C36   S    
C34   C38   A    
O17   V4    S    
C6    C17   A    
C23   H12   S    
C33   C37   A    
C1    C26   S    
C12   C16   A    
C9    C10   A    
C20   H9    S    
O14   C42   A    
O18   V4    S    
O11   C42   A    
O13   V3    S    
C29   C30   A    
C33   C40   A    
C31   C32   A    
O2    C1    A    
C18   C43   S    
C14   C15   A    
C41   O16   A    
C11   C18   A    
O17   V3    S    
C25   C26   D    
C16   H4    S    
C22   H11   S    
O3    C4    A    
C11   C15   A    
O6    V2    S    
O9    V2    S    
H1    C17   S    
C21   C22   D    
C28   C39   A    
O2    V1    S    
O4    C2    A    
C27   H17   S    
C7    C18   A    
C23   C24   D    
O1    C2    A    
C5    C13   A    
O5    V1    S    
O8    C3    A    
C29   C40   A    
C10   C12   A    
C23   C25   S    
C38   H18   S    
C35   C36   A    
C3    C20   S    
O19   V4    S    
C10   C11   A    
O4    V1    S    
C36   C37   A    
O3    V1    S    
V1    O10   S    
C19   H8    S    
O14   V3    S    
C24   C42   S    
O7    V2    S    
C32   C33   A    
O11   V4    S    
C34   C35   A    
C15   H7    S    
C8    H6    S    
C12   C13   A    
C5    C17   A    
C7    C8    A    
V4    O20   S    
C2    C28   S    
H2    C14   S    
