data_mof_unit_13541.cif
_audit_creation_date              2012-12-10T16:39:39-0500
_audit_creation_method            fapswitch 2.2
_symmetry_space_group_name_H-M    P1
_symmetry_Int_Tables_number       1
_space_group_crystal_system       triclinic
_cell_length_a                    16.848826
_cell_length_b                    16.90085
_cell_length_c                    16.869428
_cell_angle_alpha                 65.707523
_cell_angle_beta                  65.679788
_cell_angle_gamma                 65.933833
_cell_volume                      3822.01113616

loop_
_atom_site_label
_atom_site_type_symbol
_atom_type_description
_atom_site_fract_x
_atom_site_fract_y
_atom_site_fract_z
_atom_type_partial_charge
C1    C     C_R   0.328775 0.942352 0.459421 0.023623
C2    C     C_R   0.312317 0.432606 0.005480 0.017086
C3    C     C_R   0.549893 0.427147 0.959989 -0.048967
C4    C     C_R   0.048330 0.445605 0.572733 -0.043182
C5    C     C_R   0.989970 0.544148 0.415212 -0.039956
C6    C     C_3   0.224606 0.997263 0.858862 0.082558
C7    C     C_3   0.206376 0.995257 0.955716 -0.817994
C8    C     C_3   0.672074 0.083452 0.116766 0.095409
C9    C     C_3   0.724725 0.068824 0.023570 -0.733746
C10   C     C_3   0.933427 0.880195 0.315801 0.078989
C11   C     C_3   0.966859 0.963773 0.274047 -0.651177
C12   C     C_3   0.035315 0.142360 0.744794 0.099869
C13   C     C_R   0.050477 0.675590 0.540891 0.044810
C14   C     C_3   0.020329 0.055998 0.753571 -0.839736
C15   C     C_3   0.868005 0.268462 0.930728 0.103678
C16   C     C_3   0.954831 0.265474 0.940787 -0.817307
C17   C     C_3   0.128624 0.728520 0.070769 0.180946
C18   C     C_3   0.071492 0.714205 0.030441 -0.776390
C19   C     C_3   0.278762 0.796482 0.780398 0.104374
C20   C     C_3   0.217924 0.744146 0.791454 -0.850546
C21   C     C_3   0.751721 0.180889 0.229088 0.077641
C22   C     C_3   0.836516 0.210501 0.197835 -0.845472
C23   C     C_3   0.766586 0.306568 0.748584 0.096047
C24   C     C_R   0.005457 0.310568 0.436322 0.016274
C25   C     C_3   0.789549 0.236698 0.701620 -0.823244
C26   C     C_3   0.251420 0.704155 0.239738 0.137783
C27   C     C_3   0.239668 0.780393 0.273105 -0.829361
C28   C     C_3   0.829640 0.766239 0.244389 0.067814
C29   C     C_3   0.802896 0.797647 0.158072 -0.757234
C30   C     C_3   0.241083 0.243809 0.708666 0.083295
C31   C     C_3   0.277627 0.231164 0.783250 -0.848738
C32   C     C_R   0.458577 0.976070 0.457025 0.049599
C33   C     C_R   0.540704 0.022658 0.541526 0.048476
C34   C     C_R   0.003234 0.450076 0.449542 0.049658
C35   C     C_R   0.035994 0.539209 0.537746 0.050415
C36   C     C_R   0.454309 0.452072 0.989798 0.048416
C37   C     C_R   0.547120 0.549052 0.005318 0.050375
C38   C     C_R   0.981055 0.175561 0.430675 0.919865
C39   C     C_R   0.671381 0.054813 0.540002 0.050220
C40   C     C_R   0.034571 0.821202 0.563281 0.911846
C41   C     C_R   0.175135 0.429957 0.982513 0.915711
C42   C     C_R   0.825144 0.570126 0.016859 0.917906
C43   C     C_R   0.436974 0.964863 0.178966 0.902858
C44   C     C_R   0.563714 0.033262 0.821040 0.910074
C45   C     C_R   0.562465 0.820654 0.036701 0.895212
C46   C     C_R   0.437972 0.179344 0.962301 0.899111
C47   C     C_R   0.037712 0.562243 0.820455 0.907220
C48   C     C_R   0.964250 0.437174 0.179467 0.908252
C49   C     C_R   0.820361 0.036588 0.562447 0.924710
C50   C     C_R   0.959029 0.454273 0.325458 0.045667
C51   C     C_R   0.179515 0.962996 0.437553 0.891674
C52   C     C_R   0.415619 0.956276 0.413594 0.069542
C53   C     C_R   0.584529 0.040478 0.585936 0.066160
C54   C     C_R   0.987827 0.405236 0.404692 0.068512
C55   C     C_R   0.050001 0.584770 0.582902 0.070165
C56   C     C_R   0.407725 0.404489 0.980780 0.073900
C57   C     C_R   0.593584 0.596264 0.015174 0.073526
C58   C     C_R   0.278854 0.941983 0.408308 -0.114960
C59   C     C_R   0.720941 0.056330 0.591257 -0.122480
C60   C     C_R   0.952605 0.405232 0.277126 -0.122457
C61   C     C_R   0.063584 0.539505 0.669696 0.033772
C62   C     C_R   0.059476 0.591720 0.720970 -0.120975
C63   C     C_R   0.405534 0.276855 0.948728 -0.122939
C64   C     C_R   0.595258 0.723463 0.048588 -0.126832
C65   C     C_R   0.592267 0.050384 0.723216 -0.114063
C66   C     C_R   0.408435 0.945561 0.276962 -0.116281
C67   C     C_R   0.732106 0.607737 0.016272 -0.106379
C68   C     C_R   0.268538 0.392283 0.982131 -0.107944
C69   C     C_R   0.054207 0.723393 0.592023 -0.118360
C70   C     C_R   0.980747 0.268727 0.394693 -0.106358
C71   C     C_R   0.453313 0.030086 0.718702 -0.169886
C72   C     C_R   0.455957 0.327656 0.948511 0.039734
C73   C     C_R   0.550187 0.956832 0.284489 -0.219861
C74   C     C_R   0.045716 0.714733 0.449953 -0.228417
C75   C     C_R   0.047795 0.261708 0.507110 -0.174885
C76   C     C_R   0.736890 0.499811 0.946399 -0.173121
C77   C     C_R   0.264553 0.499621 0.051746 -0.183293
C78   C     C_R   0.295977 0.928827 0.554282 -0.165986
C79   C     C_R   0.705000 0.066639 0.445131 -0.215327
C80   C     C_R   0.551566 0.305211 0.916511 -0.203123
C81   C     C_R   0.449705 0.696738 0.077019 -0.170553
C82   C     C_R   0.940428 0.549454 0.296167 -0.186947
C83   C     C_R   0.545239 0.673334 0.047012 0.039334
C84   C     C_R   0.083625 0.444069 0.699831 -0.178103
C85   C     C_R   0.321583 0.937540 0.320640 -0.312567
C86   C     C_R   0.677862 0.061399 0.678645 -0.316905
C87   C     C_R   0.953658 0.316589 0.317580 -0.311096
C88   C     C_R   0.061533 0.680123 0.678997 -0.308912
C89   C     C_R   0.315276 0.315219 0.955099 -0.301375
C90   C     C_R   0.685147 0.684752 0.043360 -0.299561
C91   C     C_R   0.661665 0.050208 0.400009 -0.103526
C92   C     C_R   0.339209 0.945929 0.598722 -0.054552
C93   C     C_R   0.079220 0.396765 0.650263 -0.066032
C94   C     C_R   0.542338 0.041420 0.677064 0.031508
C95   C     C_R   0.959090 0.594336 0.337659 -0.073744
C96   C     C_R   0.402605 0.647081 0.072623 -0.072525
C97   C     C_R   0.598843 0.354864 0.920963 -0.068141
C98   C     C_R   0.585641 0.992696 0.319594 -0.107327
C99   C     C_R   0.417433 0.997566 0.681278 -0.082920
C100  C     C_R   0.309571 0.548630 0.059643 -0.072859
C101  C     C_R   0.691818 0.451883 0.936700 -0.070201
C102  C     C_R   0.057994 0.305558 0.555579 -0.085001
C103  C     C_R   0.013437 0.677345 0.413484 -0.110323
C104  C     C_R   0.699246 0.056033 0.306351 0.362311
C105  C     C_R   0.459063 0.951785 0.323944 0.046930
C106  C     C_R   0.305774 0.933025 0.693180 0.380240
C107  C     C_R   0.106290 0.301319 0.676115 0.346365
C108  C     C_R   0.951954 0.687966 0.300114 0.402505
C109  C     C_R   0.307096 0.668578 0.106827 0.340569
C110  C     C_R   0.694324 0.333877 0.886295 0.332126
C111  C     C_R   0.664638 0.022214 0.267681 0.357492
C112  C     C_R   0.341547 0.963372 0.734244 0.361304
C113  C     C_R   0.260407 0.621479 0.097752 0.368014
C114  C     C_R   0.741022 0.379378 0.898111 0.359499
C115  C     C_R   0.091325 0.255900 0.631975 0.373634
C116  C     C_R   0.688871 0.567433 0.992031 0.015605
C117  C     C_R   0.985928 0.727392 0.333538 0.375867
C118  C     C_R   0.540900 0.999424 0.408242 -0.029661
C119  C     C_R   0.458919 0.998056 0.590405 -0.044314
C120  C     C_R   0.035658 0.400412 0.526535 -0.045225
C121  C     C_R   0.010891 0.587493 0.456651 -0.032941
C122  C     C_R   0.405130 0.525371 0.027502 -0.046318
C123  C     C_R   0.596292 0.475767 0.967623 -0.048785
C124  C     C_R   0.581037 0.024342 0.449821 -0.035380
C125  C     C_R   0.418185 0.974611 0.548407 -0.052588
C126  C     C_R   0.451561 0.574255 0.034559 -0.045827
H1    H     H_    0.283413 0.936437 0.282908 0.195548
H2    H     H_    0.077625 0.189362 0.523370 0.225915
H3    H     H_    0.809450 0.485449 0.915245 0.222971
H4    H     H_    0.192264 0.512857 0.084441 0.223015
H5    H     H_    0.237986 0.903009 0.594812 0.211846
H6    H     H_    0.764106 0.090377 0.404855 0.202378
H7    H     H_    0.589233 0.251365 0.884667 0.198430
H8    H     H_    0.411680 0.751012 0.108027 0.198798
H9    H     H_    0.910588 0.589723 0.241274 0.196194
H10   H     H_    0.106886 0.405545 0.759379 0.204892
H11   H     H_    0.175066 0.968928 0.860053 0.194169
H12   H     H_    0.715129 0.065260 0.715641 0.192652
H13   H     H_    0.213048 0.068990 0.815796 0.179650
H14   H     H_    0.136370 0.038056 0.980171 0.201358
H15   H     H_    0.213143 0.924660 0.001332 0.275628
H16   H     H_    0.255707 0.021519 0.958148 0.250396
H17   H     H_    0.673354 0.149722 0.113696 0.121896
H18   H     H_    0.600314 0.086623 0.131790 0.168515
H19   H     H_    0.726835 0.001770 0.024924 0.232363
H20   H     H_    0.691083 0.122228 0.972303 0.238027
H21   H     H_    0.795313 0.071653 0.003685 0.233737
H22   H     H_    0.914780 0.862642 0.391193 0.145106
H23   H     H_    0.939949 0.282468 0.284442 0.191134
H24   H     H_    0.871624 0.897085 0.296682 0.178761
H25   H     H_    0.974393 0.990383 0.199964 0.239556
H26   H     H_    0.917934 0.016910 0.307084 0.234532
H27   H     H_    0.033578 0.946622 0.284209 0.219726
H28   H     H_    0.969179 0.196481 0.744907 0.143174
H29   H     H_    0.053500 0.131919 0.805350 0.171135
H30   H     H_    0.001322 0.065502 0.693969 0.267149
H31   H     H_    0.083025 0.998984 0.757068 0.290252
H32   H     H_    0.964712 0.039279 0.816439 0.195966
H33   H     H_    0.883725 0.214079 0.901183 0.174988
H34   H     H_    0.061038 0.718324 0.717574 0.196897
H35   H     H_    0.819280 0.253861 0.000443 0.130774
H36   H     H_    0.987712 0.195621 0.977588 0.190244
H37   H     H_    0.002610 0.286659 0.872928 0.294024
H38   H     H_    0.938664 0.312153 0.979686 0.258201
H39   H     H_    0.179259 0.762225 0.013561 0.110469
H40   H     H_    0.084022 0.776308 0.111741 0.240447
H41   H     H_    0.116340 0.672723 0.983319 0.241841
H42   H     H_    0.022118 0.678207 0.084851 0.294915
H43   H     H_    0.033960 0.780581 0.992441 0.188726
H44   H     H_    0.284870 0.783434 0.848133 0.179848
H45   H     H_    0.279523 0.280945 0.945045 0.195205
H46   H     H_    0.347517 0.769718 0.735680 0.132117
H47   H     H_    0.218110 0.749315 0.723578 0.245304
H48   H     H_    0.243101 0.671607 0.828165 0.222365
H49   H     H_    0.147120 0.772629 0.830256 0.260929
H50   H     H_    0.701793 0.209306 0.285915 0.131285
H51   H     H_    0.721988 0.211091 0.171867 0.136576
H52   H     H_    0.889290 0.180820 0.143270 0.257120
H53   H     H_    0.819636 0.285553 0.171143 0.224172
H54   H     H_    0.863895 0.187524 0.255800 0.247222
H55   H     H_    0.827359 0.330014 0.726208 0.178689
H56   H     H_    0.720355 0.718488 0.054950 0.191383
H57   H     H_    0.710200 0.365119 0.726066 0.133359
H58   H     H_    0.727939 0.216954 0.718205 0.242792
H59   H     H_    0.814671 0.265625 0.626745 0.220149
H60   H     H_    0.842863 0.175363 0.724628 0.261459
H61   H     H_    0.312824 0.648720 0.255337 0.109644
H62   H     H_    0.191335 0.677759 0.277812 0.190537
H63   H     H_    0.232146 0.755145 0.347132 0.200678
H64   H     H_    0.300179 0.806121 0.236739 0.240071
H65   H     H_    0.178596 0.836834 0.260240 0.273464
H66   H     H_    0.800575 0.823546 0.273726 0.165593
H67   H     H_    0.406752 0.049079 0.778619 0.214612
H68   H     H_    0.798591 0.710974 0.294112 0.112516
H69   H     H_    0.831695 0.741391 0.127195 0.237438
H70   H     H_    0.727800 0.819066 0.174108 0.203592
H71   H     H_    0.829296 0.855608 0.108340 0.271674
H72   H     H_    0.257163 0.304715 0.652240 0.134554
H73   H     H_    0.277202 0.183974 0.682322 0.162281
H74   H     H_    0.264260 0.170947 0.841189 0.258282
H75   H     H_    0.352081 0.221860 0.756163 0.206879
H76   H     H_    0.244172 0.291901 0.807987 0.251905
H77   H     H_    0.595841 0.933082 0.226753 0.207023
H78   H     H_    0.067272 0.773738 0.404912 0.218688
O1    O     O_R   0.982940 0.138950 0.510160 -0.650842
O2    O     O_R   0.982940 0.510160 0.138950 -0.644227
O3    O     O_R   0.861050 0.017060 0.489840 -0.646827
O4    O     O_R   0.138950 0.982940 0.510160 -0.636088
O5    O     O_R   0.867700 0.025880 0.612340 -0.615385
O6    O     O_R   0.132300 0.974120 0.387660 -0.632604
O7    O     O_R   0.025880 0.612340 0.867700 -0.621312
O8    O     O_R   0.974120 0.387660 0.132300 -0.621700
O9    O     O_R   0.612340 0.867700 0.025880 -0.627991
O10   O     O_R   0.387660 0.132300 0.974120 -0.624912
O11   O     O_R   0.387660 0.974120 0.132300 -0.625039
O12   O     O_R   0.017060 0.861050 0.489840 -0.652726
O13   O     O_R   0.612340 0.025880 0.867700 -0.625486
O14   O     O_R   0.132300 0.387660 0.974120 -0.631112
O15   O     O_R   0.867700 0.612340 0.025880 -0.637319
O16   O     O_R   0.974120 0.132300 0.387660 -0.638837
O17   O     O_R   0.025880 0.867700 0.612340 -0.622152
O18   O     O_3   0.314660 0.944626 0.828136 -0.610075
O19   O     O_3   0.713139 0.011711 0.181725 -0.605659
O20   O     O_3   0.002710 0.810105 0.280978 -0.609819
O21   O     O_3   0.106911 0.162817 0.664966 -0.612044
O22   O     O_3   0.835158 0.353753 0.871372 -0.622695
O23   O     O_R   0.138950 0.510160 0.982940 -0.651969
O24   O     O_3   0.166346 0.644769 0.129058 -0.618628
O25   O     O_3   0.238504 0.890078 0.745141 -0.648999
O26   O     O_3   0.776081 0.085100 0.254139 -0.605988
O27   O     O_3   0.742338 0.266254 0.843827 -0.639047
O28   O     O_3   0.258329 0.738530 0.146001 -0.612567
O29   O     O_3   0.925573 0.738253 0.221897 -0.607423
O30   O     O_3   0.146903 0.251704 0.745166 -0.639332
O31   O     O_R   0.861050 0.489840 0.017060 -0.648209
O32   O     O_R   0.510160 0.982940 0.138950 -0.654127
O33   O     O_R   0.489840 0.017060 0.861050 -0.634588
O34   O     O_R   0.489840 0.861050 0.017060 -0.613402
O35   O     O_R   0.510160 0.138950 0.982940 -0.641491
O36   O     O_R   0.017060 0.489840 0.861050 -0.636494
Zn1   Zn    Zn3+2 0.004880 0.004880 0.583590 0.943460
Zn2   Zn    Zn3+2 0.995120 0.995120 0.416410 0.899531
Zn3   Zn    Zn3+2 0.004880 0.583590 0.004880 0.914529
Zn4   Zn    Zn3+2 0.995120 0.416410 0.995120 0.931178
Zn5   Zn    Zn3+2 0.583590 0.004880 0.004880 0.917590
Zn6   Zn    Zn3+2 0.416410 0.995120 0.995120 0.970130

loop_
_geom_bond_atom_site_label_1
_geom_bond_atom_site_label_2
_ccdc_geom_bond_type
C43   O32   A    
C41   O23   A    
C76   C101  A    
C1    C78   A    
C38   O1    A    
C47   O7    A    
C80   C97   A    
C21   H51   S    
O2    Zn3   S    
C19   H44   S    
C64   C90   A    
C91   C104  A    
C67   C116  A    
C43   O11   A    
C44   O33   A    
C66   C85   A    
C38   C70   S    
C41   O14   A    
C24   C70   A    
C81   H8    S    
C71   C94   A    
C106  C112  A    
C16   H38   S    
C76   H3    S    
C23   H57   S    
C73   H77   S    
C10   C11   S    
C26   C27   S    
C101  C123  A    
C74   H78   S    
C14   H32   S    
C93   C107  A    
C50   C54   A    
C6    O18   S    
C28   C29   S    
O13   Zn5   S    
C23   H55   S    
C2    C68   A    
C17   H40   S    
O23   Zn3   S    
C7    H14   S    
C17   O24   S    
C71   H67   S    
C20   H49   S    
C114  O22   S    
C79   H6    S    
C24   C54   A    
C15   C16   S    
C76   C116  A    
C5    C121  A    
C9    H20   S    
O36   Zn4   S    
C77   C100  A    
C75   H2    S    
C26   H61   S    
C6    H13   S    
C39   C53   A    
C45   O34   A    
C32   C52   A    
C31   H76   S    
C8    O19   S    
C102  C115  A    
C81   C83   A    
C37   C123  A    
C26   H62   S    
C20   H48   S    
C33   C119  A    
C90   H56   S    
C8    C9    S    
C56   C72   A    
C33   C124  A    
C28   H68   S    
C57   C83   A    
C98   C118  A    
C98   C111  A    
C27   H64   S    
O14   Zn4   S    
C41   C68   S    
C110  C114  A    
C79   C91   A    
C25   H58   S    
C10   O20   S    
C28   O29   S    
C77   H4    S    
C12   H29   S    
C78   C92   A    
C30   H73   S    
C118  C124  A    
C4    C35   A    
C21   C22   S    
C92   C125  A    
O12   Zn2   S    
C101  C114  A    
C63   C89   A    
C44   C65   S    
C103  C117  A    
C27   H65   S    
C47   C62   S    
O1    Zn1   S    
C70   C87   A    
C28   H66   S    
C31   H74   S    
C5    C95   A    
C60   C87   A    
C3    C123  A    
C48   C60   S    
C57   C116  A    
C16   H37   S    
C33   C53   A    
C73   C98   A    
C40   C69   S    
C44   O13   A    
C14   H31   S    
C35   C55   A    
C48   O8    A    
C65   C86   A    
C32   C118  A    
O4    Zn1   S    
C89   H45   S    
C22   H54   S    
C42   O15   A    
C110  O27   S    
O3    Zn2   S    
O5    Zn1   S    
C81   C96   A    
C18   H42   S    
C51   O4    A    
C113  O24   S    
O17   Zn1   S    
C15   O22   S    
C16   H36   S    
C29   H69   S    
C37   C57   A    
O16   Zn2   S    
C9    H21   S    
C67   C90   A    
C80   H7    S    
C4    C93   A    
C39   C79   A    
C32   C125  A    
C122  C126  A    
C86   H12   S    
C36   C122  A    
C78   H5    S    
C64   C83   A    
C15   H33   S    
C36   C56   A    
C38   O16   A    
C75   C102  A    
C42   O31   A    
C3    C97   A    
C104  O26   S    
C20   H47   S    
C35   C121  A    
C21   H50   S    
C39   C59   A    
C5    C34   A    
C40   O12   A    
O7    Zn3   S    
C17   C18   S    
C96   C126  A    
C19   H46   S    
O10   Zn6   S    
C51   C58   S    
C111  O19   S    
C46   O35   A    
C30   O30   S    
O9    Zn5   S    
C19   O25   S    
O6    Zn2   S    
C69   C88   A    
C25   H59   S    
C95   C108  A    
O11   Zn6   S    
C119  C125  A    
C11   H25   S    
C65   C94   A    
C30   H72   S    
C107  O30   S    
C12   C14   S    
C52   C105  A    
C34   C54   A    
C29   H71   S    
C91   C124  A    
C42   C67   S    
C85   H1    S    
C55   C61   A    
C62   C88   A    
C49   O5    A    
C103  C121  A    
C58   C85   A    
C7    H15   S    
C102  C120  A    
C50   C82   A    
C37   C126  A    
C18   H43   S    
C92   C106  A    
C22   H52   S    
C108  O29   S    
C84   H10   S    
C82   C95   A    
C14   H30   S    
C53   C94   A    
C112  O18   S    
O32   Zn5   S    
C15   H35   S    
C100  C113  A    
C12   H28   S    
C22   H53   S    
C61   C84   A    
C74   C103  A    
C104  C111  A    
C18   H41   S    
C24   C75   A    
C115  O21   S    
C6    C7    S    
C109  C113  A    
C29   H70   S    
C27   H63   S    
C96   C109  A    
C40   O17   A    
C45   C64   S    
C49   C59   S    
C106  O25   S    
C46   C63   S    
O35   Zn5   S    
C26   O28   S    
C19   C20   S    
C82   H9    S    
C59   C86   A    
C50   C60   A    
O8    Zn4   S    
C2    C77   A    
C2    C56   A    
C1    C58   A    
C10   H24   S    
C97   C110  A    
C51   O6    A    
C12   O21   S    
C30   C31   S    
C13   C69   A    
C3    C36   A    
C6    H11   S    
C43   C66   S    
C21   O26   S    
C99   C112  A    
C108  C117  A    
C9    H19   S    
C73   C105  A    
C109  O28   S    
O15   Zn3   S    
O33   Zn6   S    
C107  C115  A    
C8    H17   S    
C100  C122  A    
C84   C93   A    
C88   H34   S    
C71   C99   A    
C61   C62   A    
C45   O9    A    
C1    C52   A    
C23   O27   S    
O31   Zn4   S    
C31   H75   S    
C25   H60   S    
C11   H27   S    
O34   Zn6   S    
C99   C119  A    
C47   O36   A    
C8    H18   S    
C11   H26   S    
C23   C25   S    
C63   C72   A    
C34   C120  A    
C72   C80   A    
C87   H23   S    
C48   O2    A    
C49   O3    A    
C4    C120  A    
C117  O20   S    
C17   H39   S    
C66   C105  A    
C68   C89   A    
C7    H16   S    
C46   O10   A    
C10   H22   S    
C13   C74   A    
C13   C55   A    
