data_mof_unit_45087.cif
_audit_creation_date              2012-12-11T15:28:46-0500
_audit_creation_method            fapswitch 2.2
_symmetry_space_group_name_H-M    P1
_symmetry_Int_Tables_number       1
_space_group_crystal_system       triclinic
_cell_length_a                    6.958424
_cell_length_b                    19.584234
_cell_length_c                    23.452541
_cell_angle_alpha                 96.236604
_cell_angle_beta                  90.983301
_cell_angle_gamma                 88.875072
_cell_volume                      3176.11430916

loop_
_atom_site_label
_atom_site_type_symbol
_atom_type_description
_atom_site_fract_x
_atom_site_fract_y
_atom_site_fract_z
_atom_type_partial_charge
O1    O     O_R   0.617180 0.809390 0.808140 -0.523117
O2    O     O_R   0.382820 0.190610 0.191860 -0.523117
O3    O     O_R   0.293300 0.672410 0.795490 -0.522324
O4    O     O_R   0.706700 0.327590 0.204510 -0.522323
O5    O     O_R   0.117220 0.690610 0.691850 -0.525843
O6    O     O_R   0.882780 0.309390 0.308150 -0.525842
C1    C     C_R   0.464300 0.648483 0.805814 0.744218
C2    C     C_R   0.535700 0.351516 0.194186 0.744216
O7    O     O_R   0.287840 0.807750 0.814460 -0.517186
O8    O     O_R   0.712160 0.192250 0.185540 -0.517186
O9    O     O_R   0.111720 0.826910 0.710960 -0.534393
O10   O     O_R   0.888280 0.173090 0.289040 -0.534393
C3    C     C_R   0.456515 0.830738 0.833189 0.740816
C4    C     C_R   0.543485 0.169262 0.166811 0.740811
O11   O     O_R   0.622680 0.673080 0.789040 -0.533901
O12   O     O_R   0.377320 0.326920 0.210960 -0.533901
O13   O     O_3   0.448820 0.756130 0.716020 -0.367892
O14   O     O_3   0.551180 0.243870 0.283980 -0.367892
V1    V     V_3+5 0.176220 0.748860 0.756300 1.472295
V2    V     V_3+5 0.823780 0.251140 0.243700 1.472296
O15   O     O_R   0.781670 0.827580 0.704500 -0.536708
O16   O     O_R   0.218330 0.172420 0.295500 -0.536709
C5    C     C_R   0.948341 0.851565 0.693768 0.701752
C6    C     C_R   0.051659 0.148434 0.306232 0.701752
O17   O     O_R   0.787130 0.692240 0.685530 -0.528766
O18   O     O_R   0.212870 0.307760 0.314470 -0.528766
C7    C     C_R   0.956125 0.669233 0.666804 0.706812
C8    C     C_R   0.043875 0.330767 0.333196 0.706812
V3    V     V_3+5 0.675510 0.751130 0.743690 1.444850
V4    V     V_3+5 0.324490 0.248870 0.256310 1.444851
O19   O     O_3   0.952780 0.743870 0.783980 -0.347395
O20   O     O_3   0.047220 0.256130 0.216020 -0.347394
C9    C     C_1   0.966705 0.617177 0.614748 -0.212923
C10   C     C_1   0.033295 0.382823 0.385252 -0.212923
C11   C     C_1   0.978261 0.573663 0.571928 0.003897
C12   C     C_1   0.021739 0.426337 0.428071 0.003897
C13   C     C_1   0.993444 0.521860 0.521319 0.004512
C14   C     C_1   0.006556 0.478140 0.478681 0.004512
C15   C     C_R   0.947964 0.913922 0.663283 -0.083760
C16   C     C_R   0.052036 0.086078 0.336716 -0.083760
C17   C     C_R   0.870017 0.035272 0.664699 0.170536
C18   C     C_R   0.129983 0.964728 0.335301 0.170536
C19   C     C_R   0.886809 0.976036 0.692502 -0.172489
C20   C     C_R   0.113191 0.023964 0.307498 -0.172488
C21   C     C_R   0.992434 0.910942 0.604767 -0.212602
C22   C     C_R   0.007566 0.089058 0.395233 -0.212602
C23   C     C_R   0.973859 0.970228 0.574339 0.063976
C24   C     C_R   0.026141 0.029772 0.425661 0.063976
C25   C     C_R   0.911891 0.032947 0.605645 0.084239
C26   C     C_R   0.088109 0.967053 0.394355 0.084239
C27   C     C_R   0.012022 0.969281 0.513983 0.072981
C28   C     C_R   0.987978 0.030718 0.486017 0.072981
C29   C     C_R   0.927141 0.091157 0.519402 -0.190164
C30   C     C_R   0.072859 0.908843 0.480598 -0.190163
C31   C     C_R   0.890695 0.092120 0.577466 -0.156027
C32   C     C_R   0.109304 0.907880 0.422533 -0.156027
H1    H     H_    0.844149 0.140523 0.599971 0.167408
H2    H     H_    0.155851 0.859476 0.400029 0.167408
H3    H     H_    0.963874 0.138658 0.415728 0.102256
H4    H     H_    0.036126 0.861342 0.584272 0.102256
C33   C     C_R   0.480888 0.587668 0.837380 -0.069493
C34   C     C_R   0.519113 0.412332 0.162620 -0.069492
C35   C     C_R   0.532568 0.464952 0.832865 -0.140598
C36   C     C_R   0.467435 0.535048 0.167135 -0.140598
C37   C     C_R   0.529655 0.524977 0.806369 -0.197379
C38   C     C_R   0.470342 0.475022 0.193631 -0.197377
C39   C     C_R   0.447610 0.591165 0.897035 0.063930
C40   C     C_R   0.552403 0.408836 0.102966 0.063927
C41   C     C_R   0.486123 0.531630 0.926289 0.056954
C42   C     C_R   0.513890 0.468371 0.073711 0.056956
C43   C     C_R   0.507296 0.467568 0.892114 0.105468
C44   C     C_R   0.492713 0.532433 0.107886 0.105469
C45   C     C_R   0.499717 0.531759 0.987422 0.062004
C46   C     C_R   0.500299 0.468242 0.012579 0.062005
C47   C     C_R   0.475262 0.407369 0.975897 -0.130502
C48   C     C_R   0.524758 0.592632 0.024104 -0.130501
C49   C     C_R   0.493702 0.406368 0.917010 -0.163050
C50   C     C_R   0.506315 0.593633 0.082991 -0.163050
H5    H     H_    0.490004 0.357453 0.890524 0.146558
H6    H     H_    0.510014 0.642547 0.109477 0.146559
H7    H     H_    0.446181 0.478026 0.239374 0.117809
H8    H     H_    0.553810 0.521973 0.760625 0.117808
H9    H     H_    0.555536 0.416266 0.806974 0.135879
H10   H     H_    0.444466 0.583735 0.193026 0.135879
H11   H     H_    0.439239 0.359903 0.992038 0.168933
H12   H     H_    0.560791 0.640097 0.007963 0.168934
C51   C     C_1   0.467220 0.882772 0.885261 -0.176204
C52   C     C_1   0.532779 0.117228 0.114739 -0.176206
C53   C     C_1   0.478643 0.926288 0.928085 0.030207
C54   C     C_1   0.521357 0.073711 0.071915 0.030205
C55   C     C_1   0.493565 0.978123 0.978687 0.025861
C56   C     C_1   0.506435 0.021877 0.021313 0.025861
H13   H     H_    0.149643 0.021662 0.262579 0.136407
H14   H     H_    0.850357 0.978338 0.737421 0.136407
I1    I     I_    0.774829 0.125534 0.716076 -0.399548
I2    I     I_    0.225170 0.874466 0.283923 -0.399547
H15   H     H_    0.905304 0.139352 0.501951 0.126412
H16   H     H_    0.094696 0.860648 0.498049 0.126412
I3    I     I_    0.715510 0.320963 0.065791 -0.414703
I4    I     I_    0.284533 0.679044 0.934211 -0.414706

loop_
_geom_bond_atom_site_label_1
_geom_bond_atom_site_label_2
_ccdc_geom_bond_type
C35   C37   A    
C21   H4    S    
O6    C8    A    
C22   H3    S    
O13   V3    S    
C45   C46   A    
O4    C2    A    
V1    O19   S    
C23   C25   A    
C7    C9    S    
C16   C22   A    
O9    V1    S    
C18   I2    S    
C11   C13   S    
C48   C50   A    
O3    C1    A    
C9    C11   T    
C50   H6    S    
O12   V4    S    
C19   H14   S    
C21   C23   A    
O9    C5    A    
C41   C43   A    
O7    C3    A    
C36   H10   S    
C44   C50   A    
C20   H13   S    
C6    C16   S    
O5    C7    A    
O7    V1    S    
C1    C33   S    
O8    V2    S    
C42   C46   A    
O3    V1    S    
O14   V4    S    
C53   C55   S    
C10   C12   T    
C15   C21   A    
C24   C26   A    
C8    C10   S    
C2    O12   A    
C17   C19   A    
O10   V2    S    
C18   C20   A    
C17   C25   A    
C47   H11   S    
O11   V3    S    
C30   C32   A    
C29   C31   A    
O17   V3    S    
C22   C24   A    
C46   C47   A    
C34   C38   A    
C27   C28   A    
O8    C4    A    
C55   C56   T    
C15   C19   A    
C29   H15   S    
C25   C31   A    
O15   V3    S    
C26   C32   A    
C35   H9    S    
C39   C41   A    
C36   C38   A    
C13   C14   T    
C33   C39   A    
C54   C56   S    
C16   C20   A    
C3    C51   S    
O1    V3    S    
C49   H5    S    
C41   C45   A    
C47   C49   A    
C39   I4    S    
C18   C26   A    
C52   C54   T    
O18   V4    S    
C31   H1    S    
C45   C48   A    
O16   C6    A    
O1    C3    A    
C12   C14   S    
C48   H12   S    
C43   C49   A    
C28   C29   A    
V2    O20   S    
O16   V4    S    
C35   C43   A    
C23   C27   A    
O5    V1    S    
O17   C7    A    
O6    V2    S    
O10   C6    A    
O18   C8    A    
C34   C40   A    
O2    V4    S    
C27   C30   A    
O15   C5    A    
C40   I3    S    
C4    C52   S    
V3    O19   S    
C38   H7    S    
V4    O20   S    
C37   H8    S    
C17   I1    S    
C5    C15   S    
C1    O11   A    
O13   V1    S    
C32   H2    S    
O14   V2    S    
C36   C44   A    
O2    C4    A    
O4    V2    S    
C33   C37   A    
C24   C28   A    
C40   C42   A    
C51   C53   T    
C30   H16   S    
C42   C44   A    
C2    C34   S    
