data_mof_unit_33232.cif
_audit_creation_date              2012-12-10T20:39:14-0500
_audit_creation_method            fapswitch 2.2
_symmetry_space_group_name_H-M    P1
_symmetry_Int_Tables_number       1
_space_group_crystal_system       triclinic
_cell_length_a                    18.958048
_cell_length_b                    10.706474
_cell_length_c                    9.879858
_cell_angle_alpha                 91.176055
_cell_angle_beta                  90.412478
_cell_angle_gamma                 91.393038
_cell_volume                      2004.27836151

loop_
_atom_site_label
_atom_site_type_symbol
_atom_type_description
_atom_site_fract_x
_atom_site_fract_y
_atom_site_fract_z
_atom_type_partial_charge
C1    C     C_R   0.497218 0.260014 0.499084 0.896977
C2    C     C_R   0.854418 0.595554 0.504137 -0.129692
C3    C     C_R   0.489115 0.066979 0.621738 0.108451
C4    C     C_R   0.365379 0.507542 0.499662 0.857304
C5    C     C_R   0.484794 0.128527 0.499725 -0.170399
C6    C     C_R   0.465080 0.062030 0.381728 -0.327769
C7    C     C_R   0.461965 0.932200 0.382464 0.519241
C8    C     C_R   0.482713 0.871062 0.501738 -0.228999
C9    C     C_R   0.488356 0.939452 0.622943 0.036954
C10   C     C_3   0.543609 0.938958 0.731478 -0.343596
C11   C     C_3   0.544259 0.079865 0.729938 -0.472926
C12   C     C_R   0.291007 0.540371 0.499211 -0.109012
C13   C     C_R   0.478471 0.396091 0.067682 0.030918
C14   C     C_R   0.534465 0.591506 0.075420 -0.113891
C15   C     C_R   0.537097 0.588531 0.931611 0.405244
C16   C     C_R   0.496564 0.740083 0.500723 0.900510
C17   C     C_R   0.476465 0.397985 0.926983 -0.025359
C18   C     C_3   0.409603 0.322062 0.917102 0.321763
C19   C     C_3   0.413007 0.315478 0.072511 0.334564
C20   C     C_R   0.634989 0.503293 0.500524 0.923076
C21   C     C_R   0.256839 0.563052 0.621845 -0.201066
C22   C     C_R   0.186917 0.596886 0.622713 -0.253823
C23   C     C_R   0.930885 0.615314 0.509103 0.389825
C24   C     C_R   0.149800 0.610134 0.500838 -0.001965
C25   C     C_R   0.184615 0.594480 0.376080 0.546123
C26   C     C_R   0.255892 0.562550 0.376897 -0.337882
C27   C     C_3   0.374345 0.841273 0.256237 -0.262642
C28   C     C_3   0.297403 0.310295 0.827037 -0.265866
C29   C     C_3   0.315474 0.286456 0.207040 -0.292541
C30   C     C_3   0.149239 0.508805 0.170827 -0.283464
C31   C     C_3   0.841100 0.619804 0.167884 -0.164299
C32   C     C_R   0.073281 0.623218 0.507277 0.294159
C33   C     C_R   0.814620 0.607080 0.623459 0.357816
C34   C     C_R   0.743814 0.571678 0.622070 -0.200815
C35   C     C_R   0.711086 0.527255 0.502578 -0.182671
C36   C     C_R   0.750005 0.517878 0.383221 -0.280364
C37   C     C_R   0.821467 0.553511 0.382343 0.488841
Cl1   Cl    Cl    0.597898 0.687917 0.854097 -0.669680
Cl2   Cl    Cl    0.850205 0.670401 0.776197 -0.613110
H1    H     H_    0.284222 0.556004 0.717616 0.217389
H2    H     H_    0.283830 0.556338 0.282031 0.212369
H3    H     H_    0.714140 0.581651 0.714557 0.240988
H4    H     H_    0.725194 0.481748 0.290909 0.183109
H5    H     H_    0.456100 0.109171 0.287956 0.178007
H6    H     H_    0.356551 0.784621 0.343487 0.154955
H7    H     H_    0.362604 0.785479 0.162561 0.203973
H8    H     H_    0.343990 0.928815 0.251281 0.140780
H9    H     H_    0.286372 0.235175 0.900725 0.143910
H10   H     H_    0.309906 0.268536 0.726329 0.155066
H11   H     H_    0.248288 0.363512 0.816967 0.179324
H12   H     H_    0.522382 0.901901 0.827606 0.241715
H13   H     H_    0.344735 0.253010 0.296727 0.162491
H14   H     H_    0.299017 0.205973 0.140033 0.134694
H15   H     H_    0.266716 0.330296 0.243619 0.171410
H16   H     H_    0.136070 0.422191 0.227040 0.150096
H17   H     H_    0.200460 0.500071 0.118008 0.182640
H18   H     H_    0.107980 0.518516 0.091817 0.212915
H19   H     H_    0.879177 0.614639 0.083375 0.237573
H20   H     H_    0.842925 0.717784 0.208281 0.155642
H21   H     H_    0.787918 0.595705 0.125481 0.169666
H22   H     H_    0.594013 0.899431 0.695575 0.242175
H23   H     H_    0.524078 0.122601 0.824955 0.192186
H24   H     H_    0.594754 0.121461 0.693177 0.212896
H25   H     H_    0.562154 0.665048 0.132474 0.187625
H26   H     H_    0.417737 0.231092 0.863115 0.015120
H27   H     H_    0.161374 0.610623 0.719466 0.180196
H28   H     H_    0.425582 0.220142 0.107192 -0.012655
N1    N     N_R   0.036139 0.670474 0.403100 -0.093444
N2    N     N_R   0.966016 0.666685 0.404041 -0.127523
N3    N     N_R   0.968047 0.570373 0.614095 -0.108768
N4    N     N_R   0.037930 0.574651 0.613423 -0.173692
N5    N     N_R   0.499530 0.499140 0.142800 -0.098892
N6    N     N_R   0.499530 0.499180 0.857150 -0.101639
O1    O     O_R   0.500010 0.316790 0.614690 -0.619886
O2    O     O_3   0.352636 0.392656 0.870629 -0.542029
O3    O     O_3   0.356635 0.375853 0.137633 -0.535055
O4    O     O_3   0.149548 0.616650 0.255509 -0.598971
O5    O     O_3   0.861053 0.534088 0.266898 -0.605502
O6    O     O_R   0.500000 0.316760 0.385350 -0.622352
O7    O     O_R   0.398140 0.500000 0.614710 -0.583487
O8    O     O_R   0.398130 0.499970 0.385370 -0.577222
O9    O     O_R   0.500000 0.683240 0.614650 -0.579167
O10   O     O_R   0.499990 0.683210 0.385310 -0.577242
O11   O     O_R   0.601870 0.500030 0.614630 -0.580990
O12   O     O_R   0.601860 0.500000 0.385290 -0.626981
O13   O     O_3   0.447500 0.867633 0.262559 -0.590607
Zn1   Zn    Zn3+2 0.500000 0.500020 0.653130 1.019355
Zn2   Zn    Zn3+2 0.500000 0.499980 0.346870 0.997907

loop_
_geom_bond_atom_site_label_1
_geom_bond_atom_site_label_2
_ccdc_geom_bond_type
C18   O2    S    
C23   N2    A    
C35   C36   A    
C34   H3    S    
O11   Zn1   S    
C11   H23   S    
C7    C8    A    
C29   O3    S    
C18   H26   S    
C33   Cl2   S    
C1    C5    S    
C1    O1    A    
C31   H19   S    
C19   O3    S    
C4    O7    A    
O7    Zn1   S    
C11   H24   S    
C5    C6    A    
C7    O13   S    
C29   H15   S    
O9    Zn1   S    
C30   H18   S    
C34   C35   A    
C31   H20   S    
C25   O4    S    
N1    N2    A    
C20   C35   S    
C28   H11   S    
C28   H9    S    
C4    O8    A    
C8    C9    A    
C19   H28   S    
N3    N4    A    
O1    Zn1   S    
C4    C12   S    
C9    C10   S    
C32   N1    A    
C27   H6    S    
O10   Zn2   S    
C8    C16   S    
C6    H5    S    
C21   C22   A    
C17   N6    A    
C30   O4    S    
C23   N3    A    
C10   H12   S    
O6    Zn2   S    
N5    Zn2   S    
C17   C18   S    
C32   N4    A    
C13   C19   S    
C24   C25   A    
C18   C19   S    
C25   C26   A    
C30   H17   S    
C12   C21   A    
C16   O10   A    
C12   C26   A    
C31   H21   S    
C27   O13   S    
C24   C32   S    
C15   Cl1   S    
C3    C9    A    
C28   H10   S    
C14   H25   S    
C20   O12   A    
C16   O9    A    
C33   C34   A    
C27   H7    S    
C15   N6    A    
C20   O11   A    
C1    O6    A    
C22   C24   A    
C10   H22   S    
N6    Zn1   S    
C2    C33   A    
C31   O5    S    
C37   O5    S    
O12   Zn2   S    
C27   H8    S    
C36   C37   A    
C14   N5    A    
C3    C5    A    
C22   H27   S    
C6    C7    A    
C13   N5    A    
C30   H16   S    
C13   C17   A    
C2    C37   A    
C21   H1    S    
C29   H14   S    
O8    Zn2   S    
C3    C11   S    
C10   C11   S    
C2    C23   S    
C14   C15   A    
C36   H4    S    
C28   O2    S    
C26   H2    S    
C29   H13   S    
