data_mof_unit_51251.cif
_audit_creation_date              2013-03-05T16:05:04-0500
_audit_creation_method            fapswitch 2.2
_symmetry_space_group_name_H-M    P1
_symmetry_Int_Tables_number       1
_space_group_crystal_system       triclinic
_cell_length_a                    6.925216
_cell_length_b                    23.340424
_cell_length_c                    25.731327
_cell_angle_alpha                 104.513933
_cell_angle_beta                  90.743581
_cell_angle_gamma                 90.294514
_cell_volume                      4025.92440645

loop_
_atom_site_label
_atom_site_type_symbol
_atom_site_description
_atom_site_fract_x
_atom_site_fract_y
_atom_site_fract_z
_atom_type_partial_charge
O1    O     O_R   0.505750 0.453350 0.547660 -0.604411
O2    O     O_R   0.170990 0.432220 0.437590 -0.556837
O3    O     O_R   0.005600 0.546650 0.452340 -0.585778
C1    C     C_R   0.338536 0.416161 0.416909 0.994092
O4    O     O_R   0.175720 0.446240 0.546340 -0.603759
O5    O     O_R   0.010370 0.560770 0.561860 -0.566571
C2    C     C_R   0.345708 0.434219 0.562825 0.960825
O6    O     O_R   0.500990 0.439230 0.438140 -0.590369
O7    O     O_3   0.340820 0.537560 0.504970 -0.257734
V1    V     V_3+5 0.064050 0.493030 0.499080 1.232050
O8    O     O_R   0.680940 0.567780 0.562410 -0.556114
C3    C     C_R   0.851236 0.584234 0.582552 1.024197
O9    O     O_R   0.676210 0.553760 0.453660 -0.591129
C4    C     C_R   0.844761 0.566843 0.437935 1.123327
V2    V     V_3+5 0.564640 0.506970 0.500920 1.225490
O10   O     O_3   0.837740 0.462440 0.495030 -0.280581
C5    C     C_R   0.857638 0.842559 0.087816 -0.163909
H1    H     H_    0.793832 0.826332 0.048143 0.127409
C6    C     C_R   0.843647 0.808141 0.125129 0.008264
H2    H     H_    0.772027 0.765437 0.113020 0.135997
C7    C     C_R   0.919111 0.828918 0.177668 0.152899
C8    C     C_R   0.019059 0.883502 0.190725 -0.072749
H3    H     H_    0.079587 0.900833 0.230624 0.123630
C9    C     C_R   0.038689 0.916936 0.152779 -0.054788
H4    H     H_    0.114172 0.959107 0.164026 0.141633
C10   C     C_R   0.955334 0.897155 0.101388 -0.129024
C11   C     C_R   0.058658 0.787012 0.250403 -0.117179
H5    H     H_    0.193646 0.809027 0.246875 0.195942
C12   C     C_R   0.049781 0.751445 0.286645 -0.188938
H6    H     H_    0.177113 0.747303 0.310312 0.162854
C13   C     C_R   0.878150 0.722035 0.292903 0.162870
C14   C     C_R   0.715141 0.728732 0.262038 -0.218933
H7    H     H_    0.581204 0.706716 0.267175 0.176428
C15   C     C_R   0.721993 0.764479 0.225279 0.320889
C16   C     C_R   0.897621 0.793453 0.218469 -0.079883
C17   C     C_R   0.733279 0.694714 0.373872 0.489544
C18   C     C_R   0.726601 0.656534 0.408812 0.396908
C19   C     C_R   0.855020 0.608332 0.402246 -0.559597
C20   C     C_R   0.997028 0.600870 0.362294 0.585373
C21   C     C_R   0.001621 0.638556 0.327490 -0.340411
H8    H     H_    0.104850 0.630211 0.295217 0.188786
C22   C     C_R   0.870227 0.684944 0.332231 -0.160656
C23   C     C_R   0.724935 0.640073 0.672125 0.551538
C24   C     C_R   0.866129 0.633600 0.631804 -0.522546
C25   C     C_R   0.025535 0.673244 0.639512 0.524198
C26   C     C_R   0.042650 0.719030 0.686963 -0.011615
C27   C     C_R   0.898621 0.726509 0.726486 -0.052369
C28   C     C_R   0.740387 0.686857 0.719130 -0.089958
C29   C     C_R   0.202378 0.757638 0.695479 -0.152664
C30   C     C_R   0.216804 0.804167 0.741287 -0.128648
C31   C     C_R   0.072703 0.813469 0.780474 0.044805
C32   C     C_R   0.914259 0.773449 0.773705 0.061027
C33   C     C_R   0.773637 0.779746 0.814280 -0.021101
C34   C     C_R   0.618184 0.738463 0.807236 0.324003
C35   C     C_R   0.602196 0.693587 0.759574 -0.248907
C36   C     C_R   0.086384 0.861428 0.826539 0.366415
C37   C     C_R   0.948127 0.867183 0.867513 -0.321408
C38   C     C_R   0.796020 0.825887 0.861281 -0.130334
H9    H     H_    0.317355 0.752307 0.666557 0.171532
H10   H     H_    0.343708 0.832350 0.745964 0.181066
H11   H     H_    0.696891 0.830148 0.894051 0.196169
H12   H     H_    0.480020 0.663432 0.754579 0.205545
C39   C     C_R   0.312156 0.177681 0.133535 0.628003
C40   C     C_R   0.458674 0.135072 0.131129 -0.507643
C41   C     C_R   0.586277 0.139932 0.175347 0.339975
C42   C     C_R   0.562639 0.185964 0.222615 -0.027607
C43   C     C_R   0.412515 0.227641 0.225451 -0.092689
C44   C     C_R   0.283084 0.222712 0.181340 -0.163483
C45   C     C_R   0.679431 0.189060 0.268443 -0.267115
C46   C     C_R   0.655972 0.233812 0.315678 0.570115
C47   C     C_R   0.512909 0.277030 0.317966 -0.007220
C48   C     C_R   0.389381 0.273588 0.273101 0.007963
C49   C     C_R   0.239699 0.315200 0.276385 -0.026093
C50   C     C_R   0.105922 0.307477 0.233712 -0.355780
C51   C     C_R   0.126340 0.262531 0.186187 0.652102
C52   C     C_R   0.490170 0.323183 0.364602 -0.167308
C53   C     C_R   0.347196 0.366345 0.367654 -0.340652
C54   C     C_R   0.221422 0.362543 0.323053 0.300393
H13   H     H_    0.786789 0.155652 0.268825 0.196520
H14   H     H_    0.585485 0.326135 0.398935 0.187143
H15   H     H_    0.979729 0.335210 0.237802 0.195646
C55   C     C_R   0.287977 0.106640 0.865274 0.382031
C56   C     C_R   0.292256 0.142150 0.828550 -0.183331
H16   H     H_    0.170171 0.141407 0.801581 0.166613
C57   C     C_R   0.449032 0.179595 0.826905 0.112089
C58   C     C_R   0.602745 0.182427 0.863371 -0.098011
H17   H     H_    0.723918 0.211954 0.863366 0.122705
C59   C     C_R   0.602991 0.146401 0.899496 -0.135852
H18   H     H_    0.723228 0.150127 0.927385 0.176962
C60   C     C_R   0.449273 0.106881 0.900468 -0.307889
C61   C     C_R   0.440240 0.190240 0.731178 0.331244
C62   C     C_R   0.421489 0.226999 0.695597 -0.132783
H19   H     H_    0.416907 0.207614 0.652678 0.174765
C63   C     C_R   0.413529 0.288727 0.714692 0.127376
C64   C     C_R   0.422151 0.314000 0.770136 -0.118960
H20   H     H_    0.416453 0.361598 0.785550 0.123357
C65   C     C_R   0.440375 0.278108 0.806054 -0.202375
H21   H     H_    0.444458 0.298613 0.848775 0.136306
C66   C     C_R   0.448390 0.216217 0.787308 -0.044835
C67   C     C_R   0.233789 0.359375 0.674266 -0.091709
H22   H     H_    0.117418 0.358281 0.701692 0.170234
C68   C     C_R   0.212151 0.393008 0.636541 -0.111842
H23   H     H_    0.080405 0.417689 0.636009 0.125603
C69   C     C_R   0.361068 0.395865 0.600831 -0.189426
C70   C     C_R   0.531041 0.363831 0.603221 -0.275214
H24   H     H_    0.647744 0.366232 0.576197 0.180376
C71   C     C_R   0.554092 0.329167 0.640415 0.363184
C72   C     C_R   0.402486 0.326756 0.676370 -0.065181
O11   O     O_R   0.308350 0.060850 0.061810 -0.564865
O12   O     O_R   0.633860 0.053770 0.953650 -0.567038
O13   O     O_R   0.798960 0.939210 0.938150 -0.582380
C73   C     C_R   0.463241 0.066461 0.937370 0.996992
O14   O     O_R   0.638360 0.067800 0.062400 -0.574991
O15   O     O_R   0.803500 0.953330 0.047670 -0.580442
C74   C     C_R   0.470254 0.084417 0.082572 1.056850
O16   O     O_R   0.303810 0.046730 0.952290 -0.557902
O17   O     O_3   0.468430 0.962490 0.995010 -0.272511
V3    V     V_3+5 0.745300 0.006960 0.000930 1.308076
O18   O     O_R   0.132880 0.946160 0.046390 -0.606580
C75   C     C_R   0.964607 0.934425 0.062857 0.953897
O19   O     O_R   0.128380 0.932130 0.937650 -0.556667
C76   C     C_R   0.959018 0.916321 0.916974 1.019340
V4    V     V_3+5 0.244670 0.992930 0.999140 1.308222
O20   O     O_3   0.971670 0.037510 0.005000 -0.229142
O21   O     O_3   0.588819 0.664793 0.448459 -0.609046
C77   C     C_3   0.640488 0.713309 0.491563 -0.193149
H25   H     H_    0.547299 0.751515 0.490437 0.174927
H26   H     H_    0.794996 0.727317 0.492443 0.081437
H27   H     H_    0.612781 0.701021 0.529773 0.152512
O22   O     O_3   0.116121 0.552132 0.352941 -0.571583
C78   C     C_3   0.305715 0.570869 0.369503 0.000968
H28   H     H_    0.398299 0.531227 0.364160 0.147226
H29   H     H_    0.310740 0.594294 0.412817 0.158437
H30   H     H_    0.367069 0.599222 0.344814 0.100267
O23   O     O_3   0.568584 0.601454 0.665050 -0.584105
C79   C     C_3   0.620103 0.551910 0.684197 -0.189099
H31   H     H_    0.493228 0.521748 0.679604 0.158536
H32   H     H_    0.660737 0.565003 0.727582 0.135393
H33   H     H_    0.739444 0.526682 0.660590 0.105721
O24   O     O_3   0.171098 0.665554 0.601977 -0.572755
C80   C     C_3   0.118032 0.694118 0.561774 -0.209043
H34   H     H_    0.239855 0.691136 0.533718 0.182387
H35   H     H_    0.087789 0.741894 0.578896 0.118400
H36   H     H_    0.991802 0.671775 0.537991 0.097698
N1    N     N_R   0.234375 0.905696 0.830120 0.223399
O25   O     O_R   0.388624 0.904907 0.859294 -0.364402
O26   O     O_R   0.234988 0.937700 0.795400 -0.345066
N2    N     N_R   0.478270 0.739522 0.848295 0.230469
O27   O     O_R   0.385292 0.787702 0.869665 -0.404606
O28   O     O_R   0.419798 0.690050 0.857700 -0.389339
O29   O     O_3   0.194017 0.174198 0.088970 -0.544215
C81   C     C_3   0.287009 0.203323 0.054199 -0.161216
H37   H     H_    0.420289 0.179842 0.037329 0.071986
H38   H     H_    0.321984 0.250242 0.074661 0.107283
H39   H     H_    0.187731 0.203425 0.020037 0.166385
N3    N     N_R   0.735632 0.096929 0.172879 0.235578
O30   O     O_R   0.916295 0.112877 0.174219 -0.395898
O31   O     O_R   0.691265 0.041504 0.167570 -0.420485
O32   O     O_3   0.758007 0.230917 0.361530 -0.609774
C82   C     C_3   0.946035 0.253029 0.358783 -0.187150
H40   H     H_    0.028599 0.249701 0.395120 0.188376
H41   H     H_    0.941438 0.300491 0.358719 0.157960
H42   H     H_    0.024464 0.227026 0.323214 0.138236
N4    N     N_R   0.083797 0.408442 0.323502 0.232811
O33   O     O_R   0.928258 0.411655 0.351857 -0.407285
O34   O     O_R   0.094423 0.438780 0.287546 -0.368005
O35   O     O_3   0.981807 0.252741 0.146899 -0.567908
C83   C     C_3   0.946336 0.304468 0.129364 -0.206980
H43   H     H_    0.877966 0.291292 0.088848 0.162983
H44   H     H_    0.081344 0.329354 0.125806 0.120298
H45   H     H_    0.842861 0.333448 0.156241 0.149475
N5    N     N_R   0.117007 0.071989 0.866275 0.234982
O36   O     O_R   0.012315 0.083720 0.909125 -0.418027
O37   O     O_R   0.035948 0.043824 0.821141 -0.309072
N6    N     N_R   0.454684 0.127231 0.709648 0.245552
O38   O     O_R   0.562832 0.095608 0.733264 -0.322903
O39   O     O_R   0.377077 0.102159 0.663116 -0.340230
N7    N     N_R   0.732730 0.298001 0.641592 0.225691
O40   O     O_R   0.800529 0.289018 0.686258 -0.426033
O41   O     O_R   0.838340 0.283444 0.598886 -0.384027
N8    N     N_R   0.548132 0.772391 0.196929 0.213512
O42   O     O_R   0.426708 0.728584 0.180885 -0.413043
O43   O     O_R   0.500547 0.824677 0.192019 -0.429888
O44   O     O_3   0.596140 0.738748 0.379184 -0.613820
C84   C     C_3   0.683825 0.794715 0.400341 -0.211178
H46   H     H_    0.800298 0.794161 0.430524 0.111708
H47   H     H_    0.571663 0.825693 0.420876 0.173837
H48   H     H_    0.741327 0.812836 0.367661 0.159527

loop_
_geom_bond_atom_site_label_1
_geom_bond_atom_site_label_2
_geom_bond_distance
_ccdc_geom_bond_type
C28   C35   1.403219 A    
C54   N4    1.435526 S    
C77   H25   1.109467 S    
C13   C22   1.488833 S    
C11   C12   1.396987 A    
C49   C50   1.403258 A    
C17   C22   1.416208 A    
C64   H20   1.083103 S    
C60   C73   1.499523 S    
C1    O6    1.297855 A    
C78   H30   1.112168 S    
O12   V3    1.979869 S    
C65   H21   1.083313 S    
C37   C38   1.404303 A    
V4    O20   2.151441 S    
N6    O39   1.301453 A    
C53   C54   1.416272 A    
O44   C84   1.413624 S    
C44   C51   1.418946 A    
C70   C71   1.407651 A    
C26   C29   1.402884 A    
C63   C72   1.484428 S    
C12   H6    1.083623 S    
O13   V3    1.997358 S    
C5    C10   1.401956 A    
C7    C8    1.409048 A    
N4    O33   1.300760 A    
C6    C7    1.409381 A    
N5    O36   1.299132 A    
N2    O28   1.301400 A    
C31   C36   1.413478 A    
C41   N3    1.435865 S    
C45   C46   1.401862 A    
C80   H35   1.113564 S    
O32   C82   1.407360 S    
O5    C3    1.293510 A    
C47   C52   1.408531 A    
C15   C16   1.422612 A    
C58   C59   1.401020 A    
C84   H47   1.109172 S    
C42   C45   1.407799 A    
O4    V1    1.979767 S    
V2    O10   2.151474 S    
C35   H12   1.083272 S    
N8    O42   1.301363 A    
C36   C37   1.415236 A    
C15   N8    1.436304 S    
C46   O32   1.383706 S    
C3    C24   1.485892 S    
C36   N1    1.437138 S    
C62   H19   1.083441 S    
N1    O26   1.300296 A    
C37   C76   1.485198 S    
C26   C27   1.413755 A    
O8    V2    1.999039 S    
C64   C65   1.399306 A    
C83   H45   1.110265 S    
C27   C28   1.410509 A    
C71   C72   1.418484 A    
C46   C47   1.408760 A    
C17   O44   1.385638 S    
C23   C28   1.414280 A    
C33   C38   1.409655 A    
O14   V3    1.995535 S    
C38   H11   1.079750 S    
C83   H44   1.114996 S    
C42   C43   1.417460 A    
O29   C81   1.411603 S    
C40   C74   1.492833 S    
O9    C4    1.299994 A    
O13   C76   1.298767 A    
C63   C64   1.400877 A    
C79   H33   1.112430 S    
C62   C63   1.402469 A    
C69   C70   1.406626 A    
C65   C66   1.405271 A    
N5    O37   1.301031 A    
N1    O25   1.300475 A    
C18   O21   1.384530 S    
C52   C53   1.405009 A    
N8    O43   1.301597 A    
C55   N5    1.434578 S    
C67   C72   1.405546 A    
C50   C51   1.406743 A    
C43   C44   1.418477 A    
C82   H42   1.113054 S    
N7    O40   1.301203 A    
O23   C79   1.411547 S    
C9    H4    1.083438 S    
C79   H32   1.113002 S    
C80   H36   1.110005 S    
C61   C62   1.408215 A    
O4    C2    1.301751 A    
C58   H17   1.083163 S    
O11   V4    2.000256 S    
C84   H48   1.108940 S    
C77   H27   1.109678 S    
C11   C16   1.407605 A    
C57   C58   1.400090 A    
C25   O24   1.386174 S    
C31   C32   1.417671 A    
C14   C15   1.410431 A    
O16   V4    1.991008 S    
O2    C1    1.300180 A    
C23   C24   1.415835 A    
C18   C19   1.415671 A    
C57   C66   1.484981 S    
C4    C19   1.494268 S    
C21   C22   1.400684 A    
C56   H16   1.084082 S    
C81   H39   1.109405 S    
C49   C54   1.421032 A    
C67   C68   1.400130 A    
C5    H1    1.083316 S    
C61   N6    1.440251 S    
C30   C31   1.406536 A    
V3    O20   1.709908 S    
O24   C80   1.409943 S    
C68   C69   1.402463 A    
C39   O29   1.385331 S    
O19   C76   1.294513 A    
O15   V3    1.980643 S    
O3    C4    1.297082 A    
O1    V2    1.985191 S    
C83   H43   1.109340 S    
C56   C57   1.397996 A    
C59   C60   1.409550 A    
C55   C56   1.404916 A    
O6    V2    1.999456 S    
C2    C69   1.485315 S    
O9    V2    1.987420 S    
C71   N7    1.442149 S    
O21   C77   1.412980 S    
C8    C9    1.401798 A    
C45   H13   1.081897 S    
C50   H15   1.080669 S    
C78   H28   1.109368 S    
O2    V1    1.995489 S    
O35   C83   1.412372 S    
C43   C48   1.423680 A    
C32   C33   1.418074 A    
C34   N2    1.438546 S    
O7    V1    2.161007 S    
C34   C35   1.401721 A    
C21   H8    1.083686 S    
C77   H26   1.115518 S    
O1    C2    1.293642 A    
C13   C14   1.403681 A    
C24   C25   1.416340 A    
C52   H14   1.083876 S    
C81   H38   1.113612 S    
C48   C49   1.412949 A    
C78   H29   1.111598 S    
C29   H9    1.083187 S    
O5    V1    1.997251 S    
N7    O41   1.301603 A    
O18   C75   1.296250 A    
C73   O16   1.293406 A    
C33   C34   1.420204 A    
C27   C32   1.420025 A    
C7    C16   1.499322 S    
C20   O22   1.381932 S    
O18   V4    1.987500 S    
C23   O23   1.385862 S    
C70   H24   1.083294 S    
C39   C44   1.420881 A    
C55   C60   1.427933 A    
C30   H10   1.082206 S    
C82   H40   1.109107 S    
C6    H2    1.082491 S    
N4    O34   1.300935 A    
O22   C78   1.408171 S    
O7    V2    1.703352 S    
C1    C53   1.491947 S    
C12   C13   1.400657 A    
O3    V1    1.980805 S    
V1    O10   1.709927 S    
O17   V3    2.160929 S    
C14   H7    1.083609 S    
C9    C10   1.402315 A    
C84   H46   1.114832 S    
C19   C20   1.411572 A    
C40   C41   1.412984 A    
N3    O31   1.301082 A    
C67   H22   1.082476 S    
C5    C6    1.401699 A    
N6    O38   1.301385 A    
N2    O27   1.299321 A    
C41   C42   1.418590 A    
O17   V4    1.701483 S    
C68   H23   1.083267 S    
O12   C73   1.308547 A    
O19   V4    1.998893 S    
O11   C74   1.294575 A    
C39   C40   1.415490 A    
C20   C21   1.404294 A    
C25   C26   1.409889 A    
C47   C48   1.413568 A    
N3    O30   1.301050 A    
C59   H18   1.080892 S    
C17   C18   1.416604 A    
C29   C30   1.390305 A    
C11   H5    1.080189 S    
C10   C75   1.475513 S    
C8    H3    1.082713 S    
C79   H31   1.109424 S    
C51   O35   1.389841 S    
C81   H37   1.112232 S    
C61   C66   1.419644 A    
C80   H34   1.108599 S    
O15   C75   1.293210 A    
O8    C3    1.298707 A    
C82   H41   1.108819 S    
O14   C74   1.301743 A    
