data_mof_unit_9905.cif
_audit_creation_date              2012-12-10T18:16:21-0500
_audit_creation_method            fapswitch 2.2
_symmetry_space_group_name_H-M    P1
_symmetry_Int_Tables_number       1
_space_group_crystal_system       triclinic
_cell_length_a                    12.704543
_cell_length_b                    13.099976
_cell_length_c                    27.674904
_cell_angle_alpha                 92.301747
_cell_angle_beta                  102.831062
_cell_angle_gamma                 82.244945
_cell_volume                      4449.57702714

loop_
_atom_site_label
_atom_site_type_symbol
_atom_type_description
_atom_site_fract_x
_atom_site_fract_y
_atom_site_fract_z
_atom_type_partial_charge
C1    C     C_R   0.439625 0.690716 0.494484 0.988823
C2    C     C_R   0.597074 0.541536 0.730672 -0.117110
C3    C     C_R   0.514482 0.505553 0.748620 0.325720
C4    C     C_R   0.533681 0.502714 0.902036 -0.071098
C5    C     C_R   0.522734 0.598047 0.877767 -0.065818
C6    C     C_R   0.519092 0.690519 0.906030 0.003922
C7    C     C_R   0.540080 0.409724 0.874692 -0.007469
C8    C     C_R   0.505028 0.502807 0.646977 -0.031573
C9    C     C_R   0.498081 0.497218 0.354111 -0.044280
C10   C     C_R   0.547437 0.588335 0.033649 0.028167
C11   C     C_R   0.533501 0.402792 0.026883 -0.029446
C12   C     C_R   0.501325 0.500694 0.593814 0.894778
C13   C     C_R   0.539150 0.494759 0.055565 0.069822
C14   C     C_R   0.566433 0.675197 0.064485 -0.336825
C15   C     C_R   0.565264 0.674479 0.114853 0.499888
C16   C     C_R   0.545690 0.584246 0.135658 -0.062324
C17   C     C_R   0.535184 0.493483 0.106342 -0.177805
C18   C     C_R   0.519596 0.401687 0.127685 -0.120000
C19   C     C_R   0.503814 0.405978 0.176460 0.509821
C20   C     C_R   0.537354 0.581378 0.185379 0.555197
C21   C     C_R   0.420741 0.553534 0.270169 -0.234385
C22   C     C_R   0.415675 0.556324 0.320333 0.412423
C23   C     C_R   0.561108 0.309131 0.506570 0.846857
C24   C     C_R   0.583821 0.436921 0.338247 -0.312749
C25   C     C_R   0.588335 0.434908 0.288685 -0.112582
C26   C     C_R   0.507246 0.493408 0.254666 0.264346
C27   C     C_R   0.537436 0.592292 0.981677 0.057403
C28   C     C_R   0.537695 0.499761 0.953587 0.074832
C29   C     C_R   0.541272 0.404034 0.976603 0.073027
C30   C     C_R   0.524886 0.686475 0.956791 -0.264920
C31   C     C_R   0.551967 0.315543 0.898426 -0.150320
C32   C     C_R   0.519527 0.312313 0.049326 -0.229783
C33   C     C_R   0.516191 0.309984 0.098990 0.479388
C34   C     C_R   0.498715 0.499987 0.406500 0.915219
C35   C     C_R   0.552527 0.312520 0.948390 -0.222471
C36   C     C_R   0.672283 0.082245 0.586490 -0.164073
C37   C     C_R   0.599618 0.202786 0.520148 -0.042469
C38   C     C_R   0.331467 0.823721 0.439968 -0.202338
C39   C     C_R   0.329018 0.917328 0.418287 -0.139075
C40   C     C_R   0.401357 0.984613 0.440595 -0.163793
C41   C     C_R   0.470701 0.964466 0.487963 0.014292
C42   C     C_R   0.466272 0.872288 0.511941 0.027112
C43   C     C_R   0.542877 0.033241 0.512402 0.084748
C44   C     C_R   0.606311 0.011027 0.560817 0.123310
C45   C     C_R   0.513030 0.596489 0.825894 0.492781
C46   C     C_R   0.598346 0.921547 0.584416 -0.350317
C47   C     C_R   0.526638 0.853296 0.561247 0.415202
C48   C     C_R   0.549134 0.127052 0.491457 -0.251696
C49   C     C_R   0.666425 0.179393 0.566747 -0.199399
C50   C     C_R   0.404193 0.798806 0.485013 -0.071138
C51   C     C_R   0.088362 0.340976 0.433201 -0.337209
C52   C     C_R   0.799908 0.624247 0.562514 -0.036371
C53   C     C_R   0.907327 0.638083 0.583104 -0.032763
C54   C     C_R   0.989484 0.582594 0.562639 -0.231256
C55   C     C_R   0.964669 0.519312 0.520136 0.003023
C56   C     C_R   0.535241 0.412632 0.823937 0.498565
C57   C     C_R   0.855475 0.500330 0.504902 0.213150
C58   C     C_R   0.043889 0.469382 0.494294 -0.055877
C59   C     C_R   0.013415 0.389380 0.459523 0.108782
C60   C     C_R   0.905770 0.364648 0.448902 -0.046741
C61   C     C_R   0.828551 0.422403 0.470617 -0.250705
C62   C     C_R   0.149303 0.500466 0.498464 0.050874
C63   C     C_R   0.189614 0.373500 0.438902 0.109804
C64   C     C_R   0.426744 0.468795 0.715843 -0.097172
C65   C     C_R   0.422145 0.467008 0.665184 -0.246757
C66   C     C_R   0.592356 0.540401 0.680078 -0.215542
H1    H     H_    0.657004 0.568883 0.666956 0.149556
H2    H     H_    0.362714 0.440997 0.729750 0.140973
H3    H     H_    0.559942 0.243204 0.878335 0.178485
H4    H     H_    0.510104 0.240868 0.029162 0.168001
H5    H     H_    0.647035 0.391383 0.364385 0.176812
H6    H     H_    0.655429 0.388969 0.276632 0.145675
H7    H     H_    0.564502 0.236746 0.964028 0.143945
H8    H     H_    0.707182 0.238181 0.589211 0.153696
H9    H     H_    0.645051 0.906671 0.621874 0.151573
H10   H     H_    0.721177 0.065981 0.623406 0.144530
H11   H     H_    0.665129 0.569785 0.756032 0.134157
H12   H     H_    0.510011 0.146990 0.454073 0.118422
H13   H     H_    0.283888 0.767104 0.419345 0.185486
H14   H     H_    0.401375 0.050498 0.419187 0.123046
H15   H     H_    0.276275 0.934825 0.382328 0.153252
H16   H     H_    0.066934 0.282401 0.405418 0.167632
H17   H     H_    0.734159 0.664415 0.577715 0.152709
H18   H     H_    0.071518 0.583028 0.582925 0.145948
H19   H     H_    0.746967 0.404248 0.460330 0.212618
H20   H     H_    0.358707 0.598561 0.243247 0.142814
H21   H     H_    0.585585 0.744453 0.050548 0.140466
H22   H     H_    0.516354 0.759582 0.975839 0.149645
H23   H     H_    0.354553 0.436683 0.640471 0.157126
N1    N     N_R   0.520833 0.504892 0.800742 -0.352566
N2    N     N_R   0.515166 0.493937 0.204058 -0.355834
N3    N     N_R   0.222180 0.444690 0.474320 -0.129790
N4    N     N_R   0.776980 0.554780 0.525420 -0.133362
O1    O     O_R   0.366730 0.627160 0.487740 -0.609508
O2    O     O_2   0.550812 0.664953 0.215138 -0.478306
O3    O     O_2   0.544879 0.323908 0.797758 -0.579706
O4    O     O_2   0.474194 0.324519 0.196086 -0.550686
O5    O     O_R   0.544830 0.662520 0.504140 -0.596277
O6    O     O_R   0.410970 0.482310 0.563040 -0.632836
O7    O     O_R   0.589070 0.517670 0.579450 -0.615660
O8    O     O_R   0.455170 0.337480 0.495860 -0.606729
O9    O     O_R   0.633270 0.372840 0.512260 -0.644142
O10   O     O_R   0.410930 0.482330 0.420550 -0.577555
O11   O     O_R   0.589030 0.517690 0.436960 -0.648386
O12   O     O_2   0.493789 0.684936 0.800246 -0.559820
Zn1   Zn    Zn3+2 0.381080 0.476390 0.489050 0.971822
Zn2   Zn    Zn3+2 0.618920 0.523610 0.510950 0.944386
O13   O     O_3   0.511528 0.215700 0.118135 -0.721040
H24   H     H_    0.568991 0.207037 0.148968 0.355502
O14   O     O_3   0.510470 0.770426 0.586995 -0.800015
H25   H     H_    0.559078 0.768099 0.620471 0.328739
C67   C     C_R   0.246746 0.348252 0.398547 0.162616
C68   C     C_R   0.321641 0.259807 0.400529 -0.146033
C69   C     C_R   0.371479 0.232740 0.360642 -0.187080
C70   C     C_R   0.342098 0.291882 0.317672 -0.092179
C71   C     C_R   0.262975 0.377900 0.314565 -0.120521
C72   C     C_R   0.215888 0.406629 0.355002 -0.103505
H26   H     H_    0.338873 0.212650 0.433032 0.133928
H27   H     H_    0.431674 0.165426 0.362526 0.135338
H28   H     H_    0.379920 0.270640 0.286684 0.180526
H29   H     H_    0.238907 0.422872 0.281029 0.144179
H30   H     H_    0.154818 0.473627 0.352302 0.129883
C73   C     C_R   0.867474 0.282860 0.413192 0.117928
C74   C     C_R   0.828223 0.198407 0.429779 -0.161450
C75   C     C_R   0.785208 0.124465 0.395997 -0.148619
C76   C     C_R   0.780602 0.134527 0.345460 -0.091238
C77   C     C_R   0.818511 0.218814 0.328599 -0.140474
C78   C     C_R   0.860933 0.293319 0.362224 -0.188838
H31   H     H_    0.830208 0.190386 0.468795 0.142548
H32   H     H_    0.754935 0.059659 0.408981 0.141739
H33   H     H_    0.747082 0.077334 0.319333 0.143232
H34   H     H_    0.813930 0.227010 0.289400 0.136232
H35   H     H_    0.887662 0.359558 0.348593 0.139807
C79   C     C_R   0.166096 0.608924 0.512185 0.152619
C80   C     C_R   0.228075 0.636680 0.558388 -0.107366
C81   C     C_R   0.241580 0.739730 0.569671 -0.140091
C82   C     C_R   0.191125 0.816466 0.535469 -0.129046
C83   C     C_R   0.127474 0.790137 0.489887 -0.145498
C84   C     C_R   0.115664 0.686908 0.478097 -0.141785
H36   H     H_    0.260216 0.579819 0.586777 0.130992
H37   H     H_    0.288928 0.760313 0.605418 0.166413
H38   H     H_    0.200904 0.896316 0.544379 0.142953
H39   H     H_    0.088217 0.849665 0.463440 0.142231
H40   H     H_    0.066813 0.667628 0.442430 0.125112
C85   C     C_R   0.512741 0.793837 0.885009 0.192272
C86   C     C_R   0.414906 0.861167 0.877537 -0.127930
C87   C     C_R   0.409806 0.959695 0.858768 -0.134282
C88   C     C_R   0.502346 0.991644 0.847678 -0.105610
C89   C     C_R   0.600221 0.925172 0.855422 -0.132033
C90   C     C_R   0.605696 0.826601 0.874207 -0.094713
H41   H     H_    0.342891 0.837231 0.886176 0.127766
H42   H     H_    0.334183 0.011349 0.852899 0.134776
H43   H     H_    0.498259 0.067936 0.833177 0.145749
H44   H     H_    0.671880 0.950107 0.846961 0.133202
H45   H     H_    0.681979 0.775781 0.880281 0.118836
C91   C     C_R   0.933340 0.707306 0.626595 0.125790
C92   C     C_R   0.881529 0.705568 0.666472 -0.169189
C93   C     C_R   0.905298 0.772183 0.707040 -0.137002
C94   C     C_R   0.980706 0.841117 0.708172 -0.103155
C95   C     C_R   0.032222 0.843733 0.668665 -0.132640
C96   C     C_R   0.008506 0.777339 0.628024 -0.154970
H46   H     H_    0.823563 0.652117 0.666437 0.114375
H47   H     H_    0.865319 0.770246 0.737632 0.131885
H48   H     H_    0.998989 0.892673 0.739587 0.127246
H49   H     H_    0.090048 0.897651 0.669369 0.134676
H50   H     H_    0.046785 0.782035 0.597196 0.149037
O15   O     O_3   0.333201 0.616892 0.337196 -0.790181
H51   H     H_    0.282369 0.652754 0.308646 0.327891
O16   O     O_3   0.582508 0.761631 0.143952 -0.697046
H52   H     H_    0.593848 0.817986 0.123541 0.330279

loop_
_geom_bond_atom_site_label_1
_geom_bond_atom_site_label_2
_ccdc_geom_bond_type
C10   C27   A    
C58   C62   A    
C21   C26   A    
C8    C66   A    
C76   C77   A    
C52   H17   S    
C41   C42   A    
C87   C88   A    
C72   H30   S    
C82   H38   S    
C54   H18   S    
C69   C70   A    
C19   O4    S    
C80   C81   A    
C3    C64   A    
C71   C72   A    
C65   H23   S    
C92   C93   A    
C3    N1    S    
C5    C6    A    
C64   H2    S    
C28   C29   A    
C14   H21   S    
C68   C69   A    
C83   H39   S    
C38   C39   A    
C9    C22   A    
C23   O9    A    
C38   H13   S    
C15   C16   A    
O13   H24   S    
C15   O16   S    
C18   C19   A    
O16   H52   S    
C48   H12   S    
C63   C67   S    
C77   H34   S    
C67   C68   A    
C12   O6    A    
C36   H10   S    
O14   H25   S    
C75   H32   S    
O1    Zn1   S    
C44   C46   A    
C1    O1    A    
C62   N3    A    
C63   N3    A    
C74   H31   S    
C40   H14   S    
C43   C48   A    
C96   H50   S    
C8    C12   S    
C56   N1    A    
C66   H1    S    
C59   C60   A    
C89   H44   S    
C57   N4    A    
C21   C22   A    
C27   C30   A    
C41   C43   A    
C33   O13   S    
C7    C56   A    
C4    C7    A    
C46   H9    S    
C4    C28   A    
C45   O12   S    
C85   C86   A    
C80   H36   S    
C20   N2    A    
C7    C31   A    
C71   H29   S    
C73   C74   A    
C51   C63   A    
C88   C89   A    
C39   H15   S    
C10   C14   A    
O15   H51   S    
C6    C85   S    
C16   C17   A    
C32   H4    S    
C26   N2    S    
C23   C37   S    
C5    C45   A    
C34   O11   A    
O5    Zn2   S    
C68   H26   S    
C60   C61   A    
C91   C92   A    
C93   C94   A    
C60   C73   S    
C43   C44   A    
C81   H37   S    
C37   C49   A    
C84   H40   S    
C8    C65   A    
C94   C95   A    
C14   C15   A    
C16   C20   A    
C17   C18   A    
O9    Zn2   S    
C25   H6    S    
C46   C47   A    
C95   H49   S    
C24   C25   A    
C37   C48   A    
C57   C61   A    
C45   N1    A    
C51   H16   S    
C61   H19   S    
C93   H47   S    
C42   C50   A    
C22   O15   S    
N3    Zn1   S    
C40   C41   A    
C6    C30   A    
C20   O2    S    
C91   C96   A    
C90   H45   S    
C55   C57   A    
C75   C76   A    
C31   C35   A    
C36   C44   A    
C51   C59   A    
C88   H43   S    
C30   H22   S    
C77   C78   A    
C79   C84   A    
C52   C53   A    
C86   C87   A    
C1    C50   S    
O8    Zn1   S    
C56   O3    S    
O6    Zn1   S    
C54   C55   A    
C35   H7    S    
O7    Zn2   S    
C94   H48   S    
C85   C90   A    
C4    C5    A    
C2    C66   A    
C10   C13   A    
C1    O5    A    
C21   H20   S    
C9    C24   A    
C53   C54   A    
C79   C80   A    
C38   C50   A    
C47   O14   S    
C82   C83   A    
C29   C35   A    
C34   O10   A    
C13   C17   A    
C67   C72   A    
C32   C33   A    
C62   C79   S    
C52   N4    A    
C87   H42   S    
C25   C26   A    
C2    H11   S    
C89   C90   A    
C95   C96   A    
C11   C13   A    
C73   C78   A    
C23   O8    A    
C69   H27   S    
C76   H33   S    
C64   C65   A    
C9    C34   S    
C2    C3    A    
O10   Zn1   S    
C42   C47   A    
C18   C33   A    
C58   C59   A    
C12   O7    A    
C19   N2    A    
C83   C84   A    
C86   H41   S    
C39   C40   A    
C31   H3    S    
C11   C29   A    
C53   C91   S    
C70   H28   S    
C55   C58   A    
C27   C28   A    
C49   H8    S    
C81   C82   A    
C78   H35   S    
C92   H46   S    
O11   Zn2   S    
N4    Zn2   S    
C36   C49   A    
C70   C71   A    
C24   H5    S    
C74   C75   A    
C11   C32   A    
