data_mof_unit_66166.cif
_audit_creation_date              2012-12-10T19:40:01-0500
_audit_creation_method            fapswitch 2.2
_symmetry_space_group_name_H-M    P1
_symmetry_Int_Tables_number       1
_space_group_crystal_system       triclinic
_cell_length_a                    30.455735
_cell_length_b                    21.659888
_cell_length_c                    21.640461
_cell_angle_alpha                 90.661197
_cell_angle_beta                  134.734135
_cell_angle_gamma                 89.960803
_cell_volume                      10139.8136467

loop_
_atom_site_label
_atom_site_type_symbol
_atom_type_description
_atom_site_fract_x
_atom_site_fract_y
_atom_site_fract_z
_atom_type_partial_charge
C1    C     C_R   0.120055 0.500540 0.119671 0.878016
C2    C     C_3   0.555562 0.786537 0.163173 -0.464992
C3    C     C_R   0.999667 0.314075 0.998129 -0.117039
C4    C     C_R   0.497684 0.185428 0.998285 -0.096648
C5    C     C_R   0.499667 0.814075 0.998129 -0.117041
C6    C     C_3   0.916296 0.087307 0.132478 -0.489438
C7    C     C_3   0.416291 0.587302 0.132474 -0.489434
C8    C     C_R   0.958102 0.716661 0.918611 -0.214109
C9    C     C_R   0.974070 0.280736 0.922381 -0.206888
C10   C     C_R   0.458099 0.216661 0.918612 -0.214111
C11   C     C_R   0.474072 0.780736 0.922382 -0.206887
C12   C     C_R   0.957790 0.781388 0.918480 -0.212509
C13   C     C_R   0.216998 0.450267 0.239882 0.106223
C14   C     C_R   0.973968 0.216021 0.922530 -0.209471
C15   C     C_R   0.457787 0.281388 0.918480 -0.212507
C16   C     C_R   0.473970 0.716021 0.922531 -0.209470
C17   C     C_R   0.998489 0.814499 0.998010 -0.098226
C18   C     C_R   0.000781 0.185009 0.998898 -0.088739
C19   C     C_R   0.498489 0.314499 0.998010 -0.098229
C20   C     C_R   0.500781 0.685009 0.998898 -0.088737
C21   C     C_R   0.036734 0.781801 0.074500 0.132715
C22   C     C_R   0.026570 0.219341 0.072114 0.119562
C23   C     C_R   0.536736 0.281801 0.074500 0.132717
C24   C     C_R   0.716998 0.950267 0.239881 0.106223
C25   C     C_R   0.526569 0.719341 0.072114 0.119561
C26   C     C_1   0.859229 0.989185 0.664134 0.214943
C27   C     C_1   0.871719 0.101565 0.686050 0.173817
C28   C     C_1   0.359229 0.489187 0.664134 0.214944
C29   C     C_1   0.371721 0.601567 0.686052 0.173815
C30   C     C_R   0.185790 0.499570 0.183374 -0.079404
C31   C     C_R   0.685790 0.999569 0.183374 -0.079403
C32   C     C_R   0.218342 0.544028 0.181684 -0.219459
C33   C     C_R   0.718342 0.044029 0.181685 -0.219460
C34   C     C_R   0.282692 0.543891 0.245797 -0.217264
C35   C     C_R   0.782692 0.043892 0.245798 -0.217263
C36   C     C_R   0.313793 0.498157 0.309431 -0.098262
C37   C     C_R   0.620055 0.000540 0.119671 0.878016
C38   C     C_R   0.813793 0.998157 0.309430 -0.098264
C39   C     C_R   0.280458 0.449263 0.301888 0.149371
C40   C     C_R   0.780458 0.949262 0.301887 0.149372
C41   C     C_3   0.283754 0.422989 0.368567 -0.484407
C42   C     C_3   0.783754 0.922987 0.368565 -0.484406
C43   C     C_3   0.213607 0.424259 0.300003 -0.482111
C44   C     C_3   0.713607 0.924257 0.300001 -0.482113
C45   C     C_R   0.999756 0.619953 0.000038 0.878686
C46   C     C_R   0.999846 0.379891 0.999488 0.884946
C47   C     C_R   0.499756 0.119953 0.000038 0.878686
C48   C     C_3   0.085972 0.787585 0.171115 -0.490933
C49   C     C_R   0.499846 0.879891 0.999488 0.884946
C50   C     C_R   0.780134 0.465039 0.819632 0.131991
C51   C     C_R   0.280134 0.965039 0.819632 0.131991
C52   C     C_R   0.814555 0.502288 0.815055 -0.096492
C53   C     C_R   0.314555 0.002288 0.815055 -0.096492
C54   C     C_R   0.783224 0.541356 0.743252 -0.214168
C55   C     C_R   0.283224 0.041356 0.743251 -0.214168
C56   C     C_R   0.718456 0.541664 0.678686 -0.214529
C57   C     C_R   0.218456 0.041664 0.678686 -0.214528
C58   C     C_R   0.685452 0.501482 0.684947 -0.096067
C59   C     C_3   0.056751 0.215407 0.163585 -0.509939
C60   C     C_R   0.185452 0.001482 0.684947 -0.096067
C61   C     C_R   0.718234 0.463721 0.756333 0.132953
C62   C     C_R   0.218234 0.963721 0.756334 0.132953
C63   C     C_3   0.712546 0.415193 0.798594 -0.492357
C64   C     C_3   0.212546 0.915194 0.798594 -0.492356
C65   C     C_3   0.783776 0.416196 0.870916 -0.485665
C66   C     C_3   0.283776 0.916196 0.870916 -0.485666
C67   C     C_R   0.000280 0.999186 0.880019 0.873106
C68   C     C_R   0.500280 0.499186 0.880019 0.873106
C69   C     C_R   0.999645 0.880028 0.999611 0.879355
C70   C     C_3   0.585978 0.287585 0.171115 -0.490928
C71   C     C_R   0.000264 0.119821 0.000243 0.883204
C72   C     C_R   0.499645 0.380028 0.999611 0.879356
C73   C     C_R   0.500264 0.619820 0.000244 0.883205
C74   C     C_R   0.880038 0.500264 0.880288 0.882211
C75   C     C_R   0.380038 0.000264 0.880288 0.882210
C76   C     C_R   0.999738 0.999791 0.119640 0.878259
C77   C     C_R   0.499738 0.499791 0.119641 0.878259
C78   C     C_R   0.499954 0.499635 0.379984 0.880780
C79   C     C_R   0.999954 0.999635 0.379984 0.880781
C80   C     C_R   0.379762 0.499637 0.379517 0.874087
C81   C     C_3   0.556747 0.715407 0.163583 -0.509941
C82   C     C_R   0.879762 0.999637 0.379517 0.874087
C83   C     C_R   0.500392 0.500443 0.620412 0.877993
C84   C     C_R   0.000392 0.000443 0.620412 0.877993
C85   C     C_R   0.619933 0.500342 0.619932 0.879692
C86   C     C_R   0.119933 0.000342 0.619932 0.879692
C87   C     C_R   0.961723 0.038877 0.743815 0.031978
C88   C     C_R   0.461724 0.538878 0.743816 0.031977
C89   C     C_R   0.001681 0.000479 0.815403 -0.102404
C90   C     C_R   0.501681 0.500479 0.815403 -0.102404
C91   C     C_R   0.047571 0.968056 0.828516 -0.194806
C92   C     C_3   0.084967 0.716432 0.171253 -0.484889
C93   C     C_R   0.547571 0.468056 0.828516 -0.194806
C94   C     C_R   0.547616 0.467999 0.764234 -0.219994
C95   C     C_R   0.047616 0.968000 0.764234 -0.219994
C96   C     C_R   0.503367 0.502413 0.689028 -0.063598
C97   C     C_R   0.003367 0.002413 0.689028 -0.063598
C98   C     C_R   0.035416 0.719943 0.074636 0.128865
C99   C     C_R   0.025076 0.281187 0.071370 0.140831
C100  C     C_R   0.535418 0.219943 0.074636 0.128863
C101  C     C_R   0.525075 0.781187 0.071369 0.140831
C102  C     C_R   0.464117 0.541417 0.682753 0.099549
C103  C     C_3   0.055566 0.286537 0.163175 -0.464996
C104  C     C_R   0.964116 0.041417 0.682752 0.099548
C105  C     C_3   0.395827 0.548997 0.608814 -0.572272
C106  C     C_3   0.895827 0.048996 0.608813 -0.572274
C107  C     C_3   0.892591 0.044663 0.675863 -0.002474
C108  C     C_3   0.392592 0.544664 0.675864 -0.002475
C109  C     C_R   0.961991 0.036593 0.181783 0.127586
C110  C     C_R   0.461990 0.536591 0.181781 0.127588
C111  C     C_R   0.999464 0.997783 0.184809 -0.093599
C112  C     C_R   0.499464 0.497784 0.184809 -0.093602
C113  C     C_R   0.038371 0.957108 0.254965 -0.217341
C114  C     C_3   0.584972 0.216432 0.171252 -0.484894
C115  C     C_R   0.538373 0.457110 0.254968 -0.217339
C116  C     C_R   0.538127 0.456763 0.319491 -0.215074
C117  C     C_R   0.038125 0.956761 0.319488 -0.215073
C118  C     C_R   0.500433 0.498465 0.314888 -0.098493
C119  C     C_R   0.000433 0.998465 0.314888 -0.098495
C120  C     C_R   0.463406 0.537816 0.245092 0.134963
C121  C     C_R   0.963408 0.037818 0.245093 0.134964
C122  C     C_3   0.417414 0.588267 0.204814 -0.489825
C123  C     C_3   0.917419 0.088271 0.204818 -0.489821
C124  C     C_R   0.997684 0.685428 0.998285 -0.096651
H1    H     H_    0.927516 0.691287 0.857313 0.157648
H2    H     H_    0.308551 0.071558 0.737574 0.157399
H3    H     H_    0.694435 0.571991 0.623726 0.160024
H4    H     H_    0.194435 0.071991 0.623726 0.160023
H5    H     H_    0.692595 0.371400 0.759957 0.214084
H6    H     H_    0.690811 0.432861 0.820231 0.195248
H7    H     H_    0.192595 0.871400 0.759957 0.214084
H8    H     H_    0.190811 0.932862 0.820231 0.195248
H9    H     H_    0.804920 0.373146 0.873562 0.202174
H10   H     H_    0.803239 0.433997 0.934550 0.211996
H11   H     H_    0.304920 0.873146 0.873562 0.202174
H12   H     H_    0.953482 0.304357 0.863367 0.172047
H13   H     H_    0.303239 0.933998 0.934550 0.211996
H14   H     H_    0.081014 0.940389 0.885874 0.158682
H15   H     H_    0.581014 0.440388 0.885874 0.158682
H16   H     H_    0.580859 0.440275 0.772077 0.146410
H17   H     H_    0.080860 0.940276 0.772078 0.146409
H18   H     H_    0.373881 0.509671 0.561561 0.182406
H19   H     H_    0.384239 0.595113 0.578681 0.207520
H20   H     H_    0.873881 0.009670 0.561561 0.182406
H21   H     H_    0.884238 0.095111 0.578680 0.207520
H22   H     H_    0.068168 0.925708 0.259369 0.153888
H23   H     H_    0.427511 0.191287 0.857313 0.157646
H24   H     H_    0.568172 0.425711 0.259373 0.153890
H25   H     H_    0.927060 0.805292 0.857091 0.165112
H26   H     H_    0.953685 0.190468 0.864087 0.167892
H27   H     H_    0.427056 0.305292 0.857091 0.165113
H28   H     H_    0.453688 0.690468 0.864088 0.167891
H29   H     H_    0.567863 0.425195 0.373172 0.161352
H30   H     H_    0.067859 0.925191 0.373168 0.161353
H31   H     H_    0.437816 0.631298 0.245160 0.211040
H32   H     H_    0.373391 0.572371 0.182560 0.199405
H33   H     H_    0.937824 0.131301 0.245167 0.211040
H34   H     H_    0.453485 0.804357 0.863369 0.172048
H35   H     H_    0.873395 0.072378 0.182564 0.199405
H36   H     H_    0.936418 0.129612 0.131484 0.193753
H37   H     H_    0.871485 0.071255 0.068214 0.215254
H38   H     H_    0.436411 0.629609 0.131477 0.193753
H39   H     H_    0.371481 0.571249 0.068210 0.215254
H40   H     H_    0.068889 0.809446 0.197585 0.197258
H41   H     H_    0.025954 0.194083 0.168168 0.195597
H42   H     H_    0.568897 0.309446 0.197588 0.197258
H43   H     H_    0.525949 0.694083 0.168164 0.195597
H44   H     H_    0.129568 0.807437 0.195505 0.212092
H45   H     H_    0.194598 0.457378 0.315735 0.219644
H46   H     H_    0.104046 0.196059 0.207388 0.214616
H47   H     H_    0.629572 0.307437 0.195501 0.212092
H48   H     H_    0.604042 0.696059 0.207388 0.214616
H49   H     H_    0.067749 0.697116 0.198414 0.213988
H50   H     H_    0.024392 0.306201 0.168114 0.209134
H51   H     H_    0.567757 0.197116 0.198418 0.213988
H52   H     H_    0.524386 0.806201 0.168109 0.209133
H53   H     H_    0.127808 0.695247 0.195109 0.199616
H54   H     H_    0.102172 0.308305 0.206540 0.194150
H55   H     H_    0.627812 0.195246 0.195105 0.199616
H56   H     H_    0.192149 0.377452 0.278896 0.194254
H57   H     H_    0.602169 0.808305 0.206540 0.194151
H58   H     H_    0.194205 0.580357 0.134009 0.151538
H59   H     H_    0.694205 0.080358 0.134011 0.151537
H60   H     H_    0.307905 0.580143 0.247229 0.160273
H61   H     H_    0.807905 0.080144 0.247231 0.160274
H62   H     H_    0.305443 0.455329 0.424057 0.193034
H63   H     H_    0.302670 0.375470 0.386975 0.210142
H64   H     H_    0.805442 0.955326 0.424056 0.193035
H65   H     H_    0.802670 0.875468 0.386972 0.210142
H66   H     H_    0.694598 0.957375 0.315734 0.219643
H67   H     H_    0.692149 0.877450 0.278893 0.194255
H68   H     H_    0.808551 0.571559 0.737575 0.157399
N1    N     N_1   0.833063 0.945587 0.654912 -0.214511
N2    N     N_1   0.855133 0.146324 0.693853 -0.222397
N3    N     N_1   0.333062 0.445588 0.654911 -0.214511
N4    N     N_1   0.355134 0.646326 0.693855 -0.222396
O1    O     O_R   0.091640 0.500000 0.143360 -0.626235
O2    O     O_R   0.551700 0.500000 0.143310 -0.626231
O3    O     O_R   0.499940 0.551750 0.408310 -0.625510
O4    O     O_R   0.499940 0.448250 0.408310 -0.621942
O5    O     O_R   0.999940 0.051750 0.408310 -0.625510
O6    O     O_R   0.999940 0.948250 0.408310 -0.621943
O7    O     O_R   0.408380 0.551720 0.408370 -0.625304
O8    O     O_R   0.408380 0.448280 0.408370 -0.618223
O9    O     O_R   0.908380 0.051720 0.408370 -0.625304
O10   O     O_R   0.908380 0.948280 0.408370 -0.618223
O11   O     O_R   0.500050 0.551670 0.591650 -0.615410
O12   O     O_R   0.591640 0.000000 0.143360 -0.626235
O13   O     O_R   0.500050 0.448330 0.591650 -0.625016
O14   O     O_R   0.000050 0.051670 0.591650 -0.615409
O15   O     O_R   0.000050 0.948330 0.591650 -0.625015
O16   O     O_R   0.591610 0.551710 0.591590 -0.621939
O17   O     O_R   0.591610 0.448290 0.591590 -0.624628
O18   O     O_R   0.091610 0.051710 0.591590 -0.621939
O19   O     O_R   0.091610 0.948290 0.591590 -0.624628
O20   O     O_R   0.091570 0.500000 0.039860 -0.618655
O21   O     O_R   0.591570 0.000000 0.039860 -0.618654
O22   O     O_R   0.000030 0.591610 0.051750 -0.619987
O23   O     O_R   0.051710 0.908380 0.051700 -0.626860
O24   O     O_R   0.000030 0.408390 0.051750 -0.624878
O25   O     O_R   0.500030 0.091610 0.051750 -0.619986
O26   O     O_R   0.500030 0.908390 0.051750 -0.624879
O27   O     O_R   0.999970 0.591600 0.948260 -0.627062
O28   O     O_R   0.999970 0.408400 0.948260 -0.622851
O29   O     O_R   0.499970 0.091600 0.948260 -0.627062
O30   O     O_R   0.499970 0.908400 0.948260 -0.622851
O31   O     O_R   0.908410 0.500000 0.960140 -0.621064
O32   O     O_R   0.408410 0.000000 0.960140 -0.621064
O33   O     O_R   0.908350 0.500000 0.856640 -0.626032
O34   O     O_R   0.051710 0.091620 0.051700 -0.619429
O35   O     O_R   0.408350 0.000000 0.856640 -0.626032
O36   O     O_R   0.948280 0.000000 0.856590 -0.619921
O37   O     O_R   0.448280 0.500000 0.856590 -0.619920
O38   O     O_R   0.051720 0.000000 0.960100 -0.622671
O39   O     O_R   0.551720 0.500000 0.960100 -0.622671
O40   O     O_R   0.948270 0.908380 0.948190 -0.618867
O41   O     O_R   0.948270 0.091620 0.948190 -0.618962
O42   O     O_R   0.448270 0.408380 0.948190 -0.618867
O43   O     O_R   0.448270 0.591620 0.948190 -0.618962
O44   O     O_R   0.551710 0.408380 0.051700 -0.626860
O45   O     O_R   0.551710 0.591620 0.051700 -0.619429
O46   O     O_R   0.948260 0.000000 0.039800 -0.620422
O47   O     O_R   0.448260 0.500000 0.039800 -0.620421
O48   O     O_R   0.051700 0.000000 0.143310 -0.626230
Zn1   Zn    Zn3+2 0.000030 0.500000 0.069110 0.946034
Zn2   Zn    Zn3+2 0.500000 0.430940 0.499990 0.953425
Zn3   Zn    Zn3+2 1.000000 0.069060 0.499990 0.953937
Zn4   Zn    Zn3+2 0.000000 0.930940 0.499990 0.953424
Zn5   Zn    Zn3+2 0.500030 1.000000 0.069110 0.946035
Zn6   Zn    Zn3+2 0.999950 0.500000 0.930890 0.955793
Zn7   Zn    Zn3+2 0.499950 0.000000 0.930890 0.955793
Zn8   Zn    Zn3+2 0.930930 0.000000 0.930840 0.973708
Zn9   Zn    Zn3+2 0.430930 0.500000 0.930840 0.973707
Zn10  Zn    Zn3+2 0.069060 0.000000 0.069060 0.951642
Zn11  Zn    Zn3+2 0.569060 0.500000 0.069060 0.951642
Zn12  Zn    Zn3+2 0.500000 0.569060 0.499990 0.953937

loop_
_geom_bond_atom_site_label_1
_geom_bond_atom_site_label_2
_ccdc_geom_bond_type
O2    Zn11  S    
C113  H22   S    
C99   C103  S    
O24   Zn1   S    
C63   C65   S    
C67   O38   A    
C17   C69   S    
C93   C94   A    
O5    Zn3   S    
O23   Zn10  S    
C96   C102  A    
C49   O26   A    
C94   H16   S    
C122  H31   S    
C14   C18   A    
O10   Zn4   S    
C20   C73   S    
C37   O21   A    
C70   H47   S    
O35   Zn7   S    
C57   H4    S    
C15   H27   S    
C43   H45   S    
C84   O15   A    
C92   C98   S    
C39   C41   S    
C70   C114  S    
C4    C100  A    
C98   C124  A    
C106  H21   S    
C42   C44   S    
C3    C9    A    
C84   C97   S    
C71   O41   A    
C32   H58   S    
C75   O32   A    
C78   C118  S    
C69   O40   A    
C73   O43   A    
C52   C74   S    
C10   C15   A    
C109  C111  A    
C44   H67   S    
C88   C108  S    
C84   O14   A    
O3    Zn12  S    
C56   H3    S    
C80   O7    A    
C20   C25   A    
C115  C116  A    
C67   C89   S    
C28   N3    T    
C46   O28   A    
C41   H63   S    
C102  C105  S    
C60   C62   A    
C63   H6    S    
C83   O11   A    
C61   C63   S    
C86   O19   A    
C62   C64   S    
C6    H36   S    
C110  C112  A    
C44   H66   S    
C15   C19   A    
C87   C89   A    
O17   Zn2   S    
C7    C110  S    
C77   O47   A    
C64   H8    S    
C120  C122  S    
C79   O5    A    
C79   C119  S    
C12   C17   A    
O43   Zn9   S    
C50   C52   A    
C64   H7    S    
O41   Zn8   S    
C34   H60   S    
O18   Zn3   S    
O45   Zn11  S    
O46   Zn8   S    
C89   C91   A    
C59   H46   S    
C77   O2    A    
O38   Zn10  S    
O33   Zn6   S    
C59   H41   S    
C8    C12   A    
C10   H23   S    
O12   Zn5   S    
C21   C48   S    
C2    H52   S    
C58   C61   A    
C40   C42   S    
C23   C100  A    
C47   O25   A    
C33   C35   A    
O19   Zn4   S    
O29   Zn7   S    
O48   Zn10  S    
C38   C82   S    
C25   C81   S    
C45   O22   A    
C41   C43   S    
C23   C70   S    
C5    C49   S    
C19   C72   S    
C53   C75   S    
C51   C62   A    
C78   O4    A    
O14   Zn3   S    
O40   Zn8   S    
C74   O33   A    
C104  C106  S    
C7    H38   S    
C52   C54   A    
C54   C56   A    
C53   C55   A    
C45   C124  S    
O30   Zn7   S    
C105  C108  S    
C5    C101  A    
C43   H56   S    
C46   O24   A    
C31   C33   A    
O42   Zn9   S    
C45   O27   A    
O22   Zn1   S    
C13   C30   A    
C35   C38   A    
C100  C114  S    
C111  C113  A    
C116  C118  A    
C36   C80   S    
C110  C120  A    
C105  H18   S    
C9    C14   A    
C60   C86   S    
C19   C23   A    
C8    C124  A    
C57   C60   A    
O37   Zn9   S    
C123  H33   S    
C2    C101  S    
O9    Zn3   S    
C7    H39   S    
C115  H24   S    
C103  H50   S    
C17   C21   A    
C13   C39   A    
C31   C37   S    
C51   C53   A    
C51   C66   S    
C64   C66   S    
O15   Zn4   S    
O16   Zn12  S    
C77   C112  S    
C76   O46   A    
O11   Zn12  S    
C86   O18   A    
C33   H59   S    
C74   O31   A    
C93   H15   S    
C68   O39   A    
C85   O17   A    
O31   Zn1   S    
C91   H14   S    
C11   C16   A    
C8    H1    S    
C68   C90   S    
C47   O29   A    
C6    H37   S    
C27   C107  S    
C66   H11   S    
C35   H61   S    
C79   O6    A    
C14   H26   S    
C1    O20   A    
C72   O44   A    
C81   H43   S    
C55   H2    S    
C87   C107  S    
C29   C108  S    
C27   N2    T    
C16   C20   A    
C106  C107  S    
C94   C96   A    
C116  H29   S    
C83   O13   A    
C119  C121  A    
C54   H68   S    
C81   H48   S    
C113  C117  A    
O27   Zn6   S    
C114  H51   S    
O25   Zn5   S    
C67   O36   A    
C95   H17   S    
C55   C57   A    
C24   C44   S    
C37   O12   A    
C72   O42   A    
C78   O3    A    
O32   Zn5   S    
C7    C122  S    
C4    C10   A    
C85   O16   A    
C13   C43   S    
C70   H42   S    
C90   C93   A    
O7    Zn12  S    
C42   H64   S    
C18   C71   S    
C95   C97   A    
C24   C40   A    
O44   Zn11  S    
C22   C99   A    
C76   O48   A    
C69   O23   A    
C122  H32   S    
C12   H25   S    
C36   C39   A    
C1    O1    A    
C106  H20   S    
C65   H10   S    
C88   C90   A    
O34   Zn10  S    
C92   H53   S    
C26   C107  S    
C105  H19   S    
C88   C102  A    
C16   H28   S    
C5    C11   A    
C48   H40   S    
C18   C22   A    
O28   Zn6   S    
C92   H49   S    
C29   N4    T    
O6    Zn4   S    
C3    C46   S    
C58   C85   S    
O47   Zn9   S    
C82   O10   A    
C103  H54   S    
C59   C103  S    
C117  C119  A    
C24   C31   A    
O39   Zn11  S    
C38   C40   A    
C21   C98   A    
C42   H65   S    
C25   C101  A    
C80   O8    A    
C66   H13   S    
C123  H35   S    
C28   C108  S    
C76   C111  S    
C83   C96   S    
O13   Zn2   S    
O1    Zn1   S    
C1    C30   S    
C6    C109  S    
C71   O34   A    
C56   C58   A    
C41   H62   S    
C34   C36   A    
C30   C32   A    
C63   H5    S    
C22   C59   S    
C75   O35   A    
C50   C65   S    
C118  C120  A    
C121  C123  S    
C97   C104  A    
O4    Zn2   S    
C68   O37   A    
C91   C95   A    
C87   C104  A    
C9    H12   S    
C3    C99   A    
O36   Zn8   S    
C73   O45   A    
O26   Zn5   S    
O20   Zn6   S    
C114  H55   S    
C48   C92   S    
C117  H30   S    
O8    Zn2   S    
C50   C61   A    
C2    C81   S    
C109  C121  A    
O21   Zn7   S    
C82   O9    A    
C49   O30   A    
C26   N1    T    
C6    C123  S    
C48   H44   S    
C2    H57   S    
C112  C115  A    
C65   H9    S    
C11   H34   S    
C32   C34   A    
C4    C47   S    
