data_mof_unit_27993.cif
_audit_creation_date              2013-03-05T15:57:42-0500
_audit_creation_method            fapswitch 2.2
_symmetry_space_group_name_H-M    P1
_symmetry_Int_Tables_number       1
_space_group_crystal_system       triclinic
_cell_length_a                    19.561877
_cell_length_b                    17.563088
_cell_length_c                    12.600151
_cell_angle_alpha                 90.048243
_cell_angle_beta                  99.178424
_cell_angle_gamma                 89.932317
_cell_volume                      4273.56502625

loop_
_atom_site_label
_atom_site_type_symbol
_atom_site_description
_atom_site_fract_x
_atom_site_fract_y
_atom_site_fract_z
_atom_type_partial_charge
O1    O     O_R   0.448200 0.076800 0.373930 -0.611559
O2    O     O_R   0.448200 0.923200 0.373930 -0.608535
O3    O     O_R   0.948200 0.576800 0.373930 -0.611559
O4    O     O_R   0.948200 0.423200 0.373930 -0.608541
O5    O     O_R   0.414750 0.076790 0.542400 -0.602757
O6    O     O_R   0.414750 0.923210 0.542400 -0.617288
O7    O     O_R   0.914750 0.576790 0.542400 -0.602758
O8    O     O_R   0.914750 0.423210 0.542400 -0.617293
C1    C     C_R   0.408419 0.099679 0.441775 0.855851
C2    C     C_R   0.411765 0.896518 0.444144 0.845234
C3    C     C_R   0.908417 0.599677 0.441774 0.855865
C4    C     C_R   0.911765 0.396518 0.444144 0.845238
Zn1   Zn    Zn3+2 0.522330 0.000000 0.387520 0.940515
Zn2   Zn    Zn3+2 0.022330 0.500000 0.387520 0.940516
Zn3   Zn    Zn3+2 0.477660 0.000000 0.612480 0.934133
Zn4   Zn    Zn3+2 0.977660 0.500000 0.612480 0.934145
O9    O     O_R   0.585240 0.923200 0.457600 -0.608064
O10   O     O_R   0.585240 0.076800 0.457600 -0.617044
O11   O     O_R   0.085240 0.423200 0.457600 -0.608060
O12   O     O_R   0.085240 0.576800 0.457600 -0.617050
O13   O     O_R   0.551780 0.923190 0.626070 -0.641366
O14   O     O_R   0.551780 0.076810 0.626070 -0.624691
O15   O     O_R   0.051780 0.423190 0.626070 -0.641365
O16   O     O_R   0.051780 0.576810 0.626070 -0.624672
C5    C     C_R   0.589248 0.897771 0.556486 0.847398
C6    C     C_R   0.590693 0.100628 0.557533 0.861803
C7    C     C_R   0.089248 0.397770 0.556485 0.847384
C8    C     C_R   0.090693 0.600627 0.557533 0.861792
C9    C     C_R   0.749652 0.178233 0.726706 -0.166248
C10   C     C_R   0.643544 0.701710 0.647506 -0.153629
C11   C     C_R   0.249658 0.678224 0.726702 -0.166019
C12   C     C_R   0.143527 0.201700 0.647469 -0.153621
H1    H     H_    0.662934 0.114217 0.762218 0.150928
H2    H     H_    0.569755 0.781014 0.692505 0.155560
H3    H     H_    0.162939 0.614209 0.762215 0.150900
H4    H     H_    0.069737 0.281000 0.692470 0.155545
H5    H     H_    0.377018 0.736327 0.749857 0.150818
H6    H     H_    0.205200 0.069175 0.620618 0.200357
H7    H     H_    0.877012 0.236337 0.749864 0.150822
H8    H     H_    0.705222 0.569184 0.620678 0.200972
H9    H     H_    0.777032 0.174139 0.808347 0.140781
H10   H     H_    0.627158 0.656361 0.696008 0.170588
H11   H     H_    0.277040 0.674127 0.808342 0.140753
H12   H     H_    0.127133 0.156344 0.695952 0.170464
C13   C     C_R   0.648957 0.149681 0.595520 -0.051016
C14   C     C_R   0.632216 0.831357 0.583762 -0.048295
C15   C     C_R   0.148959 0.649678 0.595520 -0.050999
C16   C     C_R   0.132214 0.331355 0.583760 -0.048300
C17   C     C_R   0.332479 0.831746 0.300915 -0.174011
C18   C     C_R   0.370195 0.210973 0.328961 -0.177243
C19   C     C_R   0.832483 0.331741 0.300916 -0.173994
C20   C     C_R   0.870175 0.710955 0.328938 -0.177240
C21   C     C_R   0.276541 0.784022 0.269065 -0.123840
C22   C     C_R   0.328321 0.274723 0.308013 -0.132401
C23   C     C_R   0.776545 0.284017 0.269065 -0.123845
C24   C     C_R   0.828295 0.774699 0.307979 -0.132408
C25   C     C_R   0.247341 0.744178 0.345924 -0.196926
C26   C     C_R   0.275407 0.287704 0.367535 -0.182860
C27   C     C_R   0.747343 0.244175 0.345925 -0.196930
C28   C     C_R   0.775386 0.787684 0.367510 -0.182868
C29   C     C_R   0.276133 0.749015 0.456451 0.084977
C30   C     C_R   0.261525 0.234456 0.446013 0.088747
C31   C     C_R   0.776132 0.249015 0.456453 0.084998
C32   C     C_R   0.761516 0.734445 0.446007 0.088758
C33   C     C_R   0.339237 0.787783 0.485808 0.090345
C34   C     C_R   0.297155 0.164531 0.454526 0.089230
C35   C     C_R   0.839237 0.287784 0.485810 0.090359
C36   C     C_R   0.797151 0.664524 0.454531 0.089218
C37   C     C_R   0.744418 0.216715 0.538883 0.079614
C38   C     C_R   0.713476 0.748173 0.516349 0.079019
C39   C     C_R   0.244420 0.716711 0.538881 0.079586
C40   C     C_R   0.213478 0.248177 0.516345 0.078978
C41   C     C_R   0.780643 0.212516 0.645771 0.182432
C42   C     C_R   0.693224 0.688436 0.580614 0.157486
C43   C     C_R   0.280647 0.712509 0.645767 0.182453
C44   C     C_R   0.193215 0.188433 0.580587 0.157633
C45   C     C_R   0.347581 0.741329 0.669656 -0.222284
C46   C     C_R   0.221850 0.116187 0.575402 -0.205821
C47   C     C_R   0.847576 0.241336 0.669662 -0.222315
C48   C     C_R   0.721862 0.616191 0.575441 -0.205796
C49   C     C_R   0.376713 0.778434 0.590629 -0.191807
C50   C     C_R   0.273400 0.104294 0.513278 -0.203612
C51   C     C_R   0.876711 0.278438 0.590634 -0.191808
C52   C     C_R   0.773405 0.604292 0.513305 -0.203636
C53   C     C_R   0.676853 0.189789 0.518029 -0.247838
C54   C     C_R   0.685818 0.820315 0.525670 -0.243244
C55   C     C_R   0.176854 0.689788 0.518029 -0.247795
C56   C     C_R   0.185822 0.320319 0.525679 -0.243248
C57   C     C_R   0.684226 0.145546 0.701179 -0.198171
C58   C     C_R   0.612026 0.772905 0.647578 -0.205996
C59   C     C_R   0.184230 0.645539 0.701177 -0.198046
C60   C     C_R   0.112014 0.272896 0.647554 -0.205964
C61   C     C_R   0.362657 0.835724 0.409570 -0.118723
C62   C     C_R   0.356264 0.157029 0.404769 -0.110690
C63   C     C_R   0.862658 0.335723 0.409571 -0.118726
C64   C     C_R   0.856255 0.657020 0.404764 -0.110694
H13   H     H_    0.645262 0.196911 0.440273 0.151035
H14   H     H_    0.703074 0.868840 0.484618 0.140592
H15   H     H_    0.145262 0.696912 0.440275 0.151030
H16   H     H_    0.203083 0.368849 0.484641 0.140588
H17   H     H_    0.350833 0.867154 0.240968 0.168751
H18   H     H_    0.414747 0.205112 0.288368 0.161187
H19   H     H_    0.850837 0.367148 0.240968 0.168761
H20   H     H_    0.914723 0.705093 0.288335 0.161194
H21   H     H_    0.703462 0.208658 0.316341 0.138400
H22   H     H_    0.745157 0.838703 0.348490 0.135100
H23   H     H_    0.203460 0.708662 0.316340 0.138406
H24   H     H_    0.245183 0.338728 0.348523 0.135097
H25   H     H_    0.253896 0.780304 0.185015 0.163743
H26   H     H_    0.338693 0.315891 0.248686 0.148689
H27   H     H_    0.753901 0.280296 0.185015 0.163731
H28   H     H_    0.838659 0.815861 0.248638 0.148690
H29   H     H_    0.429245 0.798843 0.612227 0.165054
H30   H     H_    0.293799 0.047197 0.510288 0.166664
H31   H     H_    0.929243 0.298846 0.612232 0.165047
H32   H     H_    0.793804 0.547195 0.510321 0.166725
C65   C     C_R   0.644336 0.000228 0.135140 0.112252
C66   C     C_R   0.144336 0.500236 0.135140 0.112258
H33   H     H_    0.657175 0.000169 0.308130 0.138619
H34   H     H_    0.157175 0.500179 0.308130 0.138616
H35   H     H_    0.668708 0.000890 0.930091 0.167609
H36   H     H_    0.168708 0.500900 0.930091 0.167602
N1    N     N_R   0.552340 0.000000 0.237260 -0.125383
N2    N     N_R   0.052340 0.500000 0.237260 -0.125382
C67   C     C_R   0.378916 0.996580 0.762046 -0.083468
C68   C     C_R   0.878917 0.496557 0.762045 -0.083471
C69   C     C_R   0.353137 0.993443 0.858341 0.447164
C70   C     C_R   0.853139 0.493393 0.858339 0.447218
C71   C     C_R   0.399584 0.995136 0.954487 -0.306402
C72   C     C_R   0.899585 0.495095 0.954486 -0.306418
C73   C     C_R   0.471956 0.998425 0.953898 -0.038357
C74   C     C_R   0.971957 0.498412 0.953898 -0.038366
C75   C     C_R   0.494988 0.999929 0.853637 0.216296
C76   C     C_R   0.994988 0.499929 0.853637 0.216300
C77   C     C_R   0.522107 0.999346 0.048164 -0.011923
C78   C     C_R   0.022107 0.499340 0.048164 -0.011917
C79   C     C_R   0.594310 0.000064 0.040875 0.168742
C80   C     C_R   0.094311 0.500067 0.040875 0.168745
C81   C     C_R   0.614733 0.000488 0.939781 -0.281008
C82   C     C_R   0.114733 0.500495 0.939781 -0.280983
C83   C     C_R   0.565737 0.000530 0.848129 -0.189901
C84   C     C_R   0.065737 0.500536 0.848129 -0.189870
C85   C     C_R   0.503224 0.999724 0.150207 -0.069577
C86   C     C_R   0.003224 0.499720 0.150207 -0.069574
C87   C     C_R   0.621000 0.000094 0.233535 -0.007780
C88   C     C_R   0.121000 0.500100 0.233535 -0.007774
N3    N     N_R   0.448170 0.000000 0.762060 -0.160704
N4    N     N_R   0.948170 0.500000 0.762060 -0.160729
H37   H     H_    0.450485 0.000163 0.164466 0.142320
H38   H     H_    0.950485 0.500160 0.164465 0.142318
H39   H     H_    0.344011 0.995298 0.686419 0.180306
H40   H     H_    0.844014 0.495267 0.686418 0.180421
H41   H     H_    0.377560 0.992895 0.027394 0.182342
H42   H     H_    0.877562 0.492827 0.027393 0.182373
H43   H     H_    0.584904 0.000483 0.773644 0.209592
H44   H     H_    0.084904 0.500490 0.773644 0.209582
C89   C     C_3   0.721278 0.000446 0.133230 -0.956275
H45   H     H_    0.735954 0.948863 0.091051 0.252766
H46   H     H_    0.735657 0.052254 0.091445 0.250660
H47   H     H_    0.751661 0.000351 0.215643 0.239280
C90   C     C_3   0.221278 0.500464 0.133230 -0.956266
H48   H     H_    0.251661 0.500381 0.215643 0.239280
H49   H     H_    0.235961 0.448880 0.091062 0.252768
H50   H     H_    0.235651 0.552270 0.091436 0.250664
S1    S     S_3+6 0.263308 0.987207 0.857963 -0.008772
O17   O     O_2   0.249113 0.948213 0.958349 -0.299196
O18   O     O_2   0.233554 0.066284 0.853374 -0.323248
O19   O     O_3   0.226371 0.937732 0.749501 -0.586496
H51   H     H_    0.175886 0.942077 0.749630 0.381007
S2    S     S_3+6 0.763314 0.487087 0.857962 -0.008958
O20   O     O_2   0.749160 0.447981 0.958290 -0.299928
O21   O     O_2   0.733510 0.566136 0.853517 -0.322620
O22   O     O_3   0.726392 0.437688 0.749419 -0.586943
H52   H     H_    0.675949 0.441110 0.750397 0.381414

loop_
_geom_bond_atom_site_label_1
_geom_bond_atom_site_label_2
_geom_bond_distance
_ccdc_geom_bond_type
C7    C16   1.446156 S    
C3    C64   1.455847 S    
C71   H41   1.075843 S    
C66   C90   1.509148 S    
C26   C30   1.419141 A    
C89   H45   1.110342 S    
C23   C27   1.390120 A    
C13   C53   1.385435 A    
O10   C6    1.314680 A    
C10   C58   1.393555 A    
C9    C57   1.393264 A    
C90   H48   1.111158 S    
C14   C54   1.384557 A    
C28   H22   1.078857 S    
C8    C15   1.448430 S    
H3    C59   1.082219 S    
O22   H52   0.990545 S    
O7    C3    1.317242 A    
C79   C81   1.394491 A    
S1    O17   1.503330 D    
C11   H11   1.083753 S    
Zn1   O10   1.941344 S    
C32   C36   1.407077 A    
C44   C46   1.392078 A    
C73   C77   1.414842 A    
C31   C37   1.411690 A    
C10   C42   1.403448 A    
C74   C78   1.414842 A    
C9    C41   1.403275 A    
S2    O20   1.503333 D    
C19   H19   1.083512 S    
H34   C88   1.082595 S    
C22   H26   1.082777 S    
C65   C87   1.387830 A    
O2    Zn1   1.968903 S    
C86   H38   1.075079 S    
C67   H39   1.080370 S    
C6    C13   1.448430 S    
C40   C56   1.389354 A    
O6    Zn3   1.941224 S    
C68   H40   1.080368 S    
C76   C84   1.396802 A    
Zn3   O14   1.968879 S    
C20   H20   1.083361 S    
N1    C87   1.351393 A    
C47   C51   1.387077 A    
C19   C63   1.403500 A    
C38   C42   1.420605 A    
C68   C70   1.387396 A    
C76   N4    1.353914 A    
C16   C56   1.384555 A    
C4    C63   1.456308 S    
C37   C41   1.420232 A    
C75   N3    1.353914 A    
C32   C38   1.411256 A    
O8    C4    1.316036 A    
O4    C4    1.308792 A    
O11   C7    1.314443 A    
C26   H24   1.078857 S    
C53   H13   1.079023 S    
C40   C44   1.420603 A    
C34   C62   1.406460 A    
C23   H27   1.082755 S    
H4    C60   1.083241 S    
C33   C61   1.408643 A    
Zn4   O16   1.968879 S    
C42   C48   1.392080 A    
C35   C63   1.408643 A    
S1    O18   1.502817 D    
C10   H10   1.083745 S    
C65   C79   1.413366 A    
H33   C87   1.082596 S    
C90   H49   1.110341 S    
C28   C32   1.419142 A    
C55   H15   1.079023 S    
C41   C47   1.391677 A    
C31   C35   1.407185 A    
C27   C31   1.419021 A    
Zn2   N2    2.069733 S    
C30   C34   1.407080 A    
C65   C89   1.509147 S    
C48   C52   1.387197 A    
C36   C52   1.412621 A    
C51   H31   1.081688 S    
C66   C88   1.387831 A    
O1    C1    1.307192 A    
C50   H30   1.081690 S    
C78   C80   1.430029 A    
C67   N3    1.356105 A    
C68   N4    1.356102 A    
H1    C57   1.082221 S    
C18   C62   1.403362 A    
O12   C8    1.314678 A    
C2    C61   1.456305 S    
N2    C88   1.351395 A    
C24   C28   1.390211 A    
Zn3   N3    2.057149 S    
H7    C47   1.083927 S    
C89   H46   1.110366 S    
C72   C74   1.418184 A    
C69   C71   1.393876 A    
O5    C1    1.317244 A    
Zn2   O12   1.941344 S    
C34   C50   1.412615 A    
C46   C50   1.387192 A    
C11   C43   1.403274 A    
H2    C58   1.083242 S    
C45   C49   1.387077 A    
C69   S1    1.760018 S    
H8    C48   1.083088 S    
C12   H12   1.083743 S    
C30   C40   1.411257 A    
C72   H42   1.075846 S    
C27   H21   1.078743 S    
C35   C51   1.414223 A    
C43   C45   1.391677 A    
C56   H16   1.079347 S    
O3    Zn2   1.966752 S    
C80   C82   1.394490 A    
Zn1   N1    2.069733 S    
C39   C55   1.389248 A    
C74   C76   1.407578 A    
O19   H51   0.990711 S    
C25   H23   1.078742 S    
C18   H18   1.083361 S    
C70   S2    1.760022 S    
O15   C7    1.307219 A    
C16   C60   1.400036 A    
C52   H32   1.081687 S    
O1    Zn1   1.966752 S    
C49   H29   1.081688 S    
C38   C54   1.389348 A    
C90   H50   1.110365 S    
C37   C53   1.389247 A    
C22   C26   1.390213 A    
C21   H25   1.082754 S    
C77   C79   1.430030 A    
O13   C5    1.307218 A    
O7    Zn4   1.940236 S    
C21   C25   1.390120 A    
C13   C57   1.400245 A    
C9    H9    1.083755 S    
C15   C59   1.400244 A    
Zn2   O11   1.940357 S    
C78   C86   1.393255 A    
C83   H43   1.064733 S    
O16   C8    1.308159 A    
C82   C84   1.378104 A    
C73   C75   1.407579 A    
C70   C72   1.393880 A    
C12   C44   1.403445 A    
C25   C29   1.419019 A    
S1    O19   1.682050 S    
C14   C58   1.400040 A    
C89   H47   1.111159 S    
Zn4   O15   1.966730 S    
H6    C46   1.083079 S    
C36   C64   1.406466 A    
C11   C59   1.393265 A    
Zn1   O9    1.940357 S    
Zn4   N4    2.057149 S    
O9    C5    1.314445 A    
H35   C81   1.082088 S    
H36   C82   1.082089 S    
C18   C22   1.386948 A    
C39   C43   1.420231 A    
C81   C83   1.378103 A    
C29   C39   1.411689 A    
C12   C60   1.393554 A    
Zn3   O13   1.966730 S    
S2    O21   1.502785 D    
C17   C21   1.386536 A    
C1    C62   1.455841 S    
C77   C85   1.393255 A    
C20   C64   1.403367 A    
C19   C23   1.386537 A    
O4    Zn2   1.968903 S    
C54   H14   1.079345 S    
O5    Zn3   1.940236 S    
O3    C3    1.307195 A    
O6    C2    1.316037 A    
C29   C33   1.407186 A    
C85   H37   1.075077 S    
C84   H44   1.064732 S    
H5    C45   1.083926 S    
O8    Zn4   1.941224 S    
O14   C6    1.308155 A    
N1    C85   1.337944 A    
C67   C69   1.387396 A    
C33   C49   1.414221 A    
N2    C86   1.337947 A    
C75   C83   1.396804 A    
C17   C61   1.403500 A    
C66   C80   1.413366 A    
C5    C14   1.446160 S    
C24   H28   1.082780 S    
C20   C24   1.386945 A    
C17   H17   1.083512 S    
C15   C55   1.385434 A    
C71   C73   1.418183 A    
S2    O22   1.682029 S    
O2    C2    1.308791 A    
