data_mof_unit_28006.cif
_audit_creation_date              2012-12-10T16:32:40-0500
_audit_creation_method            fapswitch 2.2
_symmetry_space_group_name_H-M    P1
_symmetry_Int_Tables_number       1
_space_group_crystal_system       triclinic
_cell_length_a                    17.062057
_cell_length_b                    17.073439
_cell_length_c                    17.050062
_cell_angle_alpha                 66.792824
_cell_angle_beta                  66.815769
_cell_angle_gamma                 66.764729
_cell_volume                      4024.33874737

loop_
_atom_site_label
_atom_site_type_symbol
_atom_type_description
_atom_site_fract_x
_atom_site_fract_y
_atom_site_fract_z
_atom_type_partial_charge
C1    C     C_R   0.593765 0.026793 0.592965 0.245685
C2    C     C_R   0.823607 0.566929 0.024889 0.907491
C3    C     C_R   0.433092 0.975084 0.176414 0.906630
C4    C     C_R   0.566908 0.024916 0.823585 0.906630
C5    C     C_R   0.566866 0.823616 0.025126 0.901985
C6    C     C_R   0.433134 0.176384 0.974874 0.901986
C7    C     C_R   0.024891 0.566918 0.823598 0.907757
C8    C     C_R   0.975109 0.433082 0.176402 0.907757
C9    C     C_R   0.823594 0.025158 0.566844 0.901671
C10   C     C_R   0.176405 0.974842 0.433156 0.901671
C11   C     C_R   0.546002 0.014556 0.543999 -0.394815
C12   C     C_R   0.406235 0.973207 0.407035 0.245685
C13   C     C_R   0.453998 0.985444 0.456001 -0.394815
C14   C     C_R   0.014552 0.546076 0.543934 -0.399860
C15   C     C_R   0.985448 0.453924 0.456066 -0.399861
C16   C     C_R   0.544067 0.546029 0.014444 -0.382534
C17   C     C_R   0.455933 0.453971 0.985556 -0.382532
C18   C     C_R   0.585687 0.945429 0.502970 0.530922
C19   C     C_R   0.414313 0.054572 0.497030 0.530921
C20   C     C_R   0.068791 0.459808 0.540846 0.516100
C21   C     C_R   0.931209 0.540192 0.459154 0.516100
C22   C     C_R   0.502608 0.585728 0.945539 0.507816
C23   C     C_R   0.026724 0.593872 0.592925 0.247760
C24   C     C_R   0.497392 0.414272 0.054461 0.507815
C25   C     C_R   0.540230 0.931148 0.459319 0.524212
C26   C     C_R   0.459770 0.068853 0.540681 0.524213
C27   C     C_R   0.458912 0.540261 0.931369 0.509853
C28   C     C_R   0.541088 0.459739 0.068630 0.509853
C29   C     C_R   0.054513 0.414285 0.497273 0.519009
C30   C     C_R   0.945487 0.585714 0.502727 0.519009
C31   C     C_R   0.554046 0.029468 0.681423 -0.109724
C32   C     C_R   0.445954 0.970533 0.318576 -0.109724
C33   C     C_R   0.030020 0.681967 0.553597 -0.101806
C34   C     C_R   0.973276 0.406128 0.407074 0.247760
C35   C     C_R   0.969980 0.318032 0.446403 -0.101806
C36   C     C_R   0.681520 0.554130 0.029297 -0.127774
C37   C     C_R   0.318480 0.445870 0.970703 -0.127775
C38   C     C_R   0.318124 0.969896 0.446378 -0.097225
C39   C     C_R   0.681876 0.030104 0.553622 -0.097224
C40   C     C_R   0.446280 0.318043 0.970077 -0.109492
C41   C     C_R   0.553720 0.681957 0.029923 -0.109491
C42   C     C_R   0.970589 0.445850 0.318596 -0.123793
C43   C     C_R   0.029411 0.554149 0.681404 -0.123792
C44   C     C_R   0.605761 0.023584 0.732013 -0.142482
C45   C     C_R   0.593070 0.593846 0.026582 0.248736
C46   C     C_R   0.394239 0.976416 0.267987 -0.142482
C47   C     C_R   0.023823 0.732212 0.605646 -0.127202
C48   C     C_R   0.976176 0.267788 0.394354 -0.127202
C49   C     C_R   0.732046 0.605795 0.023492 -0.140060
C50   C     C_R   0.267954 0.394205 0.976508 -0.140060
C51   C     C_R   0.267818 0.976144 0.394343 -0.130277
C52   C     C_R   0.732181 0.023856 0.605657 -0.130277
C53   C     C_R   0.394305 0.267790 0.976244 -0.127989
C54   C     C_R   0.605695 0.732210 0.023756 -0.127989
C55   C     C_R   0.976461 0.394199 0.267994 -0.142276
C56   C     C_R   0.406930 0.406154 0.973418 0.248736
C57   C     C_R   0.023539 0.605801 0.732006 -0.142276
C58   C     C_R   0.696778 0.009042 0.696708 -0.100176
C59   C     C_R   0.303222 0.990958 0.303292 -0.100177
C60   C     C_R   0.009008 0.696778 0.696693 -0.098779
C61   C     C_R   0.990992 0.303222 0.303307 -0.098779
C62   C     C_R   0.696701 0.696768 0.008946 -0.097445
C63   C     C_R   0.303299 0.303232 0.991054 -0.097445
C64   C     C_1   0.754325 0.975170 0.754344 0.284060
C65   C     C_1   0.245675 0.024830 0.245656 0.284060
C66   C     C_1   0.975137 0.754269 0.754309 0.284697
C67   C     C_R   0.974845 0.176399 0.433147 0.901000
C68   C     C_1   0.024863 0.245731 0.245691 0.284697
C69   C     C_1   0.754259 0.754235 0.975063 0.285404
C70   C     C_1   0.245740 0.245764 0.024937 0.285405
C71   C     C_R   0.025155 0.823601 0.566853 0.900999
C72   C     C_R   0.176393 0.433071 0.975111 0.907491
F1    F     F_    0.420289 0.137212 0.577829 -0.571281
F2    F     F_    0.506756 0.667760 0.889945 -0.593405
F3    F     F_    0.862892 0.579658 0.421853 -0.572955
F4    F     F_    0.137107 0.420342 0.578147 -0.572955
F5    F     F_    0.579710 0.862788 0.422171 -0.571281
F6    F     F_    0.889855 0.667726 0.507016 -0.561130
F7    F     F_    0.110145 0.332274 0.492984 -0.561130
F8    F     F_    0.578596 0.420196 0.136820 -0.592132
F9    F     F_    0.421404 0.579804 0.863180 -0.592132
F10   F     F_    0.332324 0.110238 0.492503 -0.558539
F11   F     F_    0.667675 0.889762 0.507497 -0.558539
F12   F     F_    0.493244 0.332240 0.110055 -0.593405
H1    H     H_    0.484578 0.031437 0.711947 0.201222
H2    H     H_    0.483651 0.711910 0.034212 0.185652
H3    H     H_    0.968614 0.515285 0.288062 0.198307
H4    H     H_    0.031386 0.484715 0.711938 0.198307
H5    H     H_    0.515421 0.968564 0.288053 0.201222
H6    H     H_    0.034282 0.711917 0.483501 0.186704
H7    H     H_    0.965718 0.288083 0.516499 0.186704
H8    H     H_    0.712087 0.484688 0.031261 0.196931
H9    H     H_    0.287913 0.515312 0.968738 0.196931
H10   H     H_    0.288200 0.965627 0.516470 0.190112
H11   H     H_    0.711800 0.034373 0.483530 0.190111
H12   H     H_    0.516349 0.288090 0.965788 0.185652
N1    N     N_1   0.799716 0.950574 0.799797 -0.159956
N2    N     N_1   0.200283 0.049425 0.200203 -0.159956
N3    N     N_1   0.950541 0.799621 0.799745 -0.157388
N4    N     N_1   0.049459 0.200379 0.200255 -0.157388
N5    N     N_1   0.799654 0.799567 0.950458 -0.155228
N6    N     N_1   0.200346 0.200433 0.049542 -0.155228
O1    O     O_R   0.982940 0.138950 0.510160 -0.621127
O2    O     O_R   0.982940 0.510160 0.138950 -0.630091
O3    O     O_R   0.861050 0.017060 0.489840 -0.618300
O4    O     O_R   0.138950 0.982940 0.510160 -0.618300
O5    O     O_R   0.867700 0.025880 0.612340 -0.633269
O6    O     O_R   0.132300 0.974120 0.387660 -0.633269
O7    O     O_R   0.025880 0.612340 0.867700 -0.625646
O8    O     O_R   0.974120 0.387660 0.132300 -0.625646
O9    O     O_R   0.612340 0.867700 0.025880 -0.624915
O10   O     O_R   0.387660 0.132300 0.974120 -0.624915
O11   O     O_R   0.387660 0.974120 0.132300 -0.631835
O12   O     O_R   0.017060 0.861050 0.489840 -0.621127
O13   O     O_R   0.612340 0.025880 0.867700 -0.631835
O14   O     O_R   0.132300 0.387660 0.974120 -0.623268
O15   O     O_R   0.867700 0.612340 0.025880 -0.623268
O16   O     O_R   0.974120 0.132300 0.387660 -0.630358
O17   O     O_R   0.025880 0.867700 0.612340 -0.630358
O18   O     O_R   0.138950 0.510160 0.982940 -0.632335
O19   O     O_R   0.861050 0.489840 0.017060 -0.632335
O20   O     O_R   0.510160 0.982940 0.138950 -0.622482
O21   O     O_R   0.489840 0.017060 0.861050 -0.622482
O22   O     O_R   0.489840 0.861050 0.017060 -0.627429
O23   O     O_R   0.510160 0.138950 0.982940 -0.627428
O24   O     O_R   0.017060 0.489840 0.861050 -0.630091
Zn1   Zn    Zn3+2 0.004880 0.004880 0.583590 1.041738
Zn2   Zn    Zn3+2 0.995120 0.995120 0.416410 1.041738
Zn3   Zn    Zn3+2 0.004880 0.583590 0.004880 1.029016
Zn4   Zn    Zn3+2 0.995120 0.416410 0.995120 1.029016
Zn5   Zn    Zn3+2 0.583590 0.004880 0.004880 1.036305
Zn6   Zn    Zn3+2 0.416410 0.995120 0.995120 1.036305

loop_
_geom_bond_atom_site_label_1
_geom_bond_atom_site_label_2
_ccdc_geom_bond_type
C16   C28   A    
C11   C18   A    
C31   H1    S    
O11   Zn6   S    
O21   Zn6   S    
C4    O13   A    
C10   O6    A    
C34   C42   A    
O19   Zn4   S    
C67   O1    A    
O13   Zn5   S    
C41   H2    S    
C9    C52   S    
C5    O22   A    
O22   Zn6   S    
C25   F5    S    
C43   H4    S    
C40   H12   S    
C65   N2    T    
C46   C59   A    
O24   Zn4   S    
C9    O3    A    
C1    C31   A    
C26   F1    S    
C23   C43   A    
C20   F4    S    
C34   C35   A    
C19   C26   A    
C50   C72   S    
C47   C60   A    
C37   C56   A    
C44   C58   A    
C23   C33   A    
C1    C11   S    
C19   F10   S    
O15   Zn3   S    
C15   C34   S    
C3    O20   A    
C32   C46   A    
C36   H8    S    
C39   C52   A    
C60   C66   S    
C48   C67   S    
C12   C32   A    
C50   C63   A    
C13   C25   A    
C18   C25   A    
O16   Zn2   S    
C14   C30   A    
C35   C48   A    
C71   O12   A    
C8    C55   S    
C2    O15   A    
C15   C29   A    
C20   C29   A    
C58   C64   S    
C17   C24   A    
C31   C44   A    
C13   C19   A    
O18   Zn3   S    
C17   C27   A    
C14   C20   A    
C5    C54   S    
C27   F9    S    
C3    O11   A    
C1    C39   A    
C57   C60   A    
C38   C51   A    
C5    O9    A    
C11   C26   A    
C40   C56   A    
O4    Zn1   S    
O10   Zn6   S    
C7    O7    A    
C62   C69   S    
C4    C44   S    
C66   N3    T    
C68   N4    T    
C2    C49   S    
C8    O8    A    
C42   C55   A    
O12   Zn2   S    
O23   Zn5   S    
C32   H5    S    
C29   F7    S    
C63   C70   S    
C47   C71   S    
C38   H10   S    
C18   F11   S    
C37   H9    S    
C36   C45   A    
O6    Zn2   S    
C8    O2    A    
C17   C56   S    
C39   H11   S    
C52   C58   A    
O9    Zn5   S    
C64   N1    T    
C72   O18   A    
O7    Zn3   S    
C22   C27   A    
C33   C47   A    
C10   O4    A    
C51   C59   A    
C22   F2    S    
C6    C53   S    
O20   Zn5   S    
O1    Zn1   S    
C2    O19   A    
C72   O14   A    
C16   C22   A    
C49   C62   A    
O3    Zn2   S    
C6    O10   A    
C24   C28   A    
C6    O23   A    
C16   C45   S    
C70   N6    T    
C69   N5    T    
C14   C23   S    
C9    O5    A    
C54   C62   A    
C21   C30   A    
C21   F3    S    
C3    C46   S    
C71   O17   A    
O2    Zn3   S    
C10   C51   S    
C24   F12   S    
O5    Zn1   S    
C33   H6    S    
C59   C65   S    
C37   C50   A    
C53   C63   A    
C61   C68   S    
C48   C61   A    
C55   C61   A    
O8    Zn4   S    
C7    O24   A    
C12   C38   A    
C28   F8    S    
C67   O16   A    
C41   C54   A    
C43   C57   A    
C30   F6    S    
C15   C21   A    
O14   Zn4   S    
C12   C13   S    
C4    O21   A    
C40   C53   A    
C41   C45   A    
C42   H3    S    
C7    C57   S    
C36   C49   A    
O17   Zn1   S    
C35   H7    S    
