data_mof_unit_59976.cif
_audit_creation_date              2012-12-10T19:44:58-0500
_audit_creation_method            fapswitch 2.2
_symmetry_space_group_name_H-M    P1
_symmetry_Int_Tables_number       1
_space_group_crystal_system       triclinic
_cell_length_a                    14.953838
_cell_length_b                    10.862012
_cell_length_c                    13.652486
_cell_angle_alpha                 90.739227
_cell_angle_beta                  90.568344
_cell_angle_gamma                 88.405638
_cell_volume                      2216.41208256

loop_
_atom_site_label
_atom_site_type_symbol
_atom_type_description
_atom_site_fract_x
_atom_site_fract_y
_atom_site_fract_z
_atom_type_partial_charge
C1    C     C_R   0.498593 0.261983 0.499006 0.795443
C2    C     C_R   0.502907 0.737835 0.501008 0.794102
C3    C     C_R   0.052293 0.277106 0.483178 0.422401
C4    C     C_R   0.948013 0.726683 0.511735 0.426124
C5    C     C_R   0.355426 0.214253 0.197802 0.416567
C6    C     C_R   0.654436 0.752134 0.781746 0.437981
C7    C     C_R   0.374963 0.167203 0.292650 -0.313993
C8    C     C_R   0.629270 0.804063 0.691610 -0.237416
C9    C     C_R   0.459375 0.113536 0.313909 0.100613
C10   C     C_R   0.554509 0.884695 0.684086 0.067490
C11   C     C_R   0.523342 0.102759 0.239946 -0.237219
C12   C     C_R   0.506270 0.915531 0.768843 -0.233511
C13   C     C_R   0.503797 0.144452 0.145885 -0.294610
C14   C     C_R   0.530727 0.865139 0.858978 -0.318742
C15   C     C_R   0.420345 0.199222 0.124026 0.440513
C16   C     C_R   0.605364 0.783208 0.866966 0.409328
C17   C     C_R   0.483474 0.931948 0.415589 -0.249733
C18   C     C_R   0.521857 0.067750 0.584359 -0.252806
C19   C     C_R   0.505842 0.871473 0.502778 -0.089410
C20   C     C_R   0.498742 0.128129 0.497225 -0.094028
C21   C     C_R   0.527049 0.940083 0.588612 0.045423
C22   C     C_R   0.479880 0.059228 0.411123 0.046414
C23   C     C_R   0.328811 0.503136 0.499645 0.799027
C24   C     C_R   0.671234 0.498372 0.500217 0.801435
C25   C     C_R   0.565062 0.435050 0.793299 0.065251
C26   C     C_R   0.435115 0.565167 0.206759 0.035585
C27   C     C_R   0.435295 0.565966 0.792994 0.035242
C28   C     C_R   0.565321 0.435220 0.207156 0.014621
C29   C     C_R   0.433421 0.568179 0.896417 -0.082015
C30   C     C_R   0.569186 0.436733 0.103870 -0.094868
C31   C     C_R   0.500884 0.502237 0.948291 0.086827
C32   C     C_R   0.501657 0.502586 0.051958 0.100525
C33   C     C_R   0.567463 0.435438 0.896375 -0.013369
C34   C     C_R   0.433995 0.567110 0.103766 -0.020617
C35   C     C_R   0.366466 0.635034 0.948469 0.450807
C36   C     C_R   0.638203 0.374322 0.051167 0.445718
C37   C     C_R   0.366457 0.631388 0.052087 -0.308378
C38   C     C_R   0.635088 0.371249 0.948175 -0.248460
C39   C     C_R   0.810114 0.611238 0.503852 -0.212134
C40   C     C_R   0.189794 0.391790 0.491601 -0.259640
C41   C     C_R   0.767427 0.498872 0.500131 -0.044002
C42   C     C_R   0.232678 0.503628 0.498798 -0.060120
C43   C     C_R   0.815995 0.387724 0.492449 -0.229877
C44   C     C_R   0.184302 0.615064 0.505553 -0.210975
C45   C     C_R   0.909166 0.388083 0.490962 0.073939
C46   C     C_R   0.091041 0.615132 0.505273 0.071761
C47   C     C_R   0.953190 0.501380 0.498434 -0.005592
C48   C     C_R   0.046883 0.501977 0.498439 -0.008094
C49   C     C_R   0.903424 0.614019 0.504669 0.010509
C50   C     C_R   0.096571 0.389490 0.491019 0.029829
C51   C     C_R   0.958816 0.277284 0.481708 -0.307954
C52   C     C_R   0.041463 0.726242 0.511191 -0.294376
Cu1   Cu    Cu3+1 0.500010 0.499980 0.597420 0.952223
Cu2   Cu    Cu3+1 0.499990 0.500020 0.402580 0.930234
H1    H     H_    0.770057 0.695849 0.506146 0.152831
H2    H     H_    0.229727 0.307143 0.486373 0.155560
H3    H     H_    0.467272 0.879807 0.349764 0.159452
H4    H     H_    0.538541 0.120438 0.649741 0.162186
H5    H     H_    0.615505 0.383601 0.752288 0.130150
H6    H     H_    0.384073 0.615446 0.247773 0.123708
H7    H     H_    0.385466 0.617449 0.751206 0.176315
H8    H     H_    0.614326 0.382415 0.248998 0.162422
H9    H     H_    0.313280 0.677825 0.092523 0.138863
H10   H     H_    0.686638 0.319658 0.908744 0.143073
H11   H     H_    0.781088 0.301569 0.487527 0.125425
H12   H     H_    0.219390 0.701034 0.510944 0.121871
H13   H     H_    0.925325 0.190779 0.472586 0.170550
H14   H     H_    0.075024 0.813142 0.515385 0.167023
H15   H     H_    0.325501 0.171068 0.349981 0.134476
H16   H     H_    0.666832 0.778949 0.626709 0.141576
H17   H     H_    0.588755 0.062401 0.255552 0.170733
H18   H     H_    0.448400 0.977257 0.764736 0.160405
H19   H     H_    0.554426 0.136410 0.089863 0.187020
H20   H     H_    0.489515 0.887686 0.921635 0.135080
N1    N     N_R   0.499960 0.499900 0.743810 -0.201654
N2    N     N_R   0.500040 0.500100 0.256190 -0.191335
O1    O     O_R   0.500000 0.319630 0.582270 -0.594525
O2    O     O_R   0.500000 0.680370 0.417730 -0.589692
O3    O     O_R   0.499990 0.319660 0.417730 -0.572122
O4    O     O_R   0.500010 0.680340 0.582270 -0.573482
O5    O     O_R   0.370260 0.499960 0.582280 -0.578819
O6    O     O_R   0.629740 0.500040 0.417720 -0.592668
O7    O     O_R   0.370250 0.499990 0.417740 -0.603051
O8    O     O_R   0.629750 0.500010 0.582260 -0.562489
O9    O     O_3   0.296979 0.692171 0.896363 -0.623705
C53   C     C_3   0.280345 0.815233 0.928307 0.048576
H21   H     H_    0.284537 0.875060 0.863325 0.154938
H22   H     H_    0.330062 0.850608 0.982557 0.110545
C54   C     C_3   0.185572 0.827830 0.969273 -0.329946
H23   H     H_    0.136489 0.803014 0.911098 0.222224
H24   H     H_    0.178022 0.763521 0.031029 0.215932
C55   C     C_3   0.164626 0.958837 0.005378 -0.925590
H25   H     H_    0.212232 0.985096 0.064542 0.258701
H26   H     H_    0.095716 0.964533 0.034947 0.264055
H27   H     H_    0.168918 0.024397 0.944022 0.252379
O10   O     O_3   0.705648 0.307594 0.098519 -0.633301
C56   C     C_3   0.771732 0.387904 0.134707 0.046198
H28   H     H_    0.810782 0.337612 0.191954 0.180059
H29   H     H_    0.742807 0.471755 0.171399 0.122735
C57   C     C_3   0.835869 0.424310 0.053694 -0.366894
H30   H     H_    0.864253 0.339955 0.017469 0.228212
H31   H     H_    0.798872 0.479810 0.998017 0.224887
C58   C     C_3   0.911967 0.500658 0.095010 -0.913667
H32   H     H_    0.884978 0.587178 0.129072 0.255988
H33   H     H_    0.957686 0.524671 0.035007 0.257987
H34   H     H_    0.950602 0.447536 0.150896 0.260999
O11   O     O_3   0.100483 0.167620 0.470600 -0.585376
C59   C     C_3   0.111958 0.110130 0.562326 0.062156
H35   H     H_    0.052766 0.053824 0.577375 0.164691
H36   H     H_    0.121224 0.177142 0.624152 0.136792
C60   C     C_3   0.195179 0.026162 0.559090 -0.816895
H37   H     H_    0.255709 0.081954 0.550605 0.241156
H38   H     H_    0.201547 0.973579 0.628160 0.204996
H39   H     H_    0.190955 0.960496 0.496345 0.251862
O12   O     O_3   0.901008 0.838277 0.512970 -0.572703
C61   C     C_3   0.880547 0.869571 0.611038 0.030222
H40   H     H_    0.942729 0.886651 0.654124 0.140142
H41   H     H_    0.842857 0.795554 0.645974 0.160557
C62   C     C_3   0.821301 0.985640 0.613660 -0.807304
H42   H     H_    0.760346 0.972521 0.567943 0.253706
H43   H     H_    0.800774 0.006453 0.690194 0.196049
H44   H     H_    0.858343 0.064628 0.585778 0.239982
O13   O     O_3   0.408387 0.255222 0.034340 -0.602593
C63   C     C_3   0.357426 0.180069 0.971439 0.054856
H45   H     H_    0.287757 0.175353 0.998517 0.194817
H46   H     H_    0.387584 0.085226 0.965534 0.102913
C64   C     C_3   0.355284 0.237487 0.869603 -0.289877
H47   H     H_    0.334725 0.336355 0.876104 0.241651
H48   H     H_    0.423499 0.231491 0.837916 0.210507
C65   C     C_3   0.289944 0.173842 0.800357 -0.953034
H49   H     H_    0.306749 0.074083 0.794046 0.241310
H50   H     H_    0.293587 0.214914 0.726463 0.268499
H51   H     H_    0.220456 0.186423 0.827380 0.256698
O14   O     O_3   0.626467 0.721666 0.953173 -0.621584
C66   C     C_3   0.621694 0.800623 0.036267 0.009976
H52   H     H_    0.551362 0.808440 0.061926 0.155901
H53   H     H_    0.646916 0.894031 0.020551 0.140000
C67   C     C_3   0.679443 0.744299 0.118006 -0.328967
H54   H     H_    0.655862 0.651063 0.133748 0.223246
H55   H     H_    0.750091 0.735931 0.093812 0.208665
C68   C     C_3   0.674848 0.821381 0.211961 -0.891728
H56   H     H_    0.701285 0.914267 0.199185 0.255221
H57   H     H_    0.716108 0.775903 0.269891 0.264276
H58   H     H_    0.604721 0.829966 0.237754 0.254806
O15   O     O_3   0.273558 0.269054 0.170899 -0.587275
C69   C     C_3   0.230138 0.331010 0.249239 0.066245
H59   H     H_    0.277848 0.384611 0.294400 0.172725
H60   H     H_    0.195372 0.263802 0.295167 0.180974
C70   C     C_3   0.160288 0.421282 0.208259 -0.767663
H61   H     H_    0.111297 0.371296 0.162100 0.251018
H62   H     H_    0.124322 0.468961 0.269288 0.209261
H63   H     H_    0.193107 0.491062 0.163091 0.246948
O16   O     O_3   0.721015 0.660858 0.782386 -0.565853
C71   C     C_3   0.796633 0.701648 0.835147 0.059536
H64   H     H_    0.785256 0.697851 0.915190 0.189949
H65   H     H_    0.813960 0.797407 0.815720 0.106599
C72   C     C_3   0.876338 0.616296 0.811955 -0.810233
H66   H     H_    0.890645 0.616616 0.732359 0.244281
H67   H     H_    0.936337 0.647221 0.852960 0.201383
H68   H     H_    0.861953 0.520698 0.833519 0.252324

loop_
_geom_bond_atom_site_label_1
_geom_bond_atom_site_label_2
_ccdc_geom_bond_type
C66   C67   S    
C72   H66   S    
C27   C29   A    
C34   C37   A    
C1    O1    A    
C4    O12   S    
C44   H12   S    
C60   H37   S    
C16   O14   S    
C56   H28   S    
O13   C63   S    
C39   C41   A    
Cu1   Cu2   S    
C61   H40   S    
C23   C42   S    
C15   O13   S    
C4    C52   A    
Cu1   O8    S    
C14   H20   S    
C35   C37   A    
Cu2   O3    S    
C68   H57   S    
C53   H22   S    
C9    C22   S    
C45   C51   A    
O12   C61   S    
C18   C21   A    
C46   C52   A    
C11   C13   A    
C59   H35   S    
Cu1   O5    S    
C24   O6    A    
C57   H30   S    
C27   H7    S    
C37   H9    S    
C26   C34   A    
C39   H1    S    
C31   C32   A    
C59   H36   S    
C40   H2    S    
C26   N2    A    
O11   C59   S    
C31   C33   A    
C54   H24   S    
C69   H60   S    
C52   H14   S    
C40   C42   A    
C12   H18   S    
C72   H67   S    
C24   C41   S    
C41   C43   A    
C60   H39   S    
Cu1   N1    S    
C42   C44   A    
C27   N1    A    
C10   C12   A    
C55   H26   S    
Cu2   O7    S    
C56   H29   S    
C3    C50   A    
C44   C46   A    
O15   C69   S    
C38   H10   S    
C45   C47   A    
C10   C21   S    
C46   C48   A    
C5    O15   S    
C66   H52   S    
Cu1   O4    S    
C71   C72   S    
C60   H38   S    
C70   H63   S    
C5    C7    A    
C3    C51   A    
C53   H21   S    
C6    C8    A    
C3    O11   S    
O9    C53   S    
C53   C54   S    
C55   H27   S    
C25   N1    A    
C32   C34   A    
C65   H50   S    
C64   H48   S    
C2    O2    A    
C69   C70   S    
C43   C45   A    
C36   O10   S    
C47   C48   A    
C43   H11   S    
O10   C56   S    
C57   H31   S    
C58   H33   S    
C51   H13   S    
C54   C55   S    
C9    C11   A    
C71   H64   S    
C62   H43   S    
C23   O7    A    
C63   C64   S    
Cu2   N2    S    
C39   C49   A    
C12   C14   A    
C72   H68   S    
C13   C15   A    
Cu1   O1    S    
C1    O3    A    
C14   C16   A    
C68   H58   S    
C65   H51   S    
C20   C22   A    
C64   H47   S    
C28   N2    A    
Cu2   O6    S    
C56   C57   S    
C63   H46   S    
C69   H59   S    
C62   H44   S    
C66   H53   S    
C1    C20   S    
C23   O5    A    
C19   C21   A    
C2    C19   S    
C71   H65   S    
C17   C22   A    
C13   H19   S    
C18   H4    S    
C67   C68   S    
C7    H15   S    
C62   H42   S    
C61   C62   S    
O14   C66   S    
C67   H55   S    
C47   C49   A    
C29   C35   A    
C8    H16   S    
C33   C38   A    
C59   C60   S    
C30   C36   A    
C4    C49   A    
C70   H62   S    
C65   H49   S    
C24   O8    A    
C64   C65   S    
C28   C30   A    
C29   C31   A    
C68   H56   S    
C36   C38   A    
C30   C32   A    
C35   O9    S    
C40   C50   A    
C48   C50   A    
C55   H25   S    
C17   C19   A    
C61   H41   S    
C58   H34   S    
C18   C20   A    
C57   C58   S    
C5    C15   A    
C6    O16   S    
C2    O4    A    
C67   H54   S    
C6    C16   A    
C7    C9    A    
C8    C10   A    
C25   C33   A    
C58   H32   S    
C25   H5    S    
Cu2   O2    S    
C54   H23   S    
C70   H61   S    
C26   H6    S    
C11   H17   S    
C17   H3    S    
C63   H45   S    
O16   C71   S    
C28   H8    S    
