data_mof_unit_18444.cif
_audit_creation_date              2013-03-05T16:10:27-0500
_audit_creation_method            fapswitch 2.2
_symmetry_space_group_name_H-M    P1
_symmetry_Int_Tables_number       1
_space_group_crystal_system       triclinic
_cell_length_a                    10.682319
_cell_length_b                    10.013548
_cell_length_c                    14.908413
_cell_angle_alpha                 90.197386
_cell_angle_beta                  93.670708
_cell_angle_gamma                 89.875242
_cell_volume                      1591.43773237

loop_
_atom_site_label
_atom_site_type_symbol
_atom_site_description
_atom_site_fract_x
_atom_site_fract_y
_atom_site_fract_z
_atom_type_partial_charge
O1    O     O_R   0.316770 0.614620 0.499990 -0.629906
O2    O     O_R   0.683230 0.385380 0.500010 -0.629906
O3    O     O_R   0.683230 0.614620 0.500010 -0.632236
O4    O     O_R   0.316770 0.385380 0.499990 -0.632237
C1    C     C_R   0.260464 0.500087 0.499903 0.835002
C2    C     C_R   0.739535 0.499913 0.500097 0.835003
O5    O     O_R   0.499980 0.614680 0.367850 -0.619239
O6    O     O_R   0.500020 0.385320 0.632150 -0.619238
O7    O     O_R   0.500020 0.614680 0.632150 -0.620535
O8    O     O_R   0.499980 0.385320 0.367850 -0.620534
C3    C     C_R   0.498594 0.499768 0.327652 0.888479
C4    C     C_R   0.501406 0.500232 0.672348 0.888478
Zn1   Zn    Zn3+2 0.500000 0.653120 0.500000 0.932860
Zn2   Zn    Zn3+2 0.500000 0.346880 0.500000 0.932860
C5    C     C_R   0.620432 0.486960 0.818599 0.156177
C6    C     C_R   0.379567 0.513029 0.181400 0.156179
C7    C     C_R   0.506235 0.500831 0.767752 -0.048326
C8    C     C_R   0.493765 0.499167 0.232248 -0.048325
C9    C     C_R   0.392762 0.514860 0.806569 -0.315174
C10   C     C_R   0.607237 0.485133 0.193431 -0.315181
C11   C     C_R   0.387412 0.513670 0.899300 0.100200
C12   C     C_R   0.612586 0.486310 0.100700 0.100184
C13   C     C_R   0.501283 0.500085 0.953046 -0.019445
C14   C     C_R   0.498715 0.499895 0.046954 -0.019441
C15   C     C_R   0.617844 0.486663 0.912800 0.090428
C16   C     C_R   0.382154 0.513318 0.087199 0.090433
C17   C     C_R   0.271342 0.526006 0.939403 0.178128
C18   C     C_R   0.728654 0.473960 0.060596 0.178134
C19   C     C_R   0.270741 0.526317 0.032639 -0.264282
C20   C     C_R   0.729256 0.473652 0.967361 -0.264268
H1    H     H_    0.308974 0.525672 0.762421 0.158790
H2    H     H_    0.691026 0.474329 0.237579 0.158802
H3    H     H_    0.181121 0.535823 0.061941 0.166689
H4    H     H_    0.818875 0.464138 0.938058 0.166684
C21   C     C_R   0.067313 0.387816 0.531634 -0.191769
C22   C     C_R   0.932687 0.612184 0.468366 -0.191769
C23   C     C_R   0.938991 0.387757 0.531696 -0.199872
C24   C     C_R   0.061009 0.612243 0.468304 -0.199877
H5    H     H_    0.118991 0.301164 0.557055 0.159877
H6    H     H_    0.881009 0.698836 0.442945 0.159878
H7    H     H_    0.892439 0.301158 0.557157 0.152915
H8    H     H_    0.107561 0.698842 0.442842 0.152917
C25   C     C_R   0.872233 0.499894 0.500048 -0.000110
C26   C     C_R   0.127766 0.500106 0.499951 -0.000110
C27   C     C_R   0.580082 0.071690 0.558413 0.208831
C28   C     C_R   0.419918 0.928310 0.441586 0.208830
C29   C     C_R   0.419713 0.071597 0.441731 0.198518
C30   C     C_R   0.580287 0.928403 0.558269 0.198518
N1    N     N_R   0.500000 0.857200 0.500000 -0.117432
N2    N     N_R   0.500000 0.142800 0.500000 -0.117431
C31   C     C_3   0.743346 0.473309 0.773127 -0.970820
H9    H     H_    0.787234 0.375546 0.790915 0.243203
H10   H     H_    0.733041 0.477936 0.698856 0.230250
H11   H     H_    0.807609 0.555765 0.795208 0.246599
C32   C     C_3   0.256653 0.526679 0.226872 -0.970826
H12   H     H_    0.212757 0.624436 0.209077 0.243211
H13   H     H_    0.192396 0.444215 0.204799 0.246600
H14   H     H_    0.266960 0.522068 0.301144 0.230249
C33   C     C_3   0.145954 0.537733 0.885687 -0.418896
C34   C     C_3   0.102422 0.402282 0.848097 -0.875498
H15   H     H_    0.174182 0.355645 0.807358 0.265736
H16   H     H_    0.082747 0.334012 0.904044 0.257812
H17   H     H_    0.015278 0.415457 0.804511 0.252781
H18   H     H_    0.072194 0.576019 0.928557 0.199569
H19   H     H_    0.150989 0.612077 0.830994 0.203844
C35   C     C_3   0.854039 0.462205 0.114313 -0.418888
C36   C     C_3   0.897602 0.597647 0.151901 -0.875545
H20   H     H_    0.917353 0.665884 0.095956 0.257804
H21   H     H_    0.825828 0.644337 0.192602 0.265748
H22   H     H_    0.984706 0.584443 0.195523 0.252797
H23   H     H_    0.848985 0.387868 0.169007 0.203845
H24   H     H_    0.927790 0.423895 0.071446 0.199573
C37   C     C_3   0.669753 0.142451 0.625212 -0.830276
H25   H     H_    0.668573 0.250387 0.620318 0.290126
H26   H     H_    0.646663 0.118173 0.694816 0.223892
H27   H     H_    0.767718 0.112036 0.615014 0.203755
C38   C     C_3   0.330247 0.857549 0.374787 -0.830272
H28   H     H_    0.331427 0.749613 0.379681 0.290124
H29   H     H_    0.232282 0.887964 0.384986 0.203755
H30   H     H_    0.353337 0.881827 0.305184 0.223892
C39   C     C_3   0.328052 0.142315 0.376361 -0.811253
H31   H     H_    0.332511 0.250392 0.378922 0.291490
H32   H     H_    0.345901 0.113913 0.306308 0.218805
H33   H     H_    0.230410 0.116035 0.390467 0.210309
C40   C     C_3   0.671948 0.857685 0.623638 -0.811253
H34   H     H_    0.667488 0.749608 0.621077 0.291490
H35   H     H_    0.769590 0.883965 0.609533 0.210309
H36   H     H_    0.654099 0.886087 0.693692 0.218806

loop_
_geom_bond_atom_site_label_1
_geom_bond_atom_site_label_2
_geom_bond_distance
_ccdc_geom_bond_type
C32   H12   1.110112 S    
C3    C8    1.419946 S    
C17   C19   1.390412 A    
C37   H25   1.083527 S    
C18   C35   1.520463 S    
O3    C2    1.295385 A    
C9    H1    1.081968 S    
C39   H31   1.083817 S    
C38   H28   1.083528 S    
O5    C3    1.295224 A    
C28   N1    1.379663 A    
C33   H18   1.112536 S    
C34   H17   1.108517 S    
O1    C1    1.296145 A    
C27   C37   1.512390 S    
C9    C11   1.387395 A    
C14   C16   1.422258 A    
C24   H8    1.082433 S    
C5    C15   1.406442 A    
C19   H3    1.081338 S    
C34   H16   1.110945 S    
O7    Zn1   2.008683 S    
C35   H24   1.112534 S    
C4    C7    1.419946 S    
C13   C14   1.402047 A    
C5    C31   1.521445 S    
O3    Zn1   1.994093 S    
C40   H35   1.109540 S    
C35   C36   1.527787 S    
C11   C17   1.415556 A    
C33   C34   1.527791 S    
C12   C18   1.415554 A    
O4    Zn2   1.994095 S    
C37   H26   1.109729 S    
O2    C2    1.296145 A    
C39   H32   1.109593 S    
C29   N2    1.378970 A    
C38   H29   1.108914 S    
C11   C13   1.419656 A    
C6    C16   1.406441 A    
C20   H4    1.081337 S    
C36   H20   1.110922 S    
C22   H6    1.083823 S    
O8    Zn2   2.008684 S    
C27   C30   1.434806 A    
C40   H34   1.083817 S    
C31   H9    1.110111 S    
C34   H15   1.109369 S    
C31   H10   1.106815 S    
C23   C25   1.396105 A    
C21   H5    1.083823 S    
C24   C26   1.396104 A    
C35   H23   1.109913 S    
O6    C4    1.295222 A    
C21   C26   1.396543 A    
Zn1   N1    2.043565 S    
C30   N1    1.378968 A    
C1    C26   1.417569 S    
C10   C12   1.387397 A    
C2    C25   1.417569 S    
C32   H13   1.110410 S    
C37   H27   1.108913 S    
C12   C14   1.419654 A    
O1    Zn1   1.995742 S    
C39   H33   1.109539 S    
C40   H36   1.109592 S    
C10   H2    1.081970 S    
C38   H30   1.109727 S    
C15   C20   1.403969 A    
C5    C7    1.401305 A    
C28   C29   1.434806 A    
O6    Zn2   2.006080 S    
C21   C23   1.370837 A    
O4    C1    1.295384 A    
C28   C38   1.512390 S    
C31   H11   1.110409 S    
C36   H22   1.108502 S    
C22   C24   1.370838 A    
C6    C32   1.521445 S    
C17   C33   1.520467 S    
C33   H19   1.109914 S    
Zn2   N2    2.043565 S    
C27   N2    1.379662 A    
C18   C20   1.390411 A    
C7    C9    1.382916 A    
C8    C10   1.382915 A    
C29   C39   1.513106 S    
C23   H7    1.082434 S    
O2    Zn2   1.995740 S    
O7    C4    1.294710 A    
O8    C3    1.294708 A    
O5    Zn1   2.006082 S    
C13   C15   1.422259 A    
C16   C19   1.403968 A    
C6    C8    1.401306 A    
C32   H14   1.106815 S    
C30   C40   1.513107 S    
C22   C25   1.396542 A    
C36   H21   1.109355 S    
