data_mof_unit_36991.cif
_audit_creation_date              2012-12-10T17:22:39-0500
_audit_creation_method            fapswitch 2.2
_symmetry_space_group_name_H-M    P1
_symmetry_Int_Tables_number       1
_space_group_crystal_system       triclinic
_cell_length_a                    10.61626
_cell_length_b                    10.74207
_cell_length_c                    9.675767
_cell_angle_alpha                 89.713487
_cell_angle_beta                  89.731869
_cell_angle_gamma                 92.871196
_cell_volume                      1102.01797111

loop_
_atom_site_label
_atom_site_type_symbol
_atom_type_description
_atom_site_fract_x
_atom_site_fract_y
_atom_site_fract_z
_atom_type_partial_charge
C1    C     C_R   0.497107 0.263033 0.500391 0.772763
C2    C     C_3   0.958458 0.467622 0.372949 -0.124372
C3    C     C_3   0.036777 0.382934 0.465074 -0.203270
C4    C     C_3   0.122654 0.496910 0.500916 0.012619
C5    C     C_R   0.270552 0.118580 0.586370 -0.189985
C6    C     C_R   0.163055 0.047829 0.627629 -0.134541
C7    C     C_R   0.163127 0.918197 0.627566 -0.122434
C8    C     C_R   0.270476 0.858463 0.585607 -0.164227
C9    C     C_R   0.380595 0.928340 0.544038 0.112487
C10   C     C_R   0.380627 0.059956 0.544652 0.098247
C11   C     C_R   0.490643 0.129047 0.501451 -0.078262
C12   C     C_R   0.259691 0.498315 0.500294 0.747774
C13   C     C_R   0.598095 0.070056 0.459657 -0.186041
C14   C     C_R   0.598559 0.941758 0.460911 -0.205175
C15   C     C_R   0.490833 0.870765 0.500667 -0.063806
C16   C     C_R   0.714762 0.604158 0.135257 0.072332
C17   C     C_R   0.828513 0.598279 0.061892 -0.226637
C18   C     C_R   0.824506 0.605246 0.918977 -0.317702
C19   C     C_R   0.707125 0.614065 0.856901 0.055102
C20   C     C_R   0.600449 0.556839 0.924538 0.206584
C21   C     C_R   0.602337 0.554355 0.072670 0.074450
C22   C     C_R   0.403080 0.447320 0.074431 -0.038906
C23   C     C_R   0.497708 0.736991 0.499920 0.780242
C24   C     C_R   0.403503 0.446629 0.927109 -0.050715
C25   C     C_R   0.740319 0.498334 0.499785 0.791576
C26   C     C_3   0.041951 0.525184 0.627524 -0.179171
C27   C     C_3   0.953499 0.411307 0.591540 -0.165357
C28   C     C_3   0.877542 0.496337 0.499420 0.046279
C29   C     C_3   0.963877 0.609990 0.535362 -0.144742
C30   C     C_3   0.046709 0.581576 0.408840 -0.109680
Cu1   Cu    Cu3+1 0.499990 0.499990 0.640660 0.959592
Cu2   Cu    Cu3+1 0.500010 0.500010 0.359340 0.946834
H1    H     H_    0.912360 0.341661 0.666293 0.141759
H2    H     H_    0.079631 0.863776 0.660120 0.124304
H3    H     H_    0.266307 0.757728 0.585916 0.130088
H4    H     H_    0.684400 0.898031 0.433553 0.179439
H5    H     H_    0.323700 0.403168 0.129224 0.135207
H6    H     H_    0.917600 0.623743 0.111004 0.182725
H7    H     H_    0.909662 0.637076 0.864700 0.147693
H8    H     H_    0.324529 0.401813 0.873506 0.133128
H9    H     H_    0.079884 0.548568 0.731411 0.139631
H10   H     H_    0.932675 0.703710 0.562190 0.129768
H11   H     H_    0.087659 0.651482 0.334254 0.143299
H12   H     H_    0.921999 0.441410 0.269379 0.143399
H13   H     H_    0.069736 0.290073 0.436207 0.134066
H14   H     H_    0.682743 0.123823 0.428441 0.141518
H15   H     H_    0.266508 0.219020 0.587082 0.125928
H16   H     H_    0.079327 0.093791 0.659559 0.133623
N1    N     N_R   0.501210 0.501210 0.147910 -0.195669
N2    N     N_R   0.501250 0.501290 0.852040 -0.192927
O1    O     O_R   0.499990 0.319640 0.618810 -0.571078
O2    O     O_R   0.500000 0.319660 0.381240 -0.572277
O3    O     O_R   0.316850 0.499960 0.618770 -0.596894
O4    O     O_R   0.316860 0.499980 0.381190 -0.587415
O5    O     O_R   0.500000 0.680340 0.618760 -0.546318
O6    O     O_R   0.500010 0.680360 0.381190 -0.602819
O7    O     O_R   0.683140 0.500020 0.618810 -0.607209
O8    O     O_R   0.683150 0.500040 0.381230 -0.574365
C31   C     C_2   0.711432 0.714479 0.224317 0.421853
H17   H     H_    0.634715 0.776697 0.214202 0.086835
O9    O     O_2   0.799021 0.742203 0.301464 -0.618679
C32   C     C_2   0.696639 0.730548 0.778082 0.442184
H18   H     H_    0.760615 0.753147 0.693125 0.024170
O10   O     O_2   0.621764 0.806982 0.814131 -0.546824

loop_
_geom_bond_atom_site_label_1
_geom_bond_atom_site_label_2
_ccdc_geom_bond_type
C4    C26   S    
C18   H7    S    
C23   O5    A    
C16   C21   A    
Cu1   O1    S    
C29   H10   S    
C4    C12   S    
C11   C13   A    
C9    C10   A    
C32   O10   D    
C19   C20   A    
C1    C11   S    
Cu2   O8    S    
C2    C30   S    
Cu1   O7    S    
C32   H18   S    
C15   C23   S    
C17   C18   A    
C9    C15   A    
C4    C30   S    
C31   H17   S    
C12   O4    A    
C13   C14   A    
Cu1   O3    S    
C25   C28   S    
C14   H4    S    
C1    O1    A    
C26   C27   S    
C29   C30   S    
C12   O3    A    
C6    H16   S    
C22   N1    A    
C21   N1    A    
C3    C27   S    
C28   C29   S    
C24   H8    S    
C3    H13   S    
C2    C3    S    
C6    C7    A    
C17   H6    S    
C16   C31   S    
C24   N2    A    
C5    C6    A    
Cu2   N1    S    
C1    O2    A    
C22   C24   A    
C30   H11   S    
C31   O9    D    
C2    C28   S    
C10   C11   A    
C19   C32   S    
C5    C10   A    
C3    C4    S    
C5    H15   S    
C16   C17   A    
C25   O7    A    
C23   O6    A    
C7    H2    S    
C26   C29   S    
C18   C19   A    
C25   O8    A    
Cu2   O4    S    
C27   C28   S    
C7    C8    A    
C13   H14   S    
Cu2   O2    S    
C20   N2    A    
Cu1   N2    S    
Cu1   O5    S    
C20   C21   A    
C14   C15   A    
C22   H5    S    
Cu2   O6    S    
C27   H1    S    
Cu1   Cu2   S    
C26   H9    S    
C2    H12   S    
C8    C9    A    
C8    H3    S    
