data_mof_unit_68544.cif
_audit_creation_date              2012-12-11T17:06:36-0500
_audit_creation_method            fapswitch 2.2
_symmetry_space_group_name_H-M    P1
_symmetry_Int_Tables_number       1
_space_group_crystal_system       triclinic
_cell_length_a                    7.033028
_cell_length_b                    14.857855
_cell_length_c                    15.817216
_cell_angle_alpha                 90.517031
_cell_angle_beta                  89.922353
_cell_angle_gamma                 89.879936
_cell_volume                      1652.7587355

loop_
_atom_site_label
_atom_site_type_symbol
_atom_type_description
_atom_site_fract_x
_atom_site_fract_y
_atom_site_fract_z
_atom_type_partial_charge
O1    O     O_R   0.494400 0.415450 0.412630 -0.548313
O2    O     O_R   0.823940 0.405730 0.586760 -0.521475
O3    O     O_R   0.994240 0.584550 0.587370 -0.537949
C1    C     C_R   0.654548 0.382530 0.614250 0.715673
O4    O     O_R   0.824110 0.404430 0.413240 -0.522594
O5    O     O_R   0.994420 0.583240 0.412620 -0.517384
C2    C     C_R   0.655929 0.383461 0.383139 0.772322
O6    O     O_R   0.494230 0.416760 0.587380 -0.523077
O7    O     O_3   0.660800 0.558670 0.500000 -0.397967
V1    V     V_3+5 0.935650 0.489120 0.500000 1.508034
O8    O     O_R   0.324140 0.594270 0.413240 -0.563113
C3    C     C_R   0.154008 0.616158 0.384388 0.744167
O9    O     O_R   0.323960 0.595570 0.586760 -0.545782
C4    C     C_R   0.155334 0.618282 0.614736 0.734465
V2    V     V_3+5 0.435660 0.510880 0.500000 1.427732
O10   O     O_3   0.160640 0.441330 0.500000 -0.354453
C5    C     C_3   0.005593 0.682592 0.760491 -0.218280
C6    C     C_3   0.169580 0.707059 0.821209 0.480964
H1    H     H_    0.899109 0.628783 0.771083 0.133673
C7    C     C_3   0.124549 0.807404 0.812418 -0.102094
C8    C     C_3   0.961718 0.784693 0.750453 -0.224975
C9    C     C_3   0.106418 0.788515 0.677108 0.465869
C10   C     C_3   0.268420 0.812788 0.738611 -0.252999
C11   C     C_3   0.313233 0.710674 0.747084 -0.265583
C12   C     C_3   0.147560 0.687557 0.685387 -0.140661
H2    H     H_    0.817909 0.815687 0.750082 0.132777
H3    H     H_    0.375361 0.866713 0.729307 0.125365
H4    H     H_    0.458213 0.681022 0.744776 0.125979
C13   C     C_R   0.254513 0.817841 0.242947 -0.043575
C14   C     C_R   0.116078 0.812583 0.180311 -0.252768
C15   C     C_R   0.978205 0.743773 0.187866 0.408253
C16   C     C_R   0.987222 0.681060 0.254987 0.178418
C17   C     C_R   0.134941 0.685383 0.316436 -0.249145
C18   C     C_R   0.259683 0.758838 0.311430 -0.055048
C19   C     C_3   0.471014 0.756535 0.309977 0.283274
C20   C     C_3   0.463859 0.813714 0.231266 0.164206
H5    H     H_    0.525578 0.687980 0.298150 0.098543
H6    H     H_    0.503417 0.776355 0.172665 0.131765
C21   C     C_R   0.485307 0.253656 0.687381 -0.128253
C22   C     C_R   0.643646 0.310700 0.679649 -0.074357
C23   C     C_R   0.787354 0.301783 0.740322 -0.109506
H7    H     H_    0.902535 0.348421 0.740468 0.186549
C24   C     C_R   0.776496 0.237955 0.805275 -0.104662
H8    H     H_    0.888510 0.235990 0.852075 0.164937
C25   C     C_R   0.618742 0.180700 0.812646 -0.099721
C26   C     C_R   0.472085 0.190035 0.752828 -0.045474
C27   C     C_3   0.268536 0.214581 0.770285 0.225100
C28   C     C_3   0.280421 0.281789 0.696160 0.496574
H9    H     H_    0.259331 0.250238 0.832337 0.131942
C29   C     C_R   0.473023 0.287757 0.280650 -0.032542
C30   C     C_R   0.646035 0.311302 0.316650 -0.248744
C31   C     C_R   0.807220 0.278008 0.274006 0.355366
C32   C     C_R   0.794543 0.195104 0.229421 0.299164
C33   C     C_R   0.620503 0.173408 0.188833 -0.207791
C34   C     C_R   0.460337 0.222480 0.215738 0.025923
C35   C     C_3   0.337386 0.281613 0.163284 0.117652
C36   C     C_3   0.357487 0.352773 0.232198 -0.367805
H10   H     H_    0.192232 0.254811 0.156348 0.212346
H11   H     H_    0.234856 0.370675 0.271427 0.233329
H12   H     H_    0.436245 0.413618 0.212430 0.182781
O11   O     O_R   0.771650 0.079500 0.908680 -0.540408
O12   O     O_R   0.441690 0.091800 0.082800 -0.530588
O13   O     O_R   0.271460 0.912980 0.083410 -0.536315
C37   C     C_R   0.610332 0.110745 0.114305 0.837984
O14   O     O_R   0.441930 0.090510 0.909280 -0.518991
O15   O     O_R   0.271690 0.911670 0.908660 -0.541534
C38   C     C_R   0.610205 0.112874 0.881225 0.717319
O16   O     O_R   0.771410 0.080810 0.083440 -0.518799
O17   O     O_3   0.605100 0.937580 0.996050 -0.375342
V3    V     V_3+5 0.330220 0.007110 0.996030 1.539652
O18   O     O_R   0.941980 0.900620 0.909250 -0.551262
C39   C     C_R   0.111697 0.876863 0.882485 0.698211
O19   O     O_R   0.941740 0.901920 0.082770 -0.514478
C40   C     C_R   0.110223 0.880061 0.111216 0.733002
V4    V     V_3+5 0.830220 0.985300 0.996000 1.522832
O20   O     O_3   0.105210 0.054870 0.996020 -0.355381
O21   O     O_3   0.195071 0.667561 0.901052 -0.584288
C41   C     C_3   0.325266 0.595949 0.894281 0.052059
H13   H     H_    0.471656 0.622362 0.886981 0.130165
H14   H     H_    0.292026 0.551798 0.839625 0.191169
C42   C     C_3   0.315382 0.539288 0.973201 -0.680588
H15   H     H_    0.175675 0.505091 0.975304 0.233842
H16   H     H_    0.429969 0.487981 0.971100 0.242781
H17   H     H_    0.333300 0.581962 0.030615 0.214122
O22   O     O_3   0.548589 0.805411 0.378599 -0.533726
C43   C     C_3   0.622382 0.746802 0.439229 0.101597
H18   H     H_    0.715320 0.694642 0.410040 0.174398
H19   H     H_    0.505320 0.715759 0.475361 0.135668
C44   C     C_3   0.742947 0.799990 0.500281 -0.657342
H20   H     H_    0.662512 0.857591 0.527632 0.214800
H21   H     H_    0.788631 0.754725 0.551866 0.201220
H22   H     H_    0.867973 0.826278 0.465794 0.243664
Br1   Br    Br    0.582612 0.930237 0.241918 -0.598372
O23   O     O_3   0.144125 0.138695 0.772899 -0.549901
C45   C     C_3   0.081445 0.104306 0.694655 0.128448
H23   H     H_    0.203027 0.091017 0.651845 0.124884
H24   H     H_    0.971838 0.148672 0.666910 0.191132
C46   C     C_3   0.980020 0.016307 0.708778 -0.713435
H25   H     H_    0.859534 0.025378 0.753288 0.211073
H26   H     H_    0.924047 0.990066 0.647826 0.215567
H27   H     H_    0.082499 0.968431 0.735333 0.227510
Br2   Br    Br    0.254725 0.404991 0.738421 -0.646652
O24   O     O_3   0.155287 0.265856 0.626746 -0.556916
C47   C     C_3   0.243869 0.239552 0.549730 0.113335
H28   H     H_    0.338171 0.180083 0.557036 0.076631
H29   H     H_    0.328728 0.294942 0.523442 0.171046
C48   C     C_3   0.090700 0.214867 0.485809 -0.720523
H30   H     H_    0.976276 0.266239 0.486371 0.243980
H31   H     H_    0.153028 0.211740 0.421497 0.184500
H32   H     H_    0.027926 0.148498 0.501340 0.186716
O25   O     O_3   0.934652 0.340698 0.244185 -0.562726
C49   C     C_3   0.868701 0.372726 0.164765 0.146014
H33   H     H_    0.733586 0.409793 0.173270 0.185569
H34   H     H_    0.846192 0.316969 0.118423 0.155444
C50   C     C_3   0.008588 0.437134 0.124199 -0.700153
H35   H     H_    0.929580 0.483422 0.082295 0.203576
H36   H     H_    0.088358 0.476864 0.171951 0.255909
H37   H     H_    0.109074 0.399512 0.083768 0.237931
O26   O     O_3   0.961097 0.150530 0.209943 -0.555229
C51   C     C_3   0.976979 0.074729 0.262841 0.084333
H38   H     H_    0.922095 0.015248 0.228455 0.190528
H39   H     H_    0.901312 0.081866 0.324819 0.121495
C52   C     C_3   0.184279 0.056423 0.281520 -0.688190
H40   H     H_    0.247217 0.113020 0.317672 0.214930
H41   H     H_    0.197298 0.994269 0.319435 0.213085
H42   H     H_    0.262109 0.047400 0.221186 0.254901
Br3   Br    Br    0.452337 0.314790 0.055496 -0.694714
O27   O     O_3   0.067966 0.837902 0.603633 -0.577268
C53   C     C_3   0.223515 0.835389 0.547295 0.082811
H43   H     H_    0.196979 0.782720 0.498568 0.121395
H44   H     H_    0.361893 0.820660 0.578188 0.112368
C54   C     C_3   0.239744 0.926347 0.504281 -0.704125
H45   H     H_    0.277679 0.978732 0.551601 0.198968
H46   H     H_    0.352201 0.924330 0.455216 0.246912
H47   H     H_    0.102997 0.944861 0.474023 0.219153
O28   O     O_3   0.838115 0.733536 0.127433 -0.544532
C55   C     C_3   0.917357 0.691128 0.055311 0.162618
H48   H     H_    0.013640 0.634471 0.072026 0.125151
H49   H     H_    0.997635 0.740509 0.017248 0.139091
C56   C     C_3   0.758164 0.653995 0.001071 -0.690505
H50   H     H_    0.660650 0.709454 0.982935 0.220828
H51   H     H_    0.817660 0.622027 0.943061 0.193836
H52   H     H_    0.678287 0.602756 0.037194 0.232358
Br4   Br    Br    0.808208 0.583431 0.251943 -0.643281

loop_
_geom_bond_atom_site_label_1
_geom_bond_atom_site_label_2
_ccdc_geom_bond_type
C34   C35   S    
C23   C24   A    
O19   C40   A    
C45   H23   S    
C56   H52   S    
C1    O6    A    
O27   C53   S    
C47   H29   S    
C42   H15   S    
C45   C46   S    
C52   H40   S    
C27   H9    S    
C32   C33   A    
O11   V4    S    
O16   V4    S    
C55   H49   S    
C13   C20   S    
C6    C11   S    
C37   O16   A    
C19   H5    S    
C56   H51   S    
C54   H47   S    
O5    C3    A    
C14   C15   A    
C14   C40   S    
C43   H19   S    
C52   H41   S    
O14   V3    S    
C35   C36   S    
O12   V3    S    
C5    C6    S    
C18   C19   S    
C23   H7    S    
C35   Br3   S    
C47   H28   S    
O12   C37   A    
C26   C27   S    
O8    V2    S    
C20   Br1   S    
O15   C39   A    
C1    C22   S    
C54   H45   S    
C50   H36   S    
C9    C12   S    
C25   C38   S    
C10   C11   S    
C7    C10   S    
O1    V2    S    
C10   H3    S    
C44   H21   S    
O7    V1    S    
C51   C52   S    
C53   C54   S    
O1    C2    A    
O9    C4    A    
C48   H31   S    
O17   V3    S    
C49   H34   S    
C49   H33   S    
C42   H16   S    
C8    H2    S    
C51   H39   S    
C29   C30   A    
C55   C56   S    
V2    O10   S    
C30   C31   A    
C56   H50   S    
C21   C22   A    
O4    C2    A    
C41   H13   S    
C15   O28   S    
C36   H12   S    
C31   O25   S    
O14   C38   A    
O21   C41   S    
C28   O24   S    
C13   C18   A    
C5    C8    S    
C19   C20   S    
O2    C1    A    
V4    O20   S    
C13   C14   A    
O11   C38   A    
C9    O27   S    
C27   C28   S    
O13   V3    S    
C48   H30   S    
C50   H37   S    
C28   Br2   S    
C45   H24   S    
C17   C18   A    
C51   H38   S    
C41   H14   S    
C11   C12   S    
C44   H22   S    
C24   C25   A    
O22   C43   S    
O3    C4    A    
C21   C26   A    
C22   C23   A    
O6    V2    S    
C46   H26   S    
O9    V2    S    
C24   H8    S    
V3    O20   S    
C48   H32   S    
O19   V4    S    
O2    V1    S    
C42   H17   S    
C31   C32   A    
C53   H43   S    
C33   C34   A    
O25   C49   S    
C43   H18   S    
C29   C36   S    
C15   C16   A    
C11   H4    S    
O28   C55   S    
C52   H42   S    
C43   C44   S    
O5    V1    S    
O26   C51   S    
C32   O26   S    
O13   C40   A    
C46   H27   S    
C55   H48   S    
C29   C34   A    
C5    C12   S    
C16   C17   A    
C20   H6    S    
O7    V2    S    
C2    C30   S    
O18   C39   A    
O3    V1    S    
V1    O10   S    
O18   V4    S    
C19   O22   S    
C41   C42   S    
O15   V3    S    
C33   C37   S    
C3    C17   S    
C6    O21   S    
C5    H1    S    
C27   O23   S    
C35   H10   S    
O17   V4    S    
C6    C7    S    
C49   C50   S    
C4    C12   S    
O23   C45   S    
C16   Br4   S    
C36   H11   S    
C25   C26   A    
O4    V1    S    
C7    C8    S    
C54   H46   S    
C46   H25   S    
O24   C47   S    
C9    C10   S    
C7    C39   S    
C44   H20   S    
C8    C9    S    
C47   C48   S    
C50   H35   S    
O8    C3    A    
C21   C28   S    
C53   H44   S    
