data_mof_unit_7132.cif
_audit_creation_date              2012-12-11T15:09:36-0500
_audit_creation_method            fapswitch 2.2
_symmetry_space_group_name_H-M    P1
_symmetry_Int_Tables_number       1
_space_group_crystal_system       triclinic
_cell_length_a                    21.013787
_cell_length_b                    7.13288
_cell_length_c                    14.034796
_cell_angle_alpha                 90.00001
_cell_angle_beta                  98.576038
_cell_angle_gamma                 89.999986
_cell_volume                      2080.13766197

loop_
_atom_site_label
_atom_site_type_symbol
_atom_type_description
_atom_site_fract_x
_atom_site_fract_y
_atom_site_fract_z
_atom_type_partial_charge
O1    O     O_R   0.447130 0.507140 0.597350 -0.541349
O2    O     O_R   0.552870 0.007140 0.402650 -0.541349
O3    O     O_R   0.578910 0.181280 0.586990 -0.545944
O4    O     O_R   0.421090 0.681280 0.413010 -0.545944
C1    C     C_R   0.604435 0.344467 0.607476 0.767409
C2    C     C_R   0.395565 0.844467 0.392524 0.767409
O5    O     O_R   0.449230 0.177860 0.608640 -0.519262
O6    O     O_R   0.550770 0.677860 0.391360 -0.519262
O7    O     O_R   0.422260 0.000770 0.424450 -0.524792
O8    O     O_R   0.577740 0.500770 0.575550 -0.524792
C3    C     C_R   0.432969 0.346683 0.634406 0.822407
C4    C     C_R   0.567031 0.846682 0.365594 0.822407
O9    O     O_3   0.491310 0.336980 0.439550 -0.375153
O10   O     O_3   0.508690 0.836980 0.560450 -0.375153
V1    V     V_3+5 0.501610 0.064760 0.511210 1.628653
V2    V     V_3+5 0.498390 0.564760 0.488790 1.628653
C5    C     C_R   0.614376 0.971767 0.127018 -0.068403
C6    C     C_R   0.385624 0.471771 0.872981 -0.068403
H1    H     H_    0.590326 0.026906 0.059373 0.230124
H2    H     H_    0.409673 0.526910 0.940626 0.230124
C7    C     C_R   0.604910 0.861410 0.286679 -0.174590
C8    C     C_R   0.395090 0.361410 0.713321 -0.174589
C9    C     C_R   0.913892 0.851111 0.296623 -0.170624
C10   C     C_R   0.086108 0.351109 0.703377 -0.170624
C11   C     C_R   0.877269 0.863688 0.370399 -0.123231
C12   C     C_R   0.122731 0.363685 0.629600 -0.123231
C13   C     C_R   0.810876 0.876285 0.349251 -0.040115
C14   C     C_R   0.189123 0.376282 0.650749 -0.040115
C15   C     C_R   0.778887 0.867140 0.253366 0.095331
C16   C     C_R   0.221112 0.367139 0.746633 0.095331
C17   C     C_R   0.816177 0.873448 0.176108 -0.052279
C18   C     C_R   0.183822 0.373448 0.823892 -0.052279
C19   C     C_R   0.710518 0.868611 0.233419 -0.042442
C20   C     C_R   0.289482 0.368611 0.766581 -0.042443
C21   C     C_R   0.680713 0.931365 0.141765 -0.097948
C22   C     C_R   0.319287 0.431367 0.858234 -0.097947
C23   C     C_R   0.717027 0.947747 0.065813 0.407153
C24   C     C_R   0.282972 0.447750 0.934186 0.407153
C25   C     C_R   0.782886 0.900085 0.080184 0.047400
C26   C     C_R   0.217114 0.400086 0.919816 0.047401
C27   C     C_R   0.670382 0.812279 0.301585 0.278301
C28   C     C_R   0.329618 0.312278 0.698415 0.278302
C29   C     C_R   0.577419 0.944920 0.199963 0.310435
C30   C     C_R   0.422581 0.444923 0.800037 0.310435
C31   C     C_R   0.884874 0.860284 0.200316 -0.046137
C32   C     C_R   0.115126 0.360283 0.799684 -0.046137
H3    H     H_    0.965818 0.843050 0.314841 0.103464
H4    H     H_    0.034182 0.343048 0.685159 0.103464
H5    H     H_    0.785198 0.902789 0.408998 0.163236
H6    H     H_    0.214802 0.402786 0.591002 0.163236
H7    H     H_    0.900579 0.867765 0.444568 0.126386
H8    H     H_    0.099421 0.367760 0.555432 0.126386
C33   C     C_1   0.166595 0.857215 0.168269 -0.124393
C34   C     C_1   0.833405 0.357215 0.831731 -0.124394
C35   C     C_1   0.219056 0.854907 0.219257 0.085395
C36   C     C_1   0.780944 0.354907 0.780743 0.085394
C37   C     C_1   0.280832 0.853395 0.279203 0.092977
C38   C     C_1   0.719168 0.353395 0.720797 0.092977
C39   C     C_1   0.333197 0.851042 0.330460 -0.083726
C40   C     C_1   0.666803 0.351042 0.669540 -0.083725
O11   O     O_R   0.922300 0.202240 0.924350 -0.524400
O12   O     O_R   0.077700 0.702240 0.075650 -0.524401
O13   O     O_R   0.050780 0.535130 0.891350 -0.540652
O14   O     O_R   0.949220 0.035130 0.108650 -0.540652
C41   C     C_R   0.070681 0.368591 0.870027 0.723806
C42   C     C_R   0.929319 0.868591 0.129973 0.723806
O15   O     O_R   0.921100 0.531560 0.912990 -0.529873
O16   O     O_R   0.078900 0.031560 0.087010 -0.529873
O17   O     O_R   0.947120 0.708470 0.097370 -0.535403
O18   O     O_R   0.052880 0.208470 0.902630 -0.535403
C43   C     C_R   0.895920 0.363584 0.893404 0.726718
C44   C     C_R   0.104080 0.863584 0.106596 0.726717
O19   O     O_3   0.008710 0.375800 0.060400 -0.370058
O20   O     O_3   0.991290 0.875800 0.939600 -0.370058
V3    V     V_3+5 0.998380 0.648080 0.988790 1.505797
V4    V     V_3+5 0.001620 0.148080 0.011210 1.505797
Cl1   Cl    Cl    0.495294 0.007292 0.178035 -0.563492
Cl2   Cl    Cl    0.504705 0.507295 0.821964 -0.563491
Cl3   Cl    Cl    0.678983 0.021221 0.950058 -0.563528
Cl4   Cl    Cl    0.321016 0.521227 0.049941 -0.563529
Cl5   Cl    Cl    0.697132 0.653212 0.396580 -0.686067
Cl6   Cl    Cl    0.302868 0.153210 0.603421 -0.686067
I1    I     I_    0.823129 0.860594 0.949824 -0.271132
I2    I     I_    0.176871 0.360594 0.050176 -0.271133

loop_
_geom_bond_atom_site_label_1
_geom_bond_atom_site_label_2
_ccdc_geom_bond_type
C16   C18   A    
O13   C41   A    
C9    C31   A    
C13   C15   A    
C26   I2    S    
C28   Cl6   S    
O2    C4    A    
C2    O7    A    
C5    C29   A    
O5    C3    A    
C23   Cl3   S    
O20   V4    S    
C21   C23   A    
C10   C12   A    
C6    C30   A    
C37   C39   T    
C42   O17   A    
C38   C40   T    
C41   O18   A    
C15   C19   A    
C6    H2    S    
C19   C21   A    
C7    C29   A    
C14   H6    S    
C8    C30   A    
C34   C43   S    
C17   C25   A    
C14   C16   A    
C24   Cl4   S    
C20   C28   A    
O15   C43   A    
O6    C4    A    
O11   C43   A    
O5    V1    S    
O6    V2    S    
O19   V3    S    
C33   C35   T    
O11   V4    S    
C34   C36   T    
C9    H3    S    
O20   V3    S    
C16   C20   A    
C10   H4    S    
C32   C41   S    
O4    C2    A    
C4    C7    S    
O14   C42   A    
O4    V2    S    
C11   H7    S    
C12   H8    S    
O16   C44   A    
C27   Cl5   S    
O14   V4    S    
O12   C44   A    
O1    V2    S    
O2    V1    S    
C7    C27   A    
C35   C37   S    
O18   V4    S    
C11   C13   A    
O19   V4    S    
O12   V3    S    
O16   V4    S    
O3    V1    S    
C1    C40   S    
C18   C32   A    
C2    C39   S    
O3    C1    A    
C29   Cl1   S    
C3    C8    S    
C12   C14   A    
C19   C27   A    
C30   Cl2   S    
O7    V1    S    
C10   C32   A    
C1    O8    A    
C23   C25   A    
O8    V2    S    
C24   C26   A    
C8    C28   A    
O13   V3    S    
C22   C24   A    
C5    H1    S    
C36   C38   S    
O17   V3    S    
C20   C22   A    
C18   C26   A    
C25   I1    S    
C9    C11   A    
O15   V3    S    
C15   C17   A    
C17   C31   A    
O9    V2    S    
C31   C42   S    
O10   V1    S    
O1    C3    A    
C5    C21   A    
C33   C44   S    
C6    C22   A    
C13   H5    S    
