data_mof_unit_5291.cif
_audit_creation_date              2012-12-10T17:03:45-0500
_audit_creation_method            fapswitch 2.2
_symmetry_space_group_name_H-M    P1
_symmetry_Int_Tables_number       1
_space_group_crystal_system       triclinic
_cell_length_a                    10.066268
_cell_length_b                    10.637858
_cell_length_c                    13.121731
_cell_angle_alpha                 90.994948
_cell_angle_beta                  69.686436
_cell_angle_gamma                 92.037683
_cell_volume                      1316.88009564

loop_
_atom_site_label
_atom_site_type_symbol
_atom_type_description
_atom_site_fract_x
_atom_site_fract_y
_atom_site_fract_z
_atom_type_partial_charge
C1    C     C_R   0.501284 0.737692 0.503452 0.875523
C2    C     C_R   0.368973 0.485531 0.822565 -0.108587
C3    C     C_2   0.622247 0.069219 0.434910 -0.244219
C4    C     C_R   0.420771 0.493816 0.704151 0.843059
C5    C     C_2   0.502984 0.132371 0.465699 -0.308641
C6    C     C_2   0.609949 0.932129 0.426362 0.445910
C7    C     C_2   0.509780 0.872511 0.509728 0.258178
C8    C     C_2   0.106293 0.449555 0.422619 0.347955
C9    C     C_2   0.963620 0.479639 0.414424 -0.084053
C10   C     C_R   0.500910 0.262780 0.492039 0.939924
C11   C     C_R   0.579006 0.499547 0.295787 0.884986
C12   C     C_R   0.431708 0.477826 0.984878 0.090113
C13   C     C_R   0.763171 0.367868 0.018572 -0.208819
C14   C     C_R   0.626127 0.482067 0.178910 -0.052209
C15   C     C_R   0.239396 0.538739 0.882606 -0.207734
C16   C     C_R   0.202883 0.556682 0.993884 -0.151138
C17   C     C_R   0.299296 0.530207 0.044529 -0.194505
C18   C     C_3   0.773227 0.937633 0.248357 -0.314353
C19   C     C_3   0.315044 0.878424 0.671854 -0.334850
C20   C     C_3   0.141189 0.290281 0.275693 -0.889478
C21   C     C_3   0.059548 0.595824 0.658903 -0.171049
C22   C     C_R   0.457691 0.441193 0.876231 0.090759
C23   C     C_R   0.539191 0.460292 0.029305 0.076460
C24   C     C_R   0.659354 0.388958 0.972243 0.171953
C25   C     C_R   0.672417 0.337718 0.871006 -0.267107
C26   C     C_R   0.572763 0.363193 0.823529 -0.195191
C27   C     C_R   0.531347 0.513709 0.128549 -0.232563
C28   C     C_R   0.745064 0.412219 0.123044 -0.218611
H1    H     H_    0.819181 0.386659 0.161888 0.148886
H2    H     H_    0.102156 0.596649 0.040285 0.146891
H3    H     H_    0.585883 0.319839 0.745581 0.177655
H4    H     H_    0.725071 0.115381 0.420803 0.163003
H5    H     H_    0.857162 0.995121 0.265986 0.167547
H6    H     H_    0.702052 0.997957 0.223149 0.165599
H7    H     H_    0.826693 0.875014 0.178755 0.192162
H8    H     H_    0.334467 0.788678 0.705776 0.158480
H9    H     H_    0.241647 0.864072 0.625615 0.181502
H10   H     H_    0.262523 0.941143 0.741594 0.195923
H11   H     H_    0.265541 0.318671 0.372004 0.263579
H12   H     H_    0.402612 0.085605 0.471476 0.165133
H13   H     H_    0.224029 0.227040 0.224552 0.259529
H14   H     H_    0.110358 0.350444 0.219888 0.249004
H15   H     H_    0.048870 0.231714 0.326047 0.242481
H16   H     H_    0.146600 0.651324 0.672755 0.175578
H17   H     H_    0.052317 0.498266 0.690591 0.134840
H18   H     H_    0.959407 0.641520 0.706604 0.138088
H19   H     H_    0.951161 0.477791 0.335672 0.141537
H20   H     H_    0.861624 0.482613 0.573243 0.202456
H21   H     H_    0.760852 0.279488 0.827696 0.148228
H22   H     H_    0.854655 0.312668 0.976050 0.138668
H23   H     H_    0.447916 0.576435 0.171231 0.157129
H24   H     H_    0.168490 0.570419 0.843168 0.132793
H25   H     H_    0.265925 0.548517 0.130735 0.148427
N1    N     N_2   0.148270 0.498670 0.498870 0.047434
N2    N     N_2   0.852610 0.498640 0.498840 -0.183760
N3    N     N_2   0.197941 0.366532 0.344462 -0.310953
O1    O     O_R   0.386950 0.680940 0.500020 -0.606454
O2    O     O_3   0.443503 0.937430 0.607141 -0.628639
O3    O     O_3   0.074633 0.599557 0.548487 -0.547902
O4    O     O_R   0.613110 0.680900 0.499980 -0.564953
O5    O     O_R   0.330780 0.500000 0.653640 -0.634206
O6    O     O_R   0.556930 0.499960 0.653610 -0.611688
O7    O     O_R   0.386890 0.319100 0.500020 -0.652064
O8    O     O_R   0.613050 0.319060 0.499980 -0.618079
O9    O     O_R   0.443070 0.500040 0.346390 -0.615869
O10   O     O_R   0.669220 0.500000 0.346360 -0.611086
O11   O     O_3   0.696211 0.862145 0.338205 -0.623467
Zn1   Zn    Zn3+2 0.349000 0.500030 0.500020 0.959434
Zn2   Zn    Zn3+2 0.651000 0.499970 0.499980 0.965419

loop_
_geom_bond_atom_site_label_1
_geom_bond_atom_site_label_2
_ccdc_geom_bond_type
C12   C17   A    
C2    C22   A    
H20   N2    S    
C2    C4    S    
C23   C24   A    
C13   C28   A    
C21   O3    S    
C6    C7    D    
C9    N2    D    
C19   H10   S    
C4    O6    A    
C14   C27   A    
C21   H16   S    
C18   H7    S    
C7    O2    S    
C20   H14   S    
C10   O7    A    
O5    Zn1   S    
C11   O10   A    
C20   N3    S    
O9    Zn1   S    
C8    N3    S    
C15   H24   S    
C20   H13   S    
C18   O11   S    
C17   H25   S    
C26   H3    S    
N1    O3    S    
O8    Zn2   S    
C2    C15   A    
C18   H6    S    
C12   C23   A    
N2    Zn2   S    
O4    Zn2   S    
C28   H1    S    
C18   H5    S    
C27   H23   S    
C9    H19   S    
C21   H17   S    
C19   H8    S    
C19   O2    S    
C3    H4    S    
C11   C14   S    
C25   H21   S    
C5    H12   S    
O10   Zn2   S    
N1    Zn1   S    
C15   C16   A    
O1    Zn1   S    
C16   H2    S    
C13   H22   S    
C16   C17   A    
C12   C22   A    
C5    C10   S    
C20   H15   S    
C24   C25   A    
C13   C24   A    
C21   H18   S    
C22   C26   A    
C1    O4    A    
C8    N1    D    
O7    Zn1   S    
C6    O11   S    
C19   H9    S    
C14   C28   A    
C25   C26   A    
C1    C7    S    
C11   O9    A    
C4    O5    A    
C3    C6    S    
C10   O8    A    
C23   C27   A    
H11   N3    S    
O6    Zn2   S    
C8    C9    S    
C3    C5    D    
C1    O1    A    
