data_mof_unit_45775.cif
_audit_creation_date              2012-12-11T15:43:00-0500
_audit_creation_method            fapswitch 2.2
_symmetry_space_group_name_H-M    P1
_symmetry_Int_Tables_number       1
_space_group_crystal_system       triclinic
_cell_length_a                    19.114461
_cell_length_b                    11.006663
_cell_length_c                    18.674428
_cell_angle_alpha                 89.555679
_cell_angle_beta                  90.028311
_cell_angle_gamma                 89.745518
_cell_volume                      3928.6888152

loop_
_atom_site_label
_atom_site_type_symbol
_atom_type_description
_atom_site_fract_x
_atom_site_fract_y
_atom_site_fract_z
_atom_type_partial_charge
C1    C     C_R   0.730639 0.378959 0.146625 0.553350
C2    C     C_R   0.271894 0.372582 0.855116 0.546521
C3    C     C_R   0.230639 0.878958 0.146625 0.553353
C4    C     C_R   0.771895 0.872578 0.855117 0.546523
C5    C     C_R   0.538014 0.364414 0.924784 0.025693
C6    C     C_R   0.496459 0.402226 0.068031 0.036538
C7    C     C_R   0.038023 0.864397 0.924787 0.025699
C8    C     C_R   0.996463 0.902217 0.068032 0.036562
C9    C     C_R   0.037568 0.983363 0.952648 0.039891
C10   C     C_R   0.018558 0.002053 0.025122 0.038109
C11   C     C_R   0.537546 0.483382 0.952642 0.039896
C12   C     C_R   0.518537 0.502070 0.025117 0.038094
C13   C     C_R   0.762572 0.892155 0.929645 0.025359
C14   C     C_R   0.257195 0.935991 0.081495 0.016047
C15   C     C_R   0.262574 0.392170 0.929644 0.025347
C16   C     C_R   0.757195 0.436007 0.081499 0.016035
C17   C     C_R   0.708661 0.963344 0.954351 -0.017874
C18   C     C_R   0.304005 0.872776 0.037906 -0.002858
C19   C     C_R   0.208618 0.463255 0.954357 -0.017863
C20   C     C_R   0.804033 0.372832 0.037920 -0.002870
C21   C     C_R   0.701242 0.980622 0.026528 0.004078
C22   C     C_R   0.311202 0.903379 0.966480 0.006176
C23   C     C_R   0.201201 0.480525 0.026536 0.004100
C24   C     C_R   0.811227 0.403427 0.966493 0.006166
C25   C     C_R   0.805613 0.864764 0.051194 -0.166246
C26   C     C_R   0.235704 0.076271 0.982633 -0.157035
C27   C     C_R   0.305638 0.364838 0.051187 -0.166257
C28   C     C_R   0.735675 0.576256 0.982626 -0.157025
C29   C     C_R   0.813495 0.847146 0.977766 -0.136605
C30   C     C_R   0.227541 0.044675 0.054959 -0.142348
C31   C     C_R   0.313524 0.347239 0.977759 -0.136622
C32   C     C_R   0.727513 0.544665 0.054953 -0.142342
C33   C     C_3   0.632094 0.954115 0.941995 -0.286131
C34   C     C_3   0.307415 0.740120 0.022197 -0.249877
C35   C     C_3   0.132055 0.453844 0.942019 -0.286166
C36   C     C_3   0.807496 0.240174 0.022220 -0.249879
C37   C     C_3   0.623869 0.976265 0.021628 -0.245611
C38   C     C_3   0.316184 0.773832 0.943936 -0.257115
C39   C     C_3   0.123832 0.475989 0.021649 -0.245681
C40   C     C_3   0.816261 0.273879 0.943957 -0.257104
C41   C     C_R   0.747112 0.927785 0.076036 0.020462
C42   C     C_R   0.272512 0.998858 0.936401 0.010667
C43   C     C_R   0.247110 0.427772 0.076037 0.020442
C44   C     C_R   0.772511 0.498867 0.936402 0.010654
C45   C     C_R   0.528712 0.157343 0.148682 0.534847
C46   C     C_R   0.464558 0.153814 0.855897 0.530562
C47   C     C_R   0.028711 0.657343 0.148682 0.534851
C48   C     C_R   0.964556 0.653814 0.855898 0.530556
C49   C     C_R   0.496609 0.173461 0.576426 0.007820
C50   C     C_R   0.514543 0.158764 0.427982 0.024855
C51   C     C_R   0.996606 0.673461 0.576425 0.007817
C52   C     C_R   0.014542 0.658764 0.427981 0.024854
C53   C     C_R   0.543877 0.092092 0.547761 0.011005
C54   C     C_R   0.553836 0.086172 0.475337 0.033207
C55   C     C_R   0.043878 0.592097 0.547761 0.011005
C56   C     C_R   0.053837 0.586176 0.475336 0.033208
C57   C     C_R   0.471615 0.249439 0.456057 -0.185078
C58   C     C_R   0.465716 0.260032 0.530407 -0.171505
C59   C     C_R   0.971608 0.749433 0.456056 -0.185083
C60   C     C_R   0.965708 0.760025 0.530405 -0.171507
C61   C     C_3   0.558217 0.960687 0.559792 -0.148837
C62   C     C_3   0.571821 0.952888 0.479176 -0.105329
C63   C     C_3   0.058219 0.460693 0.559792 -0.148837
C64   C     C_3   0.071823 0.452892 0.479176 -0.105329
C65   C     C_R   0.783709 0.842885 0.563069 -0.016908
C66   C     C_R   0.224055 0.862218 0.434204 -0.010725
C67   C     C_R   0.283710 0.342882 0.563069 -0.016904
C68   C     C_R   0.724056 0.362224 0.434203 -0.010727
C69   C     C_R   0.822307 0.933390 0.530176 -0.003233
C70   C     C_R   0.167506 0.871588 0.480995 0.005399
C71   C     C_R   0.322313 0.433379 0.530173 -0.003230
C72   C     C_R   0.667506 0.371594 0.480994 0.005402
C73   C     C_R   0.815090 0.959655 0.459406 0.005797
C74   C     C_R   0.178149 0.894343 0.552667 0.005002
C75   C     C_R   0.315097 0.459642 0.459402 0.005799
C76   C     C_R   0.678149 0.394348 0.552666 0.005001
C77   C     C_R   0.736935 0.792581 0.444232 -0.047567
C78   C     C_R   0.302968 0.872089 0.535081 -0.040160
C79   C     C_R   0.236931 0.292581 0.444233 -0.047564
C80   C     C_R   0.802968 0.372095 0.535080 -0.040157
C81   C     C_R   0.745860 0.763517 0.518190 -0.154889
C82   C     C_R   0.291778 0.861946 0.461755 -0.153787
C83   C     C_R   0.245856 0.263518 0.518191 -0.154886
C84   C     C_R   0.791779 0.361953 0.461754 -0.153787
C85   C     C_3   0.834891 0.061656 0.550668 -0.259681
C86   C     C_3   0.105713 0.955149 0.478361 -0.269603
C87   C     C_3   0.334906 0.561643 0.550663 -0.259688
C88   C     C_3   0.605715 0.455160 0.478360 -0.269601
C89   C     C_R   0.741675 0.967686 0.148727 0.534831
C90   C     C_R   0.273059 0.021417 0.859414 0.559591
C91   C     C_R   0.241673 0.467689 0.148726 0.534838
C92   C     C_R   0.773058 0.521417 0.859414 0.559589
C93   C     C_3   0.825159 0.091279 0.472399 -0.253985
C94   C     C_3   0.115391 0.975505 0.557647 -0.270516
C95   C     C_3   0.325175 0.591266 0.472394 -0.253991
C96   C     C_3   0.615393 0.475513 0.557646 -0.270517
C97   C     C_R   0.765141 0.902127 0.417625 0.021437
C98   C     C_R   0.245997 0.904971 0.580046 0.024115
C99   C     C_R   0.265142 0.402122 0.417624 0.021436
C100  C     C_R   0.745997 0.404974 0.580046 0.024112
C101  C     C_R   0.712148 0.335039 0.359943 0.561278
C102  C     C_R   0.289979 0.329227 0.640805 0.567008
C103  C     C_R   0.212148 0.835038 0.359943 0.561279
C104  C     C_R   0.789979 0.829228 0.640805 0.567005
C105  C     C_R   0.532896 0.155883 0.353579 0.539553
C106  C     C_R   0.468036 0.158036 0.647137 0.538926
C107  C     C_R   0.032896 0.655883 0.353579 0.539552
C108  C     C_R   0.968035 0.658036 0.647136 0.538925
C109  C     C_R   0.743740 0.966281 0.352034 0.524176
C110  C     C_R   0.258288 0.969350 0.646507 0.549526
C111  C     C_R   0.243740 0.466280 0.352034 0.524174
C112  C     C_R   0.758288 0.469351 0.646506 0.549526
C113  C     C_R   0.484948 0.159161 0.931923 -0.016350
C114  C     C_R   0.488755 0.174242 0.081414 -0.022908
C115  C     C_R   0.984945 0.659157 0.931924 -0.016380
C116  C     C_R   0.988751 0.674241 0.081416 -0.022923
C117  C     C_R   0.507212 0.268546 0.964524 -0.004081
C118  C     C_R   0.496905 0.282424 0.039138 0.007387
C119  C     C_R   0.007212 0.768537 0.964525 -0.004033
C120  C     C_R   0.996904 0.782417 0.039138 0.007425
C121  C     C_R   0.465067 0.068582 0.048772 -0.170461
C122  C     C_R   0.462882 0.061595 0.975104 -0.163115
C123  C     C_R   0.965053 0.568585 0.048776 -0.170499
C124  C     C_R   0.962873 0.561596 0.975106 -0.163168
Cr1   Cr    Cr6+3 0.772010 0.169670 0.250090 0.993101
Cr2   Cr    Cr6+3 0.227990 0.169670 0.749910 0.972071
Cr3   Cr    Cr6+3 0.272010 0.669670 0.250090 0.993102
Cr4   Cr    Cr6+3 0.727990 0.669670 0.749910 0.972071
Cr5   Cr    Cr6+3 0.615000 0.323260 0.249260 0.988093
Cr6   Cr    Cr6+3 0.385000 0.323260 0.750740 0.989449
Cr7   Cr    Cr6+3 0.115000 0.823260 0.249260 0.988101
Cr8   Cr    Cr6+3 0.885000 0.823260 0.750740 0.989463
Cr9   Cr    Cr6+3 0.616710 0.010760 0.250840 0.985666
Cr10  Cr    Cr6+3 0.383290 0.010760 0.749160 0.982818
Cr11  Cr    Cr6+3 0.116710 0.510760 0.250840 0.985665
Cr12  Cr    Cr6+3 0.883290 0.510760 0.749160 0.982816
H1    H     H_    0.454866 0.987045 0.079889 0.141498
H2    H     H_    0.445314 0.977387 0.951821 0.151536
H3    H     H_    0.954850 0.487050 0.079893 0.141517
H4    H     H_    0.945307 0.477387 0.951823 0.151557
H5    H     H_    0.445134 0.313896 0.421158 0.125418
H6    H     H_    0.434564 0.331764 0.552232 0.147725
H7    H     H_    0.945125 0.813885 0.421156 0.125419
H8    H     H_    0.934551 0.831750 0.552229 0.147727
H9    H     H_    0.012734 0.408096 0.578901 0.159882
H10   H     H_    0.127289 0.436630 0.465317 0.165814
H11   H     H_    0.512732 0.908091 0.578900 0.159881
H12   H     H_    0.627288 0.936624 0.465317 0.165813
H13   H     H_    0.722062 0.683068 0.540511 0.130559
H14   H     H_    0.336164 0.849302 0.426430 0.137858
H15   H     H_    0.222053 0.183075 0.540514 0.130560
H16   H     H_    0.836164 0.349311 0.426429 0.137857
H17   H     H_    0.889337 0.076004 0.569675 0.134903
H18   H     H_    0.056832 0.910420 0.464912 0.155586
H19   H     H_    0.389354 0.575981 0.569669 0.134896
H20   H     H_    0.556833 0.410435 0.464909 0.155581
H21   H     H_    0.775234 0.138917 0.461448 0.152850
H22   H     H_    0.126791 0.071666 0.570149 0.147563
H23   H     H_    0.275252 0.638912 0.461443 0.152859
H24   H     H_    0.626794 0.571673 0.570149 0.147565
H25   H     H_    0.872861 0.127235 0.445767 0.138489
H26   H     H_    0.073255 0.934149 0.590673 0.142826
H27   H     H_    0.372879 0.627212 0.445760 0.138483
H28   H     H_    0.573256 0.434157 0.590671 0.142823
H29   H     H_    0.843234 0.826409 0.088108 0.117806
H30   H     H_    0.210125 0.157019 0.962202 0.124832
H31   H     H_    0.343279 0.326530 0.088095 0.117825
H32   H     H_    0.710077 0.656982 0.962188 0.124848
H33   H     H_    0.857556 0.794779 0.958569 0.140115
H34   H     H_    0.193527 0.099417 0.088159 0.130612
H35   H     H_    0.357609 0.294940 0.958557 0.140161
H36   H     H_    0.693476 0.599382 0.088144 0.130635
H37   H     H_    0.115716 0.361462 0.925429 0.135246
H38   H     H_    0.757079 0.195090 0.033938 0.156670
H39   H     H_    0.615684 0.861773 0.925393 0.135264
H40   H     H_    0.256982 0.695091 0.033917 0.156636
H41   H     H_    0.612123 0.029812 0.907983 0.142281
H42   H     H_    0.354166 0.695404 0.045920 0.143867
H43   H     H_    0.112013 0.529483 0.908007 0.142335
H44   H     H_    0.854262 0.195518 0.045951 0.143822
H45   H     H_    0.602732 0.067432 0.033147 0.162977
H46   H     H_    0.368842 0.750751 0.922609 0.140423
H47   H     H_    0.102639 0.567107 0.033165 0.163060
H48   H     H_    0.868931 0.250854 0.922637 0.140403
H49   H     H_    0.600589 0.898943 0.051772 0.149351
H50   H     H_    0.271418 0.745294 0.909987 0.149024
H51   H     H_    0.100615 0.398634 0.051806 0.149287
H52   H     H_    0.771508 0.245282 0.910005 0.149046
O1    O     O_R   0.787520 0.042810 0.170440 -0.530370
O2    O     O_R   0.212480 0.042810 0.829560 -0.537195
O3    O     O_R   0.287520 0.542810 0.170440 -0.530372
O4    O     O_R   0.712480 0.542810 0.829560 -0.537191
O5    O     O_R   0.556610 0.252880 0.323980 -0.521433
O6    O     O_R   0.443390 0.252880 0.676020 -0.524660
O7    O     O_R   0.056610 0.752880 0.323980 -0.521433
O8    O     O_R   0.943390 0.752880 0.676020 -0.524660
O9    O     O_R   0.545950 0.051210 0.330860 -0.523161
O10   O     O_R   0.454050 0.051210 0.669140 -0.533572
O11   O     O_R   0.045950 0.551210 0.330860 -0.523162
O12   O     O_R   0.954050 0.551210 0.669140 -0.533572
O13   O     O_R   0.681390 0.959480 0.325510 -0.511387
O14   O     O_R   0.318610 0.959480 0.674490 -0.506466
O15   O     O_R   0.181390 0.459480 0.325510 -0.511389
O16   O     O_R   0.818610 0.459480 0.674490 -0.506465
O17   O     O_3   0.667900 0.167900 0.250060 -0.256548
O18   O     O_3   0.332100 0.167900 0.749940 -0.285415
O19   O     O_3   0.167900 0.667900 0.250060 -0.256549
O20   O     O_3   0.832100 0.667900 0.749940 -0.285419
O21   O     O_R   0.765640 0.292100 0.175020 -0.494810
O22   O     O_R   0.234360 0.292100 0.824980 -0.520423
O23   O     O_R   0.265640 0.792100 0.175020 -0.494808
O24   O     O_R   0.734360 0.792100 0.824980 -0.520432
O25   O     O_R   0.670190 0.408840 0.168540 -0.519004
O26   O     O_R   0.329810 0.408840 0.831460 -0.510280
O27   O     O_R   0.170190 0.908840 0.168540 -0.518998
O28   O     O_R   0.829810 0.908840 0.831460 -0.510258
O29   O     O_R   0.556620 0.251410 0.175160 -0.496941
O30   O     O_R   0.443380 0.251410 0.824840 -0.498368
O31   O     O_R   0.056620 0.751410 0.175160 -0.496930
O32   O     O_R   0.943380 0.751410 0.824840 -0.498354
O33   O     O_R   0.545960 0.049620 0.170320 -0.523238
O34   O     O_R   0.454040 0.049620 0.829680 -0.531174
O35   O     O_R   0.045960 0.549620 0.170320 -0.523238
O36   O     O_R   0.954040 0.549620 0.829680 -0.531184
O37   O     O_R   0.681390 0.958010 0.176690 -0.501622
O38   O     O_R   0.318610 0.958010 0.823310 -0.498705
O39   O     O_R   0.181390 0.458010 0.176690 -0.501621
O40   O     O_R   0.818610 0.458010 0.823310 -0.498704
O41   O     O_R   0.787510 0.044390 0.330970 -0.527664
O42   O     O_R   0.212490 0.044390 0.669030 -0.534629
O43   O     O_R   0.287510 0.544390 0.330970 -0.527665
O44   O     O_R   0.712490 0.544390 0.669030 -0.534629
O45   O     O_R   0.765630 0.293570 0.323840 -0.511425
O46   O     O_R   0.234370 0.293570 0.676160 -0.515972
O47   O     O_R   0.265630 0.793570 0.323840 -0.511426
O48   O     O_R   0.734370 0.793570 0.676160 -0.515972
O49   O     O_R   0.670190 0.410420 0.329080 -0.525588
O50   O     O_R   0.329810 0.410420 0.670920 -0.518393
O51   O     O_R   0.170190 0.910420 0.329080 -0.525590
O52   O     O_R   0.829810 0.910420 0.670920 -0.518393
C125  C     C_3   0.622128 0.939216 0.606134 -0.391587
H53   H     H_    0.667639 0.992531 0.586668 0.146799
H54   H     H_    0.610549 0.964943 0.662288 0.159057
H55   H     H_    0.633700 0.840733 0.604354 0.162514
C126  C     C_3   0.521414 0.867628 0.440406 -0.402828
H56   H     H_    0.468128 0.907623 0.436754 0.144882
H57   H     H_    0.540477 0.849332 0.385499 0.167729
H58   H     H_    0.519480 0.778699 0.468820 0.103395
C127  C     C_3   0.122130 0.439222 0.606133 -0.391588
H59   H     H_    0.167641 0.492535 0.586667 0.146800
H60   H     H_    0.110552 0.464953 0.662288 0.159057
H61   H     H_    0.133701 0.340739 0.604355 0.162514
C128  C     C_3   0.021415 0.367632 0.440407 -0.402828
H62   H     H_    0.968129 0.407628 0.436754 0.144882
H63   H     H_    0.040477 0.349335 0.385501 0.167730
H64   H     H_    0.019481 0.278704 0.468822 0.103395
C129  C     C_3   0.697901 0.709076 0.395981 -0.385678
H65   H     H_    0.707563 0.730021 0.338633 0.148597
H66   H     H_    0.716484 0.614836 0.405315 0.157883
H67   H     H_    0.641218 0.718037 0.406502 0.118756
C130  C     C_3   0.376808 0.857374 0.560653 -0.376871
H68   H     H_    0.399869 0.948885 0.564994 0.175413
H69   H     H_    0.379226 0.805827 0.611886 0.155530
H70   H     H_    0.407998 0.802798 0.522770 0.091220
C131  C     C_3   0.197890 0.209080 0.395986 -0.385684
H71   H     H_    0.207542 0.230031 0.338636 0.148604
H72   H     H_    0.216477 0.114840 0.405314 0.157885
H73   H     H_    0.141209 0.218036 0.406518 0.118751
C132  C     C_3   0.876809 0.357381 0.560651 -0.376867
H74   H     H_    0.899870 0.448893 0.564991 0.175410
H75   H     H_    0.879228 0.305836 0.611884 0.155533
H76   H     H_    0.907998 0.302803 0.522768 0.091215
H77   H     H_    0.792907 0.099950 0.585133 0.155888
H78   H     H_    0.113992 0.037033 0.445674 0.135689
H79   H     H_    0.292925 0.599947 0.585128 0.155893
H80   H     H_    0.613996 0.537045 0.445674 0.135687
C133  C     C_3   0.581932 0.336794 0.859182 -0.363506
H81   H     H_    0.592074 0.238240 0.852777 0.106589
H82   H     H_    0.556930 0.372546 0.809659 0.148506
H83   H     H_    0.634202 0.377767 0.865737 0.166572
C134  C     C_3   0.463260 0.428886 0.140236 -0.356036
H84   H     H_    0.438688 0.348074 0.165280 0.122626
H85   H     H_    0.502756 0.465786 0.177745 0.145886
H86   H     H_    0.420734 0.496837 0.133472 0.134058
C135  C     C_3   0.081944 0.836765 0.859188 -0.363521
H87   H     H_    0.092083 0.738206 0.852788 0.106616
H88   H     H_    0.056945 0.872516 0.809663 0.148508
H89   H     H_    0.134216 0.877732 0.865743 0.166555
C136  C     C_3   0.963248 0.928883 0.140227 -0.356025
H90   H     H_    0.938669 0.848071 0.165266 0.122616
H91   H     H_    0.002736 0.965781 0.177746 0.145869
H92   H     H_    0.920726 0.996835 0.133452 0.134078
C137  C     C_3   0.052580 0.090972 0.903905 -0.375159
H93   H     H_    0.057898 0.066635 0.846796 0.136960
H94   H     H_    0.008532 0.156938 0.906585 0.114735
H95   H     H_    0.101383 0.136135 0.920295 0.133416
C138  C     C_3   0.023883 0.127155 0.058691 -0.402073
H96   H     H_    0.971388 0.160858 0.074023 0.116773
H97   H     H_    0.057385 0.121837 0.107188 0.131379
H98   H     H_    0.047661 0.196902 0.023595 0.115621
C139  C     C_3   0.552540 0.590995 0.903893 -0.375147
H99   H     H_    0.557875 0.566655 0.846785 0.136940
H100  H     H_    0.508474 0.656930 0.906563 0.114747
H101  H     H_    0.601331 0.636202 0.920287 0.133390
C140  C     C_3   0.523837 0.627181 0.058680 -0.402068
H102  H     H_    0.471333 0.660856 0.074005 0.116796
H103  H     H_    0.557336 0.621887 0.107180 0.131359
H104  H     H_    0.547606 0.696946 0.023584 0.115627

loop_
_geom_bond_atom_site_label_1
_geom_bond_atom_site_label_2
_ccdc_geom_bond_type
Cr4   O48   S    
C73   C93   S    
C75   C95   S    
C139  H99   S    
C134  H86   S    
C46   O30   A    
C79   C99   A    
Cr9   O37   S    
Cr11  O11   S    
C11   C139  S    
C3    O27   A    
C22   C38   S    
C23   C43   A    
Cr3   O19   S    
C110  O42   A    
C37   H49   S    
C113  C122  A    
C70   C74   A    
Cr8   O28   S    
C44   C92   S    
C64   H10   S    
C105  O9    A    
Cr12  O40   S    
C59   C60   A    
Cr4   O44   S    
C126  H56   S    
C35   H43   S    
C25   C29   A    
C47   C116  S    
C127  H60   S    
Cr7   O27   S    
C7    C119  A    
C28   C32   A    
C68   C101  S    
C25   C41   A    
C62   C126  S    
Cr11  O15   S    
C1    O21   A    
C28   C44   A    
C17   C21   A    
C19   C23   A    
Cr1   O45   S    
C95   H27   S    
C66   C82   A    
C78   C82   A    
C93   H25   S    
C68   C72   A    
C37   H45   S    
C102  O46   A    
C132  H75   S    
C112  O16   A    
C33   H41   S    
Cr9   O13   S    
C128  H63   S    
C139  H101  S    
C104  O52   A    
C47   O35   A    
Cr9   O9    S    
Cr5   O49   S    
C50   C57   A    
C66   C103  S    
C90   O38   A    
Cr7   O7    S    
C49   C106  S    
C76   C100  A    
Cr11  O35   S    
Cr3   O47   S    
C46   O34   A    
C110  O14   A    
C86   H18   S    
C135  H88   S    
C19   C35   S    
C76   C96   S    
C66   C70   A    
C49   C53   A    
Cr1   O17   S    
Cr6   O26   S    
C51   C55   A    
Cr12  O12   S    
C28   H32   S    
C116  C120  A    
C8    C10   A    
C126  H58   S    
C5    C117  A    
Cr4   O20   S    
Cr8   O32   S    
C60   H8    S    
C41   C89   S    
C67   C83   A    
C4    O28   A    
C116  C123  A    
C111  O43   A    
Cr7   O19   S    
C9    C137  S    
C123  C124  A    
C74   C98   A    
C53   C54   A    
C127  H59   S    
Cr11  O39   S    
C95   H23   S    
Cr1   O41   S    
C130  H68   S    
C81   H13   S    
C123  H3    S    
C125  H53   S    
C121  H1    S    
Cr6   O30   S    
C32   H36   S    
C85   C93   S    
C45   C114  S    
C140  H103  S    
C87   C95   S    
C50   C105  S    
C56   C64   S    
C77   C97   A    
C9    C10   A    
C59   H7    S    
C62   H12   S    
C133  H81   S    
C138  H97   S    
C87   H79   S    
C8    C136  S    
C3    O23   A    
C101  O49   A    
C35   H37   S    
C21   C41   A    
Cr1   O21   S    
C48   O36   A    
C38   H50   S    
Cr3   O3    S    
C96   H28   S    
Cr4   O4    S    
C137  H93   S    
Cr6   O18   S    
C97   C109  S    
Cr12  O36   S    
C99   C111  S    
C75   C99   A    
C136  H90   S    
C114  C118  A    
C131  H72   S    
C113  C117  A    
C26   C30   A    
C115  C119  A    
C69   C85   S    
C26   C42   A    
Cr11  O19   S    
C64   C128  S    
C90   O2    A    
C127  H61   S    
C103  O47   A    
C46   C113  S    
C18   C22   A    
C130  H70   S    
C15   C31   A    
C40   H52   S    
C16   C32   A    
C38   H46   S    
C13   C17   A    
C129  H67   S    
C29   H33   S    
Cr8   O52   S    
C117  C118  A    
C10   C138  S    
C107  O11   A    
C57   C58   A    
C31   H35   S    
C78   C130  S    
C85   H77   S    
Cr5   O25   S    
C61   C62   S    
Cr2   O46   S    
C63   C64   S    
C104  O48   A    
C133  H83   S    
C51   C60   A    
C63   H9    S    
C55   C56   A    
C88   C96   S    
C36   H38   S    
C98   C110  S    
C74   C94   S    
C36   H44   S    
C80   C84   A    
C15   C19   A    
C50   C54   A    
C88   H20   S    
C13   C29   A    
C5    C11   A    
C137  H95   S    
C6    C12   A    
Cr10  O18   S    
C136  H92   S    
C7    C9    A    
C80   C132  S    
C30   H34   S    
Cr5   O29   S    
C114  C121  A    
C109  O41   A    
C26   H30   S    
C52   C107  S    
Cr9   O33   S    
C69   C73   A    
C108  O8    A    
C106  O10   A    
C94   H22   S    
C132  H74   S    
C61   C125  S    
C17   C33   S    
C2    O22   A    
C83   H15   S    
C139  H100  S    
Cr1   O1    S    
C68   C84   A    
C122  H2    S    
C106  O6    A    
C125  H54   S    
Cr12  O20   S    
C54   C62   S    
C25   H29   S    
C27   C31   A    
C33   C37   S    
C35   C39   S    
C135  H87   S    
C7    C135  S    
C128  H64   S    
Cr5   O17   S    
C58   H6    S    
C65   C81   A    
C77   C81   A    
C12   C140  S    
C1    C16   S    
C2    C15   S    
C121  C122  A    
C3    C14   S    
C71   C87   S    
C63   C127  S    
C100  C112  S    
C126  H57   S    
C1    O25   A    
C24   C44   A    
C34   H42   S    
C6    C134  S    
C134  H85   S    
C111  O15   A    
C86   H78   S    
C48   O32   A    
C24   C40   S    
C115  C124  A    
C91   O39   A    
C124  H4    S    
C89   O37   A    
Cr6   O6    S    
C119  C120  A    
C112  O44   A    
C57   H5    S    
C125  H55   S    
C109  O13   A    
C61   H11   S    
C45   O33   A    
Cr4   O24   S    
C79   C83   A    
C128  H62   S    
C91   O3    A    
Cr2   O18   S    
C65   C69   A    
C67   C71   A    
C20   C36   S    
C27   C43   A    
C21   C37   S    
C92   O40   A    
C103  O51   A    
C140  H102  S    
C132  H76   S    
C89   O1    A    
C39   H47   S    
C92   O4    A    
C40   H48   S    
C105  O5    A    
C71   C75   A    
C45   O29   A    
C138  H96   S    
C14   C18   A    
C72   C76   A    
C107  O7    A    
C73   C97   A    
Cr10  O38   S    
Cr7   O31   S    
Cr2   O42   S    
C129  H65   S    
C135  H89   S    
Cr9   O17   S    
Cr2   O2    S    
C4    C13   S    
C86   C94   S    
C79   C131  S    
C20   C24   A    
Cr7   O51   S    
C51   C108  S    
C78   C98   A    
C42   C90   S    
C131  H71   S    
C94   H26   S    
C16   C20   A    
C39   H51   S    
C80   C100  A    
C53   C61   S    
C14   C30   A    
C72   C88   S    
Cr10  O14   S    
C102  O50   A    
C36   C40   S    
C5    C133  S    
Cr2   O22   S    
C130  H69   S    
Cr10  O34   S    
C134  H84   S    
C47   O31   A    
C43   C91   S    
C49   C58   A    
C55   C63   S    
C129  H66   S    
C108  O12   A    
C52   C59   A    
C140  H104  S    
Cr3   O43   S    
C85   H17   S    
C93   H21   S    
C18   C34   S    
C82   H14   S    
C48   C115  S    
C84   H16   S    
Cr3   O23   S    
C96   H24   S    
Cr8   O20   S    
C133  H82   S    
C138  H98   S    
C87   H19   S    
C70   C86   S    
Cr12  O16   S    
C8    C120  A    
Cr10  O10   S    
Cr6   O50   S    
C34   C38   S    
Cr5   O5    S    
C11   C12   A    
C2    O26   A    
C4    O24   A    
C88   H80   S    
C137  H94   S    
C101  O45   A    
C22   C42   A    
C23   C39   S    
C136  H91   S    
C33   H39   S    
C131  H73   S    
C34   H40   S    
Cr8   O8    S    
C77   C129  S    
C65   C104  S    
C6    C118  A    
C52   C56   A    
C67   C102  S    
C27   H31   S    
