data_mof_unit_62737.cif
_audit_creation_date              2012-12-10T16:39:44-0500
_audit_creation_method            fapswitch 2.2
_symmetry_space_group_name_H-M    P1
_symmetry_Int_Tables_number       1
_space_group_crystal_system       triclinic
_cell_length_a                    10.921876
_cell_length_b                    10.862388
_cell_length_c                    16.021523
_cell_angle_alpha                 91.427693
_cell_angle_beta                  97.038654
_cell_angle_gamma                 98.801458
_cell_volume                      1862.3691024

loop_
_atom_site_label
_atom_site_type_symbol
_atom_type_description
_atom_site_fract_x
_atom_site_fract_y
_atom_site_fract_z
_atom_type_partial_charge
C1    C     C_R   0.837615 0.523826 0.516981 0.853436
C2    C     C_R   0.528227 0.836249 0.518513 0.859388
C3    C     C_R   0.467472 0.162707 0.484568 0.854650
C4    C     C_R   0.484053 0.515864 0.275905 0.817492
C5    C     C_R   0.515490 0.484605 0.723844 0.809880
C6    C     C_1   0.477157 0.522698 0.186370 -0.138558
C7    C     C_2   0.465314 0.534386 0.021132 -0.162834
C8    C     C_2   0.532473 0.467950 0.978624 -0.163881
C9    C     C_3   0.041973 0.648453 0.588429 -0.365476
C10   C     C_3   0.958550 0.727211 0.630261 -0.402787
C11   C     C_3   0.037120 0.829967 0.689210 -0.871303
C12   C     C_1   0.526451 0.473852 0.888682 0.006629
C13   C     C_3   0.311671 0.949275 0.459832 -0.420532
C14   C     C_3   0.205925 0.022356 0.429504 -0.319131
C15   C     C_3   0.079700 0.937029 0.415361 -0.895018
C16   C     C_1   0.471511 0.528279 0.111077 0.007144
C17   C     C_1   0.521336 0.478867 0.813385 -0.135251
C18   C     C_2   0.025824 0.468222 0.479196 -0.400431
C19   C     C_2   0.971664 0.542677 0.527714 -0.022973
C20   C     C_2   0.441064 0.026165 0.487521 -0.063967
C21   C     C_2   0.536788 0.970115 0.519451 -0.344789
C22   C     C_R   0.160783 0.476495 0.482340 0.885082
H1    H     H_    0.592528 0.408571 0.011184 0.160036
H2    H     H_    0.099170 0.607491 0.639527 0.235195
H3    H     H_    0.104072 0.712813 0.553207 0.223760
H4    H     H_    0.082064 0.859325 0.369466 0.266958
H5    H     H_    0.055245 0.898158 0.475677 0.263210
H6    H     H_    0.006111 0.991223 0.390126 0.259173
H7    H     H_    0.200640 0.096735 0.477278 0.228404
H8    H     H_    0.223323 0.064797 0.368824 0.253328
H9    H     H_    0.319758 0.880857 0.408763 0.197613
H10   H     H_    0.282734 0.896334 0.514521 0.228193
H11   H     H_    0.405238 0.593779 0.988613 0.160122
H12   H     H_    0.967799 0.398278 0.435599 0.131980
H13   H     H_    0.629944 0.023172 0.535564 0.150872
H14   H     H_    0.094505 0.788855 0.740032 0.267471
H15   H     H_    0.099581 0.893324 0.653648 0.261309
H16   H     H_    0.974730 0.885315 0.718342 0.254033
H17   H     H_    0.900942 0.771684 0.581309 0.236086
H18   H     H_    0.895463 0.666794 0.667184 0.224068
O1    O     O_3   0.500000 0.500000 0.500000 -0.481150
O2    O     O_R   0.566290 0.591070 0.323460 -0.633738
O3    O     O_R   0.580640 0.419420 0.684420 -0.634195
O4    O     O_R   0.407770 0.434760 0.307690 -0.635028
O5    O     O_R   0.445300 0.554750 0.684430 -0.640095
O6    O     O_R   0.452040 0.769470 0.559450 -0.644004
O7    O     O_R   0.554760 0.223750 0.537250 -0.645487
O8    O     O_R   0.782610 0.596300 0.470630 -0.650753
O9    O     O_R   0.210590 0.410470 0.432660 -0.645323
O10   O     O_R   0.777820 0.443700 0.559450 -0.643542
O11   O     O_R   0.228980 0.549520 0.537250 -0.659750
O12   O     O_R   0.592170 0.786730 0.470640 -0.642123
O13   O     O_R   0.401030 0.220040 0.432660 -0.659949
Zn1   Zn    Zn3+2 0.408180 0.591840 0.569080 0.945310
Zn2   Zn    Zn3+2 0.608390 0.616500 0.442190 0.962356
Zn3   Zn    Zn3+2 0.381900 0.393170 0.419650 0.955488
Zn4   Zn    Zn3+2 0.601540 0.398480 0.569080 0.963402

loop_
_geom_bond_atom_site_label_1
_geom_bond_atom_site_label_2
_ccdc_geom_bond_type
C12   C17   T    
O8    Zn2   S    
C1    O8    A    
C21   H13   S    
O2    Zn2   S    
C11   H16   S    
O9    Zn3   S    
C7    H11   S    
C9    C10   S    
O4    Zn3   S    
C13   H10   S    
C15   H5    S    
O12   Zn2   S    
C8    C12   S    
O11   Zn1   S    
O6    Zn1   S    
C2    C21   S    
C5    O3    A    
C9    H3    S    
C7    C8    D    
C9    H2    S    
C5    O5    A    
C13   C14   S    
C2    O6    A    
C3    O13   A    
C15   H6    S    
C10   H17   S    
C2    O12   A    
C14   H8    S    
C22   O9    A    
C3    O7    A    
C11   H14   S    
C9    C19   S    
O5    Zn1   S    
O1    Zn3   S    
C18   H12   S    
C4    O2    A    
O1    Zn1   S    
C1    C19   S    
C5    C17   S    
C10   C11   S    
O3    Zn4   S    
C14   H7    S    
O1    Zn4   S    
C3    C20   S    
C8    H1    S    
C20   C21   D    
C4    C6    S    
C18   C19   D    
C1    O10   A    
O13   Zn3   S    
O7    Zn4   S    
C11   H15   S    
C14   C15   S    
C7    C16   S    
C10   H18   S    
C4    O4    A    
C13   C20   S    
C18   C22   S    
O10   Zn4   S    
C6    C16   T    
C13   H9    S    
O1    Zn2   S    
C22   O11   A    
C15   H4    S    
