data_mof_unit_18860.cif
_audit_creation_date              2012-12-10T17:37:45-0500
_audit_creation_method            fapswitch 2.2
_symmetry_space_group_name_H-M    P1
_symmetry_Int_Tables_number       1
_space_group_crystal_system       triclinic
_cell_length_a                    12.332378
_cell_length_b                    13.193496
_cell_length_c                    17.306581
_cell_angle_alpha                 104.985549
_cell_angle_beta                  74.362483
_cell_angle_gamma                 116.716507
_cell_volume                      2391.08731771

loop_
_atom_site_label
_atom_site_type_symbol
_atom_type_description
_atom_site_fract_x
_atom_site_fract_y
_atom_site_fract_z
_atom_type_partial_charge
C1    C     C_R   0.144639 0.713500 0.506178 0.768275
C2    C     C_R   0.939039 0.581488 0.794659 -0.232320
C3    C     C_R   0.989843 0.581085 0.164069 -0.152292
C4    C     C_R   0.975901 0.570763 0.244261 -0.227036
C5    C     C_R   0.097499 0.457252 0.201616 -0.192355
C6    C     C_R   0.110216 0.466395 0.121060 -0.167669
C7    C     C_R   0.054265 0.526131 0.101612 0.194453
C8    C     C_2   0.975482 0.537664 0.989352 -0.216156
C9    C     C_2   0.061259 0.525722 0.015552 -0.228578
C10   C     C_R   0.028315 0.507698 0.263398 -0.019982
C11   C     C_R   0.736539 0.974607 0.393743 -0.192074
C12   C     C_R   0.984983 0.500069 0.651835 0.843144
C13   C     C_R   0.774509 0.164728 0.470633 -0.037707
C14   C     C_R   0.178318 0.917291 0.551862 -0.189588
C15   C     C_R   0.255034 0.033353 0.564001 -0.159622
C16   C     C_R   0.381411 0.070071 0.536546 -0.192905
C17   C     C_R   0.433488 0.990786 0.493074 0.081935
C18   C     C_R   0.352923 0.874673 0.471508 0.078051
C19   C     C_R   0.562830 0.023152 0.469549 0.075230
C20   C     C_R   0.608970 0.943461 0.417336 0.166898
C21   C     C_R   0.527340 0.834434 0.387989 -0.239117
C22   C     C_R   0.401223 0.800915 0.413759 -0.198894
C23   C     C_R   0.855869 0.286257 0.487853 0.843184
C24   C     C_R   0.647945 0.131950 0.497704 -0.233425
C25   C     C_R   0.819093 0.085161 0.419822 -0.184274
C26   C     C_R   0.226130 0.836469 0.507622 -0.102988
C27   C     C_R   0.645961 0.680784 0.623381 -0.299818
C28   C     C_R   0.246344 0.349549 0.391574 -0.102269
C29   C     C_R   0.344616 0.316766 0.365214 0.354261
C30   C     C_R   0.451767 0.379182 0.399754 0.383817
C31   C     C_R   0.453640 0.465811 0.469376 -0.189152
C32   C     C_R   0.349002 0.495140 0.493617 0.201031
C33   C     C_R   0.553711 0.526066 0.515328 0.005768
C34   C     C_R   0.014356 0.498928 0.348041 0.779425
C35   C     C_R   0.549595 0.617855 0.578998 0.171005
C36   C     C_R   0.448393 0.645608 0.599539 -0.279157
C37   C     C_R   0.349633 0.584149 0.559144 -0.118196
C38   C     C_R   0.657005 0.499015 0.503384 0.025758
C39   C     C_R   0.746338 0.652368 0.605932 0.068176
C40   C     C_R   0.976003 0.500546 0.737716 -0.047951
C41   C     C_R   0.007634 0.425890 0.764268 -0.010846
C42   C     C_R   0.009813 0.440423 0.846697 -0.233753
C43   C     C_R   0.976508 0.524149 0.902673 0.187500
C44   C     C_R   0.938035 0.592288 0.876683 -0.163241
Cu1   Cu    Cu3+1 0.900140 0.524980 0.518800 0.941258
Cu2   Cu    Cu3+1 0.099860 0.475020 0.481200 0.950832
H1    H     H_    0.161226 0.424447 0.073713 0.124719
H2    H     H_    0.917072 0.109501 0.398037 0.147992
H3    H     H_    0.561076 0.774423 0.345188 0.140360
H4    H     H_    0.772276 0.914273 0.353613 0.130240
H5    H     H_    0.618200 0.193590 0.540842 0.149534
H6    H     H_    0.081427 0.890654 0.578549 0.155025
H7    H     H_    0.435293 0.161396 0.548484 0.134892
H8    H     H_    0.216801 0.095069 0.597201 0.149626
H9    H     H_    0.342674 0.717553 0.385717 0.178636
H10   H     H_    0.821693 0.701371 0.639274 0.119931
H11   H     H_    0.925185 0.613243 0.291368 0.149826
H12   H     H_    0.444130 0.714559 0.648886 0.150053
H13   H     H_    0.643522 0.751584 0.671433 0.141305
H14   H     H_    0.666052 0.426827 0.461171 0.203851
H15   H     H_    0.166599 0.304424 0.362030 0.164723
H16   H     H_    0.274990 0.609752 0.581761 0.198828
H17   H     H_    0.139882 0.409279 0.215405 0.151661
H18   H     H_    0.134675 0.507499 0.971889 0.146824
H19   H     H_    0.910151 0.655849 0.919709 0.128355
H20   H     H_    0.950421 0.632474 0.151751 0.120326
H21   H     H_    0.913495 0.638501 0.775444 0.148789
H22   H     H_    0.901391 0.556226 0.031429 0.141347
H23   H     H_    0.032637 0.383013 0.867733 0.121147
N1    N     N_R   0.749710 0.562810 0.547300 -0.197720
N2    N     N_R   0.249640 0.437820 0.453210 -0.224458
O1    O     O_R   0.025490 0.682370 0.523640 -0.585774
O2    O     O_R   0.194150 0.640180 0.491890 -0.605726
O3    O     O_R   0.905900 0.523560 0.631310 -0.590959
O4    O     O_R   0.074570 0.481370 0.599560 -0.565357
O5    O     O_R   0.805850 0.359820 0.508110 -0.596368
O6    O     O_R   0.974510 0.317630 0.476360 -0.560384
O7    O     O_R   0.925430 0.518630 0.400440 -0.586465
O8    O     O_R   0.094100 0.476440 0.368690 -0.597370
C45   C     C_2   0.032860 0.328481 0.710217 0.352808
H24   H     H_    0.088619 0.295865 0.726902 0.051595
O9    O     O_2   0.986615 0.279473 0.649431 -0.537335
O10   O     O_3   0.552212 0.352894 0.363595 -0.584945
C46   C     C_3   0.625303 0.424107 0.304203 -0.290634
H25   H     H_    0.660062 0.516652 0.331692 0.139388
H26   H     H_    0.573865 0.408082 0.255323 0.185576
H27   H     H_    0.706666 0.403714 0.275609 0.196943
O11   O     O_3   0.339669 0.228492 0.300728 -0.565590
C47   C     C_3   0.296836 0.126113 0.332384 -0.257556
H28   H     H_    0.202393 0.104802 0.369274 0.138697
H29   H     H_    0.361209 0.131270 0.369129 0.190748
H30   H     H_    0.291778 0.054550 0.280936 0.184258

loop_
_geom_bond_atom_site_label_1
_geom_bond_atom_site_label_2
_ccdc_geom_bond_type
C38   N1    A    
C12   O3    A    
C9    H18   S    
C41   C42   A    
C35   C36   A    
C18   C26   A    
C46   H27   S    
C23   O5    A    
C41   C45   S    
C21   H3    S    
C37   H16   S    
Cu1   Cu2   S    
C5    H17   S    
Cu1   O5    S    
C5    C6    A    
C36   C37   A    
C46   H26   S    
C3    C7    A    
C30   C31   A    
C11   C25   A    
C15   C16   A    
C13   C23   S    
C30   O10   S    
C16   H7    S    
C29   O11   S    
C17   C19   A    
C14   H6    S    
C31   C32   A    
C2    C44   A    
C8    C9    D    
C4    H11   S    
C31   C33   A    
Cu1   O7    S    
C47   H29   S    
C28   H15   S    
C24   H5    S    
C21   C22   A    
Cu1   O1    S    
C13   C25   A    
C44   H19   S    
Cu2   O4    S    
C32   N2    A    
C11   C20   A    
C1    O1    A    
C6    H1    S    
C15   H8    S    
C46   H25   S    
C45   O9    D    
C2    H21   S    
C27   C39   A    
C16   C17   A    
C27   C35   A    
C42   H23   S    
C14   C26   A    
C13   C24   A    
Cu1   O3    S    
C12   C40   S    
C43   C44   A    
C29   C30   A    
C34   O8    A    
C39   H10   S    
C17   C18   A    
C10   C34   S    
C32   C37   A    
C23   O6    A    
C47   H30   S    
C25   H2    S    
Cu2   N2    S    
C6    C7    A    
C38   H14   S    
C40   C41   A    
C8    H22   S    
C1    C26   S    
O10   C46   S    
C28   N2    A    
C42   C43   A    
C4    C10   A    
C3    C4    A    
C7    C9    S    
C28   C29   A    
Cu1   N1    S    
C18   C22   A    
C45   H24   S    
Cu2   O6    S    
C22   H9    S    
C36   H12   S    
C33   C38   A    
C1    O2    A    
C19   C20   A    
C19   C24   A    
C5    C10   A    
C11   H4    S    
C27   H13   S    
C34   O7    A    
Cu2   O8    S    
C8    C43   S    
C33   C35   A    
C39   N1    A    
C3    H20   S    
C2    C40   A    
C20   C21   A    
C12   O4    A    
C14   C15   A    
C47   H28   S    
Cu2   O2    S    
O11   C47   S    
