data_mof_unit_41276.cif
_audit_creation_date              2012-10-26T20:22:29-0400
_audit_creation_method            fapswitch 2.2
_symmetry_space_group_name_H-M    P1
_symmetry_Int_Tables_number       1
_space_group_crystal_system       triclinic
_cell_length_a                    9.510972
_cell_length_b                    10.83295
_cell_length_c                    17.216123
_cell_angle_alpha                 90.14893
_cell_angle_beta                  86.584864
_cell_angle_gamma                 90.011133
_cell_volume                      1770.65354456

loop_
_atom_site_label
_atom_site_type_symbol
_atom_type_description
_atom_site_fract_x
_atom_site_fract_y
_atom_site_fract_z
_atom_type_partial_charge
C1    C     C_R   0.500039 0.737950 0.500067 0.550208
C2    C     C_R   0.079871 0.426869 0.449394 0.007688
C3    C     C_R   0.069022 0.573151 0.550554 0.009980
C4    C     C_R   0.930979 0.426878 0.449427 0.008743
C5    C     C_R   0.482557 0.504165 0.650107 0.546647
C6    C     C_R   0.517467 0.496824 0.349721 0.547396
C7    C     C_R   0.476434 0.521128 0.734408 0.016433
C8    C     C_R   0.523869 0.485051 0.264827 0.013863
C9    C     C_R   0.591171 0.576275 0.768814 -0.133812
C10   C     C_R   0.652640 0.494439 0.220911 -0.138539
C11   C     C_R   0.588210 0.593290 0.848794 -0.136502
C12   C     C_R   0.499959 0.262049 0.499956 0.550800
C13   C     C_R   0.656156 0.482967 0.140147 -0.132273
C14   C     C_R   0.471638 0.553561 0.895170 0.049817
C15   C     C_R   0.531243 0.461649 0.103184 0.046759
C16   C     C_R   0.355654 0.500383 0.861354 -0.119512
C17   C     C_R   0.403581 0.448677 0.146829 -0.121503
C18   C     C_R   0.357349 0.485326 0.780865 -0.141195
C19   C     C_R   0.399652 0.460876 0.227142 -0.137064
C20   C     C_2   0.477586 0.557971 0.979852 0.015994
C21   C     C_2   0.531593 0.460515 0.018115 0.014163
C22   C     C_3   0.589043 0.344918 0.977180 -0.269995
C23   C     C_R   0.627759 0.936185 0.500294 -0.141908
C24   C     C_3   0.482952 0.239401 0.985234 -0.436944
C25   C     C_3   0.430169 0.677601 0.019834 -0.269637
C26   C     C_3   0.270697 0.693411 0.020016 -0.441973
C27   C     C_R   0.372233 0.063812 0.499788 -0.141775
C28   C     C_R   0.627743 0.063889 0.500196 -0.141126
C29   C     C_R   0.372249 0.936108 0.499884 -0.141034
C30   C     C_R   0.499978 0.128210 0.499959 0.019557
C31   C     C_R   0.500016 0.871788 0.500105 0.019650
C32   C     C_R   0.920130 0.573164 0.550586 0.009845
Cu1   Cu    Cu3+1 0.359340 0.499980 0.500000 0.932443
Cu2   Cu    Cu3+1 0.640660 0.500020 0.500000 0.932476
H1    H     H_    0.683261 0.606391 0.733865 0.117332
H2    H     H_    0.272349 0.111814 0.499579 0.127077
H3    H     H_    0.727622 0.111952 0.500318 0.127481
H4    H     H_    0.272371 0.888045 0.499761 0.127382
H5    H     H_    0.859624 0.631881 0.591011 0.100189
H6    H     H_    0.140381 0.368192 0.408946 0.101847
H7    H     H_    0.120854 0.631895 0.590952 0.107144
H8    H     H_    0.879147 0.368167 0.409010 0.105608
H9    H     H_    0.461179 0.215335 0.047467 0.153905
H10   H     H_    0.382907 0.265989 0.959621 0.149109
H11   H     H_    0.526333 0.156678 0.954041 0.134363
H12   H     H_    0.749816 0.512098 0.248760 0.122383
H13   H     H_    0.616983 0.360213 0.914488 0.154581
H14   H     H_    0.688045 0.316530 0.003327 0.132689
H15   H     H_    0.236877 0.701426 0.959605 0.152489
H16   H     H_    0.216343 0.613706 0.048953 0.142843
H17   H     H_    0.239071 0.778914 0.052193 0.135175
H18   H     H_    0.462157 0.683809 0.080637 0.155392
H19   H     H_    0.481815 0.756522 0.988413 0.135652
H20   H     H_    0.299167 0.451342 0.259609 0.121274
H21   H     H_    0.267734 0.443222 0.755217 0.120155
H22   H     H_    0.265636 0.468728 0.897399 0.103230
H23   H     H_    0.306925 0.431145 0.118423 0.104857
H24   H     H_    0.755209 0.493360 0.106369 0.098674
H25   H     H_    0.678366 0.633763 0.874888 0.100798
H26   H     H_    0.727642 0.888182 0.500506 0.126933
N1    N     N_R   0.147930 0.499970 0.499980 -0.223958
N2    N     N_R   0.852070 0.500030 0.500020 -0.223442
O1    O     O_R   0.381260 0.680340 0.500000 -0.507484
O2    O     O_R   0.618740 0.319660 0.500000 -0.507083
O3    O     O_R   0.618830 0.680370 0.500010 -0.509079
O4    O     O_R   0.381170 0.319630 0.499990 -0.508410
O5    O     O_R   0.367440 0.500000 0.613600 -0.505870
O6    O     O_R   0.632560 0.500000 0.386400 -0.506893
O7    O     O_R   0.605010 0.500030 0.613600 -0.506385
O8    O     O_R   0.394990 0.499970 0.386400 -0.507625

loop_
_geom_bond_atom_site_label_1
_geom_bond_atom_site_label_2
_ccdc_geom_bond_type
C29   H4    S    
C10   H12   S    
C22   H14   S    
C16   H22   S    
C2    H6    S    
C6    O8    A    
C4    N2    A    
C27   H2    S    
C27   C29   A    
C5    O7    A    
C2    C4    A    
C21   C22   S    
C2    N1    A    
C5    O5    A    
Cu1   O1    S    
C7    C18   A    
Cu1   O4    S    
C22   C24   S    
C6    O6    A    
Cu1   Cu2   S    
C25   H18   S    
C32   N2    A    
C29   C31   A    
C16   C18   A    
C23   C28   A    
C27   C30   A    
C9    C11   A    
Cu2   O7    S    
C3    C32   A    
C15   C21   S    
C4    H8    S    
C28   H3    S    
Cu1   N1    S    
C11   H25   S    
C24   H11   S    
C1    O1    A    
C19   H20   S    
C28   C30   A    
C17   C19   A    
C24   H10   S    
C25   H19   S    
C18   H21   S    
C22   H13   S    
C5    C7    S    
C26   H16   S    
C13   C15   A    
Cu1   O8    S    
C23   H26   S    
C12   O2    A    
C11   C14   A    
C14   C16   A    
C26   H15   S    
C8    C19   A    
C20   C25   S    
C3    N1    A    
C9    H1    S    
C23   C31   A    
Cu2   N2    S    
C14   C20   S    
C1    C31   S    
C20   C21   D    
Cu1   O5    S    
C7    C9    A    
C32   H5    S    
Cu2   O6    S    
C15   C17   A    
C24   H9    S    
C3    H7    S    
C6    C8    S    
C13   H24   S    
C12   C30   S    
C25   C26   S    
C26   H17   S    
C12   O4    A    
C1    O3    A    
Cu2   O2    S    
C8    C10   A    
C17   H23   S    
C10   C13   A    
Cu2   O3    S    
