data_mof_unit_29372.cif
_audit_creation_date              2012-12-10T18:50:50-0500
_audit_creation_method            fapswitch 2.2
_symmetry_space_group_name_H-M    P1
_symmetry_Int_Tables_number       1
_space_group_crystal_system       triclinic
_cell_length_a                    10.698746
_cell_length_b                    9.831528
_cell_length_c                    15.755045
_cell_angle_alpha                 90.074934
_cell_angle_beta                  90.06487
_cell_angle_gamma                 89.948687
_cell_volume                      1657.19159521

loop_
_atom_site_label
_atom_site_type_symbol
_atom_type_description
_atom_site_fract_x
_atom_site_fract_y
_atom_site_fract_z
_atom_type_partial_charge
C1    C     C_R   0.259852 0.500068 0.499388 0.859825
C2    C     C_R   0.935956 0.619411 0.520196 -0.197970
C3    C     C_R   0.872519 0.500161 0.498627 -0.008344
C4    C     C_R   0.127457 0.500350 0.498269 -0.008193
C5    C     C_R   0.580528 0.072002 0.550747 -0.071269
C6    C     C_R   0.580531 0.928046 0.550747 -0.070690
C7    C     C_R   0.500284 0.499878 0.338361 0.917841
C8    C     C_R   0.419501 0.927989 0.449115 -0.072592
C9    C     C_R   0.419499 0.071961 0.449115 -0.065211
C10   C     C_R   0.740104 0.499978 0.499635 0.871080
C11   C     C_R   0.499858 0.500090 0.661775 0.909562
C12   C     C_3   0.633927 0.510221 0.950254 -0.455858
C13   C     C_3   0.412969 0.617145 0.048137 -0.141078
C14   C     C_3   0.450712 0.354026 0.046971 -0.134858
C15   C     C_3   0.438747 0.365847 0.949049 -0.453167
C16   C     C_3   0.421469 0.622178 0.949888 -0.414805
C17   C     C_1   0.499074 0.500296 0.750542 -0.188893
C18   C     C_3   0.496323 0.496315 0.083084 0.141734
C19   C     C_3   0.498063 0.499766 0.917161 0.279631
C20   C     C_R   0.279293 0.625562 0.082311 0.129562
C21   C     C_R   0.177398 0.559282 0.043040 -0.147721
C22   C     C_R   0.056778 0.571351 0.076291 -0.100378
C23   C     C_3   0.636138 0.520287 0.050018 0.003193
C24   C     C_R   0.035693 0.649215 0.148995 -0.062132
C25   C     C_R   0.135161 0.715624 0.188565 -0.170769
C26   C     C_R   0.255872 0.704404 0.155483 -0.204318
C27   C     C_R   0.339488 0.275325 0.085097 0.136972
C28   C     C_R   0.265077 0.319828 0.153901 -0.109050
C29   C     C_R   0.169050 0.238380 0.186001 -0.145997
C30   C     C_R   0.146067 0.110367 0.151266 -0.107673
C31   C     C_R   0.219343 0.063202 0.084377 -0.129996
C32   C     C_R   0.315293 0.144206 0.052003 -0.178758
C33   C     C_2   0.686365 0.658254 0.080283 0.375952
C34   C     C_1   0.498420 0.500261 0.825755 -0.081996
C35   C     C_2   0.726672 0.413290 0.084949 0.287486
C36   C     C_1   0.497657 0.497567 0.174711 -0.089381
C37   C     C_1   0.499431 0.499226 0.249844 -0.149586
C38   C     C_R   0.064084 0.381472 0.475783 -0.200652
C39   C     C_R   0.063909 0.619516 0.519987 -0.200036
C40   C     C_R   0.936021 0.381353 0.476025 -0.182509
H1    H     H_    0.328312 0.625086 0.918847 0.164225
H2    H     H_    0.686005 0.419477 0.927007 0.137286
H3    H     H_    0.113137 0.289343 0.457823 0.149312
H4    H     H_    0.112723 0.711808 0.537781 0.157166
H5    H     H_    0.887072 0.289136 0.458257 0.159519
H6    H     H_    0.887061 0.711648 0.538126 0.152664
H7    H     H_    0.644899 0.126639 0.591321 0.128189
H8    H     H_    0.644911 0.873448 0.591315 0.125177
H9    H     H_    0.190102 0.496046 0.987754 0.128849
H10   H     H_    0.979646 0.519575 0.045755 0.146494
H11   H     H_    0.942317 0.657938 0.174765 0.154208
H12   H     H_    0.339276 0.361487 0.928804 0.179163
H13   H     H_    0.118799 0.776073 0.244947 0.136085
H14   H     H_    0.331472 0.756892 0.187447 0.137396
H15   H     H_    0.277607 0.416851 0.183810 0.149208
H16   H     H_    0.112450 0.274767 0.238258 0.145625
H17   H     H_    0.071869 0.047491 0.176429 0.137433
H18   H     H_    0.202251 0.963424 0.057676 0.151896
H19   H     H_    0.371771 0.103638 0.000893 0.130533
H20   H     H_    0.692972 0.678472 0.147908 0.099170
H21   H     H_    0.757976 0.329060 0.045751 0.085152
H22   H     H_    0.355223 0.873350 0.408455 0.124556
H23   H     H_    0.355212 0.126559 0.408460 0.124818
H24   H     H_    0.528935 0.281920 0.058368 0.140838
H25   H     H_    0.457058 0.713571 0.069826 0.140959
H26   H     H_    0.486297 0.277346 0.918800 0.161716
H27   H     H_    0.468567 0.718186 0.930294 0.184547
H28   H     H_    0.681219 0.597445 0.919145 0.224616
N1    N     N_R   0.499970 0.857200 0.499980 -0.079308
N2    N     N_R   0.499970 0.142800 0.499980 -0.079686
O1    O     O_R   0.316750 0.614620 0.499990 -0.630119
O2    O     O_2   0.762403 0.417019 0.158639 -0.591163
O3    O     O_R   0.316750 0.385380 0.499990 -0.629258
O4    O     O_R   0.499990 0.614720 0.377140 -0.622076
O5    O     O_R   0.499990 0.385280 0.377140 -0.606060
O6    O     O_R   0.683220 0.614710 0.500000 -0.627742
O7    O     O_R   0.683220 0.385290 0.500000 -0.627078
O8    O     O_R   0.499980 0.614620 0.622860 -0.614967
O9    O     O_R   0.499980 0.385380 0.622860 -0.614144
O10   O     O_2   0.718952 0.747557 0.031263 -0.606317
Zn1   Zn    Zn3+2 0.499980 0.653120 0.500000 0.947103
Zn2   Zn    Zn3+2 0.499980 0.346880 0.500000 0.955060

loop_
_geom_bond_atom_site_label_1
_geom_bond_atom_site_label_2
_ccdc_geom_bond_type
C6    N1    A    
C14   C18   S    
C21   H9    S    
C13   H25   S    
C2    H6    S    
C15   C19   S    
C12   H28   S    
C12   C23   S    
C8    N1    A    
C1    O1    A    
C6    H8    S    
C13   C18   S    
C31   H18   S    
C28   C29   A    
C25   H13   S    
C5    C6    A    
C5    N2    A    
C30   H17   S    
C12   H2    S    
C10   O6    A    
C2    C39   A    
C10   O7    A    
C11   C17   S    
C8    C9    A    
C23   C33   S    
C14   C27   S    
C22   H10   S    
C24   H11   S    
C21   C22   A    
C26   H14   S    
C28   H15   S    
C7    O4    A    
C40   H5    S    
C18   C23   S    
C9    N2    A    
C35   H21   S    
C7    O5    A    
C25   C26   A    
C15   H26   S    
C29   C30   A    
C11   O8    A    
C5    H7    S    
C31   C32   A    
C4    C39   A    
C14   H24   S    
C7    C37   S    
C33   O10   D    
C16   H27   S    
C15   H12   S    
C24   C25   A    
C11   O9    A    
C4    C38   A    
C3    C40   A    
C33   H20   S    
C23   C35   S    
C22   C24   A    
C17   C34   T    
O4    Zn1   S    
O3    Zn2   S    
C36   C37   T    
C13   C20   S    
C27   C32   A    
C9    H23   S    
C19   C34   S    
O6    Zn1   S    
C35   O2    D    
O9    Zn2   S    
O5    Zn2   S    
C39   H4    S    
C29   H16   S    
C1    C4    S    
C1    O3    A    
C2    C3    A    
C38   H3    S    
C3    C10   S    
C38   C40   A    
O8    Zn1   S    
C30   C31   A    
C20   C26   A    
O7    Zn2   S    
C16   C19   S    
C12   C19   S    
N2    Zn2   S    
N1    Zn1   S    
C20   C21   A    
C13   C16   S    
C27   C28   A    
C14   C15   S    
C32   H19   S    
C18   C36   S    
C16   H1    S    
C8    H22   S    
O1    Zn1   S    
