data_mof_unit_43647.cif
_audit_creation_date              2013-03-05T15:49:29-0500
_audit_creation_method            fapswitch 2.2
_symmetry_space_group_name_H-M    P1
_symmetry_Int_Tables_number       1
_space_group_crystal_system       triclinic
_cell_length_a                    18.286188
_cell_length_b                    18.286191
_cell_length_c                    34.520842
_cell_angle_alpha                 89.998393
_cell_angle_beta                  89.999335
_cell_angle_gamma                 90.161532
_cell_volume                      11543.1964287

loop_
_atom_site_label
_atom_site_type_symbol
_atom_site_description
_atom_site_fract_x
_atom_site_fract_y
_atom_site_fract_z
_atom_type_partial_charge
Zn1   Zn    Zn3+2 1.000000 0.586740 0.782740 0.988667
Zn2   Zn    Zn3+2 0.000000 0.413260 0.217260 0.988682
Zn3   Zn    Zn3+2 0.413260 0.000000 0.782740 0.989892
Zn4   Zn    Zn3+2 0.586740 0.000000 0.217260 0.989360
Zn5   Zn    Zn3+2 0.000000 0.413260 0.782740 0.989214
Zn6   Zn    Zn3+2 0.000000 0.586740 0.217260 0.989204
Zn7   Zn    Zn3+2 0.586740 0.000000 0.782740 0.988637
Zn8   Zn    Zn3+2 0.413260 0.000000 0.217260 0.988248
Zn9   Zn    Zn3+2 0.500000 0.086740 0.282740 0.989351
Zn10  Zn    Zn3+2 0.500000 0.913260 0.717260 0.988787
Zn11  Zn    Zn3+2 0.913260 0.500000 0.282740 0.989010
Zn12  Zn    Zn3+2 0.086740 0.500000 0.717260 0.989427
Zn13  Zn    Zn3+2 0.500000 0.913260 0.282740 0.989244
Zn14  Zn    Zn3+2 0.500000 0.086740 0.717260 0.988819
Zn15  Zn    Zn3+2 0.086740 0.500000 0.282740 0.988777
Zn16  Zn    Zn3+2 0.913260 0.500000 0.717260 0.989045
C1    C     C_R   0.491873 0.866031 0.520350 0.196634
C2    C     C_R   0.506478 0.134055 0.479645 0.196371
C3    C     C_R   0.134045 0.506687 0.520352 0.196387
C4    C     C_R   0.866041 0.491716 0.479653 0.196648
C5    C     C_R   0.508075 0.133971 0.520345 0.196653
C6    C     C_R   0.493470 0.865947 0.479650 0.196390
C7    C     C_R   0.865955 0.493312 0.520353 0.196371
C8    C     C_R   0.133959 0.508282 0.479651 0.196636
C9    C     C_R   0.992170 0.366014 0.020341 0.196402
C10   C     C_R   0.007836 0.633986 0.979659 0.196448
C11   C     C_R   0.634009 0.007216 0.020348 0.196425
C12   C     C_R   0.365918 0.994398 0.979649 0.196240
C13   C     C_R   0.004970 0.634111 0.020341 0.196164
C14   C     C_R   0.995037 0.365888 0.979659 0.196221
C15   C     C_R   0.365990 0.992801 0.020349 0.196912
C16   C     C_R   0.634082 0.005619 0.979647 0.196734
O1    O     O_3   0.000000 0.500000 0.750000 -0.503667
O2    O     O_3   1.000000 0.500000 0.250000 -0.503559
O3    O     O_3   0.500000 0.000000 0.750000 -0.503625
O4    O     O_3   0.500000 0.000000 0.250000 -0.503681
O5    O     O_R   0.060740 0.500000 0.662560 -0.634587
O6    O     O_R   0.939260 0.500000 0.337440 -0.635086
O7    O     O_R   0.500000 0.060740 0.662560 -0.635043
O8    O     O_R   0.500000 0.939260 0.337440 -0.634572
O9    O     O_R   0.939260 0.500000 0.662560 -0.634514
O10   O     O_R   0.060740 0.500000 0.337440 -0.635016
O11   O     O_R   0.500000 0.939260 0.662560 -0.635027
O12   O     O_R   0.500000 0.060740 0.337440 -0.634558
O13   O     O_R   0.560740 0.000000 0.162560 -0.634794
O14   O     O_R   0.439260 0.000000 0.837440 -0.634315
O15   O     O_R   1.000000 0.560740 0.162560 -0.634614
O16   O     O_R   0.000000 0.439260 0.837440 -0.634602
O17   O     O_R   0.439260 0.000000 0.162560 -0.635320
O18   O     O_R   0.560740 0.000000 0.837440 -0.634832
O19   O     O_R   0.000000 0.439260 0.162560 -0.635205
O20   O     O_R   1.000000 0.560740 0.837440 -0.635135
H1    H     H_    0.225624 0.582701 0.799537 0.110890
H2    H     H_    0.774551 0.417147 0.200340 0.110796
H3    H     H_    0.437167 0.246310 0.775960 0.126929
H4    H     H_    0.562921 0.753789 0.223889 0.126560
H5    H     H_    0.774337 0.417339 0.799498 0.109884
H6    H     H_    0.225433 0.582917 0.200290 0.109743
H7    H     H_    0.562800 0.753662 0.775887 0.127002
H8    H     H_    0.436847 0.245965 0.223430 0.126058
H9    H     H_    0.245976 0.436854 0.223441 0.126206
H10   H     H_    0.753653 0.562794 0.775877 0.126722
H11   H     H_    0.417159 0.774541 0.200352 0.110389
H12   H     H_    0.582680 0.225647 0.799518 0.110334
H13   H     H_    0.753796 0.562925 0.223883 0.126848
H14   H     H_    0.246298 0.437159 0.775973 0.126778
H15   H     H_    0.582933 0.225414 0.200274 0.110287
H16   H     H_    0.417324 0.774350 0.799513 0.110285
H17   H     H_    0.725462 0.082842 0.299649 0.110236
H18   H     H_    0.274374 0.917300 0.700465 0.110312
H19   H     H_    0.937079 0.746211 0.276109 0.126527
H20   H     H_    0.062831 0.253690 0.724042 0.126606
H21   H     H_    0.274571 0.917080 0.299714 0.110284
H22   H     H_    0.725648 0.082674 0.700489 0.110404
H23   H     H_    0.063154 0.254035 0.276572 0.126379
H24   H     H_    0.937200 0.746339 0.724113 0.127029
H25   H     H_    0.746344 0.937204 0.724119 0.126782
H26   H     H_    0.254028 0.063148 0.276563 0.126411
H27   H     H_    0.917315 0.274357 0.700476 0.110361
H28   H     H_    0.082842 0.725458 0.299649 0.110386
H29   H     H_    0.253698 0.062839 0.724032 0.126564
H30   H     H_    0.746207 0.937076 0.276113 0.126771
H31   H     H_    0.082677 0.725649 0.700487 0.110253
H32   H     H_    0.917069 0.274584 0.299723 0.110244
O21   O     O_R   0.853850 0.585450 0.727070 -0.628709
O22   O     O_R   0.146150 0.414550 0.272930 -0.630250
O23   O     O_R   0.414550 0.853850 0.727070 -0.627682
O24   O     O_R   0.585450 0.146150 0.272930 -0.629796
O25   O     O_R   0.146150 0.414550 0.727070 -0.629462
O26   O     O_R   0.853850 0.585450 0.272930 -0.631147
O27   O     O_R   0.585450 0.146150 0.727070 -0.627396
O28   O     O_R   0.414550 0.853850 0.272930 -0.629677
O29   O     O_R   0.853850 0.414550 0.272930 -0.628211
O30   O     O_R   0.146150 0.585450 0.727070 -0.629718
O31   O     O_R   0.414550 0.146150 0.272930 -0.628324
O32   O     O_R   0.585450 0.853850 0.727070 -0.631122
O33   O     O_R   0.146150 0.585450 0.272930 -0.627471
O34   O     O_R   0.853850 0.414550 0.727070 -0.629131
O35   O     O_R   0.585450 0.853850 0.272930 -0.628744
O36   O     O_R   0.414550 0.146150 0.727070 -0.631398
O37   O     O_R   0.353850 0.085450 0.227070 -0.631538
O38   O     O_R   0.646150 0.914550 0.772930 -0.628843
O39   O     O_R   0.914550 0.353850 0.227070 -0.627370
O40   O     O_R   0.085450 0.646150 0.772930 -0.627528
O41   O     O_R   0.646150 0.914550 0.227070 -0.630944
O42   O     O_R   0.353850 0.085450 0.772930 -0.628157
O43   O     O_R   0.085450 0.646150 0.227070 -0.629953
O44   O     O_R   0.914550 0.353850 0.772930 -0.629997
O45   O     O_R   0.353850 0.914550 0.772930 -0.629631
O46   O     O_R   0.646150 0.085450 0.227070 -0.627161
O47   O     O_R   0.914550 0.646150 0.772930 -0.631310
O48   O     O_R   0.085450 0.353850 0.227070 -0.631196
O49   O     O_R   0.646150 0.085450 0.772930 -0.630300
O50   O     O_R   0.353850 0.914550 0.227070 -0.627631
O51   O     O_R   0.085450 0.353850 0.772930 -0.628548
O52   O     O_R   0.914550 0.646150 0.227070 -0.628519
C17   C     C_R   0.502812 0.066097 0.581334 -0.145385
C18   C     C_R   0.495804 0.933971 0.418659 -0.145210
C19   C     C_R   0.933977 0.495727 0.581343 -0.145156
C20   C     C_R   0.066092 0.502909 0.418665 -0.145345
C21   C     C_R   0.497169 0.933905 0.581336 -0.145351
C22   C     C_R   0.504177 0.066027 0.418656 -0.145172
C23   C     C_R   0.066023 0.504272 0.581342 -0.145202
C24   C     C_R   0.933907 0.497090 0.418666 -0.145409
C25   C     C_R   0.001855 0.566128 0.081334 -0.145053
C26   C     C_R   0.998148 0.433872 0.918666 -0.145155
C27   C     C_R   0.433892 0.997610 0.081336 -0.145996
C28   C     C_R   0.566048 0.003765 0.918658 -0.145757
C29   C     C_R   0.995702 0.433964 0.081334 -0.145513
C30   C     C_R   0.004300 0.566035 0.918666 -0.145270
C31   C     C_R   0.566108 0.002399 0.081335 -0.144973
C32   C     C_R   0.433952 0.996244 0.918659 -0.144701
C33   C     C_R   0.499995 0.000001 0.601597 -0.088762
C34   C     C_R   0.499995 0.999999 0.398398 -0.088668
C35   C     C_R   0.000000 0.499999 0.601602 -0.088654
C36   C     C_R   0.999999 0.500000 0.398402 -0.088767
C37   C     C_R   0.999121 0.500029 0.101595 -0.089151
C38   C     C_R   0.000880 0.499970 0.898405 -0.089126
C39   C     C_R   0.500000 0.000003 0.101597 -0.088702
C40   C     C_R   0.500000 0.000003 0.898398 -0.088605
C41   C     C_R   0.495785 0.932876 0.540768 -0.031299
C42   C     C_R   0.503026 0.067185 0.459225 -0.031263
C43   C     C_R   0.067181 0.503132 0.540773 -0.031254
C44   C     C_R   0.932881 0.495710 0.459234 -0.031293
C45   C     C_R   0.504183 0.067125 0.540766 -0.031305
C46   C     C_R   0.496942 0.932814 0.459227 -0.031267
C47   C     C_R   0.932818 0.496867 0.540774 -0.031270
C48   C     C_R   0.067119 0.504288 0.459233 -0.031310
C49   C     C_R   0.994886 0.432911 0.040760 -0.030973
C50   C     C_R   0.005117 0.567088 0.959240 -0.030853
C51   C     C_R   0.567144 0.003763 0.040767 -0.031427
C52   C     C_R   0.432802 0.997407 0.959227 -0.031363
C53   C     C_R   0.001236 0.567255 0.040760 -0.030856
C54   C     C_R   0.998768 0.432744 0.959240 -0.030949
C55   C     C_R   0.432856 0.996251 0.040768 -0.031326
C56   C     C_R   0.567197 0.002607 0.959226 -0.031283
C57   C     C_R   0.000000 0.500000 0.644093 0.807912
C58   C     C_R   1.000000 0.500000 0.355909 0.808548
C59   C     C_R   0.499999 0.000001 0.644091 0.808609
C60   C     C_R   0.499999 0.999999 0.355908 0.807852
C61   C     C_R   0.500000 0.000001 0.144090 0.808467
C62   C     C_R   0.500000 0.000001 0.855908 0.808017
C63   C     C_R   0.999929 0.500004 0.144089 0.808089
C64   C     C_R   0.000071 0.499996 0.855911 0.808201
C65   C     C_R   0.860164 0.639834 0.750000 0.779263
C66   C     C_R   0.139834 0.360167 0.250000 0.778956
C67   C     C_R   0.360216 0.860218 0.749999 0.780790
C68   C     C_R   0.639779 0.139787 0.249995 0.780746
C69   C     C_R   0.139834 0.360165 0.750000 0.780229
C70   C     C_R   0.860165 0.639836 0.250000 0.779794
C71   C     C_R   0.639782 0.139784 0.750000 0.780991
C72   C     C_R   0.360212 0.860221 0.250005 0.780955
C73   C     C_R   0.860221 0.360214 0.250004 0.781365
C74   C     C_R   0.139784 0.639782 0.750001 0.781002
C75   C     C_R   0.360166 0.139833 0.250000 0.779638
C76   C     C_R   0.639836 0.860166 0.750000 0.779568
C77   C     C_R   0.139787 0.639779 0.249996 0.780764
C78   C     C_R   0.860219 0.360215 0.749999 0.780407
C79   C     C_R   0.639835 0.860164 0.250000 0.779464
C80   C     C_R   0.360166 0.139835 0.750000 0.779497
C81   C     C_R   0.266086 0.625973 0.798555 -0.129707
C82   C     C_R   0.734107 0.373856 0.201301 -0.129374
C83   C     C_R   0.393748 0.286241 0.774627 -0.125208
C84   C     C_R   0.606334 0.713839 0.225213 -0.126523
C85   C     C_R   0.733886 0.374055 0.798527 -0.133530
C86   C     C_R   0.265902 0.626182 0.201280 -0.132886
C87   C     C_R   0.606215 0.713720 0.774548 -0.125678
C88   C     C_R   0.393446 0.285925 0.224742 -0.126944
C89   C     C_R   0.285932 0.393449 0.224747 -0.127546
C90   C     C_R   0.713714 0.606213 0.774543 -0.126714
C91   C     C_R   0.373868 0.734096 0.201314 -0.129857
C92   C     C_R   0.625955 0.266106 0.798538 -0.133471
C93   C     C_R   0.713843 0.606335 0.225210 -0.125471
C94   C     C_R   0.286234 0.393745 0.774633 -0.124577
C95   C     C_R   0.626197 0.265885 0.201265 -0.129142
C96   C     C_R   0.374039 0.733900 0.798543 -0.132989
C97   C     C_R   0.765903 0.126136 0.298690 -0.132952
C98   C     C_R   0.233913 0.874027 0.701446 -0.129656
C99   C     C_R   0.893667 0.786161 0.274785 -0.126594
C100  C     C_R   0.106250 0.213758 0.725376 -0.125310
C101  C     C_R   0.234102 0.873815 0.298723 -0.132840
C102  C     C_R   0.766102 0.125955 0.701462 -0.129830
C103  C     C_R   0.106556 0.214076 0.275261 -0.126928
C104  C     C_R   0.893785 0.786281 0.725450 -0.125717
C105  C     C_R   0.786284 0.893787 0.725454 -0.126629
C106  C     C_R   0.214071 0.106553 0.275257 -0.125951
C107  C     C_R   0.874038 0.233899 0.701455 -0.132933
C108  C     C_R   0.126133 0.765903 0.298688 -0.129744
C109  C     C_R   0.213763 0.106253 0.725371 -0.126210
C110  C     C_R   0.786159 0.893666 0.274787 -0.125643
C111  C     C_R   0.125961 0.766099 0.701457 -0.133018
C112  C     C_R   0.873807 0.234112 0.298729 -0.129562
C113  C     C_R   0.327121 0.619055 0.822441 -0.131702
C114  C     C_R   0.673182 0.380677 0.177329 -0.130868
C115  C     C_R   0.410755 0.357157 0.786379 -0.124395
C116  C     C_R   0.589364 0.642969 0.213382 -0.124555
C117  C     C_R   0.672847 0.380978 0.822410 -0.135370
C118  C     C_R   0.326852 0.619363 0.177324 -0.134188
C119  C     C_R   0.589178 0.642785 0.786243 -0.124791
C120  C     C_R   0.410293 0.356685 0.212641 -0.124783
C121  C     C_R   0.356691 0.410293 0.212645 -0.124970
C122  C     C_R   0.642780 0.589179 0.786240 -0.124996
C123  C     C_R   0.380697 0.673165 0.177347 -0.131772
C124  C     C_R   0.619031 0.327148 0.822417 -0.134659
C125  C     C_R   0.642973 0.589363 0.213380 -0.124338
C126  C     C_R   0.357151 0.410755 0.786383 -0.124202
C127  C     C_R   0.619382 0.326830 0.177304 -0.131291
C128  C     C_R   0.380954 0.672869 0.822432 -0.134454
C129  C     C_R   0.826830 0.119313 0.322660 -0.133985
C130  C     C_R   0.172878 0.880945 0.677560 -0.132008
C131  C     C_R   0.910638 0.857031 0.286614 -0.124719
C132  C     C_R   0.089243 0.142842 0.713625 -0.124572
C133  C     C_R   0.173153 0.880633 0.322680 -0.133716
C134  C     C_R   0.827137 0.119035 0.677576 -0.132093
C135  C     C_R   0.089710 0.143317 0.287364 -0.124664
C136  C     C_R   0.910820 0.857215 0.713754 -0.124700
C137  C     C_R   0.857217 0.910821 0.713756 -0.124959
C138  C     C_R   0.143313 0.089709 0.287361 -0.124582
C139  C     C_R   0.880957 0.172862 0.677572 -0.134221
C140  C     C_R   0.119307 0.826832 0.322656 -0.131845
C141  C     C_R   0.142846 0.089243 0.713622 -0.124618
C142  C     C_R   0.857030 0.910638 0.286616 -0.124454
C143  C     C_R   0.119046 0.827130 0.677568 -0.134174
C144  C     C_R   0.880627 0.173163 0.322687 -0.131479
C145  C     C_R   0.499985 0.000001 0.520355 0.000087
C146  C     C_R   0.499985 0.000000 0.479636 -0.000048
C147  C     C_R   1.000000 0.499999 0.520363 -0.000046
C148  C     C_R   1.000000 0.499999 0.479644 0.000084
C149  C     C_R   0.998911 0.500047 0.020353 -0.000242
C150  C     C_R   0.001092 0.499952 0.979647 -0.000255
C151  C     C_R   0.500000 0.000007 0.020356 0.000119
C152  C     C_R   0.500000 0.000007 0.979637 -0.000014
C153  C     C_R   0.312329 0.742312 0.774154 0.079420
C154  C     C_R   0.687786 0.257583 0.225752 0.079581
C155  C     C_R   0.267773 0.322292 0.761891 0.077252
C156  C     C_R   0.732265 0.677746 0.238030 0.076955
C157  C     C_R   0.687665 0.257694 0.774148 0.079143
C158  C     C_R   0.312238 0.742415 0.225770 0.079426
C159  C     C_R   0.732204 0.677687 0.761846 0.076761
C160  C     C_R   0.267627 0.322146 0.237796 0.076408
C161  C     C_R   0.322145 0.267625 0.237794 0.076512
C162  C     C_R   0.677687 0.732206 0.761847 0.076972
C163  C     C_R   0.257591 0.687779 0.225760 0.079423
C164  C     C_R   0.742305 0.312337 0.774145 0.079523
C165  C     C_R   0.677746 0.732264 0.238031 0.076746
C166  C     C_R   0.322293 0.267775 0.761889 0.077143
C167  C     C_R   0.742421 0.312231 0.225763 0.079301
C168  C     C_R   0.257684 0.687674 0.774158 0.079295
C169  C     C_R   0.812216 0.242415 0.274245 0.079471
C170  C     C_R   0.187671 0.757687 0.725846 0.079385
C171  C     C_R   0.767735 0.822254 0.261968 0.076980
C172  C     C_R   0.232225 0.177707 0.738112 0.077076
C173  C     C_R   0.187763 0.757585 0.274231 0.079472
C174  C     C_R   0.812331 0.242309 0.725847 0.079254
C175  C     C_R   0.232374 0.177855 0.262207 0.076592
C176  C     C_R   0.767795 0.822313 0.738153 0.076743
C177  C     C_R   0.822312 0.767794 0.738152 0.076981
C178  C     C_R   0.177856 0.232376 0.262208 0.076267
C179  C     C_R   0.757690 0.187667 0.725849 0.079336
C180  C     C_R   0.242410 0.812220 0.274242 0.079199
C181  C     C_R   0.177706 0.232224 0.738113 0.077392
C182  C     C_R   0.822254 0.767736 0.261967 0.076733
C183  C     C_R   0.242316 0.812326 0.725843 0.079546
C184  C     C_R   0.757584 0.187765 0.274232 0.079527
H33   H     H_    0.503774 0.116734 0.597515 0.210779
H34   H     H_    0.491218 0.883528 0.402472 0.210509
H35   H     H_    0.883541 0.491070 0.597531 0.210501
H36   H     H_    0.116728 0.503938 0.402482 0.210804
H37   H     H_    0.496211 0.883267 0.597519 0.210782
H38   H     H_    0.508769 0.116470 0.402469 0.210512
H39   H     H_    0.116460 0.508929 0.597529 0.210480
H40   H     H_    0.883271 0.496061 0.402483 0.210777
H41   H     H_    0.005715 0.616623 0.097521 0.210584
H42   H     H_    0.994287 0.383377 0.902479 0.210403
H43   H     H_    0.383254 0.996988 0.097517 0.210593
H44   H     H_    0.616517 0.008016 0.902472 0.210320
H45   H     H_    0.994685 0.383338 0.097522 0.210608
H46   H     H_    0.005316 0.616662 0.902478 0.210748
H47   H     H_    0.616746 0.003020 0.097516 0.210848
H48   H     H_    0.383483 0.991991 0.902473 0.210593
C185  C     C_R   0.304104 0.804102 0.749999 -0.134467
C186  C     C_R   0.695900 0.195895 0.249993 -0.134012
C187  C     C_R   0.195948 0.304050 0.750001 -0.140627
C188  C     C_R   0.804052 0.695949 0.249999 -0.141489
C189  C     C_R   0.695896 0.195898 0.750000 -0.135030
C190  C     C_R   0.304104 0.804102 0.250006 -0.134561
C191  C     C_R   0.804051 0.695948 0.749999 -0.141537
C192  C     C_R   0.195950 0.304052 0.250001 -0.142083
C193  C     C_R   0.304051 0.195947 0.250000 -0.141615
C194  C     C_R   0.695949 0.804052 0.750000 -0.141642
C195  C     C_R   0.195896 0.695898 0.249994 -0.134458
C196  C     C_R   0.804103 0.304102 0.749998 -0.135099
C197  C     C_R   0.695948 0.804051 0.250000 -0.141368
C198  C     C_R   0.304051 0.195950 0.750000 -0.141075
C199  C     C_R   0.804101 0.304105 0.250005 -0.133976
C200  C     C_R   0.195896 0.695897 0.750001 -0.134591
H49   H     H_    0.071766 0.832613 0.658937 0.136633
H50   H     H_    0.927804 0.167771 0.341399 0.136359
H51   H     H_    0.129541 0.034336 0.704235 0.135507
H52   H     H_    0.870297 0.965514 0.296066 0.135711
H53   H     H_    0.928230 0.167384 0.658935 0.136591
H54   H     H_    0.072086 0.832245 0.341336 0.136565
H55   H     H_    0.870539 0.965745 0.704409 0.135608
H56   H     H_    0.130129 0.034928 0.297010 0.135242
H57   H     H_    0.034930 0.130136 0.297016 0.135194
H58   H     H_    0.965744 0.870535 0.704405 0.135752
H59   H     H_    0.167758 0.927812 0.341390 0.136426
H60   H     H_    0.832620 0.071754 0.658946 0.136596
H61   H     H_    0.965515 0.870300 0.296064 0.135569
H62   H     H_    0.034334 0.129533 0.704241 0.135555
H63   H     H_    0.832245 0.072092 0.341340 0.136595
H64   H     H_    0.167404 0.928215 0.658920 0.136523
H65   H     H_    0.572206 0.332221 0.158592 0.136258
H66   H     H_    0.428234 0.667386 0.841063 0.136709
H67   H     H_    0.629707 0.534488 0.203927 0.135400
H68   H     H_    0.370455 0.465661 0.795771 0.135468
H69   H     H_    0.427918 0.667751 0.158667 0.136527
H70   H     H_    0.571756 0.332628 0.841052 0.136712
H71   H     H_    0.369876 0.465074 0.202998 0.135303
H72   H     H_    0.629457 0.534253 0.795586 0.135949
H73   H     H_    0.534254 0.629465 0.795592 0.135761
H74   H     H_    0.465074 0.369865 0.202990 0.134988
H75   H     H_    0.667360 0.428263 0.841037 0.136120
H76   H     H_    0.332248 0.572182 0.158615 0.135740
H77   H     H_    0.465663 0.370466 0.795763 0.135794
H78   H     H_    0.534488 0.629701 0.203931 0.135581
H79   H     H_    0.332594 0.571786 0.841081 0.137246
H80   H     H_    0.667771 0.427894 0.158646 0.137119
N1    N     N_R   0.487323 0.797716 0.540739 0.231333
O53   O     O_R   0.430221 0.782839 0.561832 -0.326377
O54   O     O_R   0.536594 0.747591 0.535224 -0.258256
N2    N     N_R   0.509523 0.202449 0.459256 0.230779
O55   O     O_R   0.454385 0.223265 0.438181 -0.324918
O56   O     O_R   0.564088 0.247072 0.464747 -0.257739
N3    N     N_R   0.202435 0.509849 0.540739 0.230783
O57   O     O_R   0.223355 0.454739 0.561807 -0.324874
O58   O     O_R   0.246953 0.564501 0.535254 -0.257865
N4    N     N_R   0.797730 0.487090 0.459266 0.231338
O59   O     O_R   0.782911 0.429966 0.438179 -0.326512
O60   O     O_R   0.747556 0.536312 0.464776 -0.258195
N5    N     N_R   0.512586 0.202288 0.540732 0.231336
O61   O     O_R   0.569691 0.217208 0.561814 -0.326298
O62   O     O_R   0.463268 0.252371 0.535231 -0.258324
N6    N     N_R   0.490385 0.797555 0.459263 0.230794
O63   O     O_R   0.545523 0.776693 0.438200 -0.324915
O64   O     O_R   0.435774 0.752982 0.464741 -0.257783
N7    N     N_R   0.797565 0.490150 0.540742 0.230790
O65   O     O_R   0.776645 0.545261 0.561808 -0.324815
O66   O     O_R   0.753046 0.435498 0.535259 -0.257863
N8    N     N_R   0.202269 0.512907 0.459263 0.231350
O67   O     O_R   0.217089 0.570033 0.438175 -0.326432
O68   O     O_R   0.252442 0.463685 0.464773 -0.258140
N9    N     N_R   0.987646 0.297694 0.040724 0.231109
O69   O     O_R   0.930198 0.282442 0.061473 -0.323126
O70   O     O_R   0.037437 0.247953 0.035580 -0.260169
N10   N     N_R   0.012367 0.702305 0.959276 0.231329
O71   O     O_R   0.069816 0.717551 0.938527 -0.325788
O72   O     O_R   0.962584 0.752053 0.964422 -0.258595
N11   N     N_R   0.702346 0.011275 0.040734 0.231323
O73   O     O_R   0.717640 0.068272 0.061818 -0.323302
O74   O     O_R   0.752096 0.961629 0.035235 -0.257978
N12   N     N_R   0.297512 0.991806 0.959261 0.230849
O75   O     O_R   0.277061 0.047078 0.938188 -0.322341
O76   O     O_R   0.252537 0.937536 0.964751 -0.257529
N13   N     N_R   0.007074 0.702539 0.040726 0.230814
O77   O     O_R   0.951348 0.722960 0.061468 -0.324635
O78   O     O_R   0.061460 0.747522 0.035585 -0.258192
N14   N     N_R   0.992939 0.297460 0.959275 0.230571
O79   O     O_R   0.048665 0.277047 0.938530 -0.322310
O80   O     O_R   0.938563 0.252468 0.964418 -0.259919
N15   N     N_R   0.297653 0.988745 0.040737 0.231050
O81   O     O_R   0.282355 0.931746 0.061820 -0.326582
O82   O     O_R   0.247905 0.038393 0.035236 -0.260079
N16   N     N_R   0.702488 0.008215 0.959259 0.230547
O83   O     O_R   0.722943 0.952943 0.938189 -0.325356
O84   O     O_R   0.747459 0.062488 0.964747 -0.259830

loop_
_geom_bond_atom_site_label_1
_geom_bond_atom_site_label_2
_geom_bond_distance
_ccdc_geom_bond_type
H29   C109  1.081181 S    
C96   C128  1.393688 A    
C16   N16   1.435953 S    
H6    C86   1.082332 S    
C2    C5    1.405317 A    
C4    C44   1.412654 A    
C31   C51   1.400773 A    
C17   C33   1.397279 A    
Zn4   O4    1.947612 S    
H10   C90   1.081270 S    
C27   C39   1.397217 A    
C160  C192  1.415095 A    
C161  C193  1.415089 A    
C162  C194  1.415033 A    
Zn9   O24   1.930512 S    
C172  C181  1.411852 A    
C94   C155  1.418534 A    
O13   C61   1.280703 A    
O23   C67   1.275891 A    
C42   C146  1.417212 A    
Zn7   O38   1.935479 S    
C11   C51   1.412600 A    
C10   C13   1.405377 A    
C7    N7    1.436056 S    
C181  C187  1.415038 A    
H5    C85   1.082325 S    
C182  C188  1.415023 A    
Zn2   O2    1.947650 S    
C153  C185  1.412632 A    
C119  H73   1.082046 S    
C145  C146  1.405658 A    
C68   C186  1.449101 S    
C171  C197  1.415021 A    
Zn15  O33   1.930511 S    
C14   N14   1.436012 S    
H12   C92   1.082324 S    
C83   C115  1.393082 A    
C132  C141  1.388104 A    
C143  H49   1.082448 S    
N11   O73   1.301026 A    
C110  C142  1.392961 A    
C128  H66   1.082446 S    
C171  C182  1.411859 A    
O40   C74   1.275889 A    
H4    C84   1.081311 S    
H21   C101  1.082333 S    
C96   C153  1.416642 A    
C79   C197  1.453161 S    
H25   C105  1.081270 S    
C102  C134  1.393687 A    
C2    N2    1.436051 S    
N8    O68   1.301057 A    
N3    O57   1.301156 A    
C2    C42   1.412700 A    
C75   C193  1.453201 S    
N2    O55   1.301131 A    
C56   C152  1.417134 A    
C106  C138  1.393332 A    
Zn6   O52   1.935476 S    
C127  H65   1.082445 S    
C26   C54   1.400853 A    
C20   C48   1.400801 A    
Zn16  O21   1.935478 S    
C32   C52   1.400776 A    
C30   C38   1.397203 A    
C91   C123  1.393693 A    
C27   H43   1.081448 S    
C28   H44   1.081457 S    
C130  H64   1.082436 S    
C116  C125  1.388278 A    
Zn15  O10   1.947219 S    
C24   H40   1.081514 S    
Zn14  O36   1.935476 S    
O16   C64   1.280678 A    
C155  C166  1.411852 A    
C45   C145  1.417211 A    
Zn3   O14   1.947230 S    
O27   C71   1.275890 A    
C115  C126  1.388103 A    
O21   C65   1.276052 A    
C93   C125  1.392959 A    
C104  C136  1.392929 A    
C113  C128  1.389936 A    
Zn16  O34   1.930512 S    
C104  C177  1.418507 A    
O28   C72   1.275871 A    
H27   C107  1.082324 S    
C29   H45   1.081452 S    
C155  C187  1.415034 A    
C156  C188  1.415019 A    
N16   O83   1.301034 A    
C28   C56   1.400781 A    
O25   C69   1.276028 A    
C123  H69   1.082462 S    
C133  H59   1.082447 S    
C29   C37   1.397201 A    
C15   N15   1.435923 S    
C95   C154  1.416665 A    
C11   N11   1.435921 S    
C100  C132  1.393081 A    
Zn12  O1    1.947612 S    
C26   H42   1.081432 S    
C34   C60   1.466794 S    
N1    O53   1.301128 A    
C35   C57   1.466804 S    
O18   C62   1.280672 A    
C22   H38   1.081514 S    
C163  C195  1.412668 A    
N8    O67   1.301149 A    
C118  C123  1.389940 A    
C86   C118  1.393716 A    
C105  C176  1.418508 A    
C149  C150  1.405751 A    
C106  C175  1.418617 A    
C139  H53   1.082435 S    
C1    C41   1.412665 A    
O11   C59   1.280688 A    
C90   C122  1.392931 A    
C101  C180  1.416662 A    
C102  C179  1.416642 A    
C179  C189  1.412628 A    
C103  C178  1.418614 A    
C40   C62   1.466794 S    
N6    O63   1.301141 A    
C9    C49   1.412616 A    
C91   C158  1.416661 A    
O5    C57   1.280656 A    
C22   C34   1.397238 A    
C99   C131  1.392962 A    
C16   C56   1.412628 A    
C6    C46   1.412682 A    
N6    O64   1.301058 A    
N14   O79   1.301043 A    
C9    N9    1.435989 S    
C121  H71   1.082200 S    
Zn9   O4    1.947646 S    
C41   C145  1.417207 A    
H7    C87   1.081270 S    
Zn10  O3    1.947650 S    
O47   C65   1.276057 A    
O34   C78   1.275880 A    
C173  C195  1.412647 A    
O17   C61   1.280698 A    
C18   C34   1.397248 A    
C174  C196  1.412637 A    
C36   C58   1.466911 S    
C175  C193  1.415091 A    
H18   C98   1.082326 S    
O43   C77   1.275874 A    
C84   C165  1.418487 A    
O41   C79   1.276032 A    
C6    N6    1.436048 S    
O42   C80   1.276025 A    
C120  C121  1.388214 A    
N10   O72   1.300971 A    
C50   C150  1.417143 A    
C107  C174  1.416643 A    
Zn4   O13   1.947230 S    
Zn5   O16   1.947237 S    
C173  C180  1.411066 A    
C124  H70   1.082434 S    
Zn6   O15   1.947237 S    
C174  C179  1.411064 A    
C175  C178  1.411897 A    
C176  C194  1.415035 A    
C109  C141  1.393081 A    
C37   C63   1.466996 S    
C129  C144  1.389940 A    
H23   C103  1.081265 S    
C54   C150  1.417119 A    
O24   C68   1.275925 A    
C99   C182  1.418487 A    
C88   C161  1.418613 A    
C5    N5    1.436022 S    
C23   C35   1.397243 A    
C168  C200  1.412636 A    
O35   C79   1.276029 A    
Zn13  O35   1.935475 S    
C29   C49   1.400864 A    
C81   C168  1.416646 A    
C82   C167  1.416663 A    
C4    C7    1.405303 A    
Zn3   O3    1.947611 S    
C67   C185  1.449099 S    
O52   C70   1.276026 A    
N4    O60   1.301058 A    
C114  C127  1.389942 A    
C140  H54   1.082460 S    
H28   C108  1.082332 S    
C135  C138  1.388210 A    
O37   C75   1.276034 A    
C4    N4    1.436049 S    
C17   H33   1.081506 S    
O36   C80   1.276022 A    
C52   C152  1.417138 A    
C19   H35   1.081529 S    
N15   O82   1.300962 A    
Zn9   O31   1.935472 S    
C32   H48   1.081460 S    
N3    O58   1.301050 A    
C77   C195  1.449095 S    
C78   C196  1.449100 S    
Zn7   O18   1.947219 S    
C160  C161  1.411896 A    
Zn8   O50   1.930512 S    
C73   C199  1.449095 S    
C28   C40   1.397176 A    
C70   C188  1.453157 S    
C119  C122  1.388199 A    
Zn11  O29   1.930532 S    
C116  H78   1.082076 S    
C165  C197  1.415025 A    
Zn14  O27   1.930529 S    
C31   C39   1.397211 A    
C176  C177  1.411846 A    
H8    C88   1.081267 S    
C135  H57   1.082207 S    
C3    N3    1.436055 S    
C81   C113  1.393690 A    
N13   O78   1.300967 A    
C157  C189  1.412633 A    
Zn16  O9    1.947219 S    
H30   C110  1.081313 S    
H9    C89   1.081266 S    
C156  C165  1.411858 A    
N12   O75   1.301038 A    
O22   C66   1.276031 A    
C31   H47   1.081450 S    
C164  C196  1.412629 A    
C151  C152  1.405661 A    
N5    O62   1.301061 A    
Zn2   O48   1.935470 S    
C134  H60   1.082445 S    
N9    O70   1.300969 A    
C167  C199  1.412646 A    
C84   C116  1.392963 A    
C19   C47   1.400799 A    
C17   C45   1.400794 A    
Zn8   O4    1.947634 S    
Zn12  O5    1.947230 S    
Zn13  O8    1.947237 S    
H14   C94   1.081181 S    
Zn14  O7    1.947237 S    
C109  C172  1.418534 A    
C71   C189  1.449093 S    
C30   C50   1.400861 A    
N7    O65   1.301160 A    
N2    O56   1.301064 A    
N12   O76   1.300960 A    
Zn6   O43   1.930529 S    
O19   C63   1.280769 A    
C23   H39   1.081525 S    
Zn8   O37   1.935478 S    
Zn15  O2    1.947631 S    
C107  C139  1.393692 A    
O15   C63   1.280678 A    
C113  H79   1.082436 S    
C153  C168  1.411064 A    
C136  H58   1.082045 S    
Zn12  O30   1.930531 S    
O10   C58   1.280682 A    
H13   C93   1.081313 S    
C88   C120  1.393329 A    
Zn3   O42   1.935467 S    
C49   C149  1.417142 A    
C65   C191  1.453170 S    
C154  C167  1.411066 A    
C66   C192  1.453207 S    
C24   C36   1.397292 A    
C111  C143  1.393689 A    
C39   C61   1.466884 S    
C131  C142  1.388274 A    
O6    C58   1.280687 A    
C129  H63   1.082458 S    
C27   C55   1.400773 A    
C51   C151  1.417132 A    
H22   C102  1.082326 S    
C25   C37   1.397223 A    
C7    C47   1.412677 A    
C19   C35   1.397250 A    
Zn6   O2    1.947597 S    
C20   C36   1.397291 A    
C5    C45   1.412673 A    
Zn11  O6    1.947230 S    
O50   C72   1.275908 A    
C95   C127  1.393718 A    
H26   C106  1.081266 S    
C103  C135  1.393330 A    
C21   C41   1.400786 A    
O33   C77   1.275908 A    
C10   C50   1.412619 A    
O48   C66   1.276044 A    
C98   C130  1.393690 A    
O44   C78   1.275902 A    
H16   C96   1.082325 S    
C172  C198  1.415039 A    
C105  C137  1.392930 A    
C92   C124  1.393690 A    
N16   O84   1.300967 A    
O20   C64   1.280769 A    
Zn15  O22   1.935479 S    
O9    C57   1.280651 A    
C108  C173  1.416660 A    
C30   H46   1.081453 S    
C14   C54   1.412663 A    
C97   C129  1.393701 A    
C76   C194  1.453166 S    
Zn13  O28   1.930531 S    
O12   C60   1.280659 A    
C177  C191  1.415036 A    
C178  C192  1.415089 A    
N13   O77   1.301042 A    
Zn4   O41   1.935468 S    
C9    C14   1.405377 A    
Zn4   O46   1.930531 S    
C55   C151  1.417129 A    
C100  C181  1.418541 A    
O32   C76   1.276057 A    
C89   C160  1.418618 A    
O7    C59   1.280699 A    
C11   C16   1.405314 A    
C90   C159  1.418506 A    
O8    C60   1.280666 A    
C12   C15   1.405316 A    
C20   H36   1.081509 S    
C15   C55   1.412603 A    
H32   C112  1.082331 S    
C85   C164  1.416643 A    
H19   C99   1.081310 S    
C169  C199  1.412661 A    
C86   C163  1.416661 A    
C32   C40   1.397171 A    
C170  C200  1.412631 A    
C46   C146  1.417218 A    
C87   C162  1.418508 A    
C1    C6    1.405306 A    
C94   C126  1.393080 A    
C3    C8    1.405308 A    
Zn1   O47   1.935472 S    
Zn2   O39   1.930514 S    
Zn3   O45   1.930532 S    
H11   C91   1.082330 S    
C43   C147  1.417215 A    
C137  H55   1.082042 S    
C69   C187  1.453195 S    
Zn1   O20   1.947212 S    
C18   H34   1.081530 S    
Zn2   O19   1.947212 S    
N14   O80   1.300967 A    
H3    C83   1.081181 S    
C33   C59   1.466901 S    
C183  C185  1.412638 A    
Zn8   O17   1.947219 S    
Zn5   O44   1.930531 S    
O31   C75   1.276038 A    
C131  H61   1.082077 S    
C157  C164  1.411062 A    
C158  C163  1.411066 A    
C48   C148  1.417201 A    
O51   C69   1.276017 A    
C159  C162  1.411845 A    
C108  C140  1.393695 A    
Zn1   O1    1.947646 S    
N15   O81   1.301025 A    
O49   C71   1.275888 A    
C114  H80   1.082460 S    
C136  C137  1.388200 A    
C8    N8    1.436045 S    
C184  C186  1.412645 A    
C83   C166  1.418541 A    
C85   C117  1.393688 A    
C166  C198  1.415038 A    
C133  C140  1.389939 A    
C89   C121  1.393331 A    
N11   O74   1.300959 A    
C1    N1    1.436046 S    
O38   C76   1.276052 A    
O39   C73   1.275915 A    
C144  H50   1.082446 S    
C130  C143  1.389934 A    
O45   C67   1.275910 A    
C101  C133  1.393716 A    
C110  C171  1.418487 A    
C111  C170  1.416642 A    
H2    C82   1.082330 S    
C169  C184  1.411066 A    
C120  H74   1.082208 S    
C170  C183  1.411062 A    
C158  C190  1.412643 A    
C117  H75   1.082443 S    
C117  C124  1.389930 A    
C47   C147  1.417213 A    
N1    O54   1.301066 A    
H17   C97   1.082330 S    
O46   C68   1.275876 A    
H15   C95   1.082331 S    
O29   C73   1.275882 A    
C25   C53   1.400853 A    
C180  C190  1.412667 A    
C141  H51   1.082103 S    
Zn10  O23   1.930514 S    
C142  H52   1.082077 S    
C93   C156  1.418487 A    
Zn12  O25   1.935468 S    
C18   C46   1.400784 A    
C92   C157  1.416647 A    
Zn13  O4    1.947596 S    
N7    O66   1.301052 A    
C8    C48   1.412656 A    
Zn14  O3    1.947597 S    
C53   C149  1.417118 A    
Zn5   O1    1.947596 S    
C132  H62   1.082103 S    
C122  H72   1.082041 S    
H1    C81   1.082326 S    
Zn16  O1    1.947634 S    
H20   C100  1.081182 S    
Zn10  O32   1.935470 S    
O26   C70   1.276033 A    
C118  H76   1.082448 S    
C125  H67   1.082080 S    
Zn1   O40   1.930512 S    
O30   C74   1.275910 A    
C12   C52   1.412627 A    
C44   C148  1.417207 A    
C138  H56   1.082202 S    
C87   C119  1.392925 A    
C22   C42   1.400795 A    
C23   C43   1.400800 A    
N10   O71   1.301039 A    
C13   C53   1.412657 A    
C26   C38   1.397223 A    
Zn9   O12   1.947212 S    
C3    C43   1.412678 A    
Zn10  O11   1.947212 S    
Zn7   O3    1.947631 S    
Zn11  O2    1.947611 S    
C13   N13   1.436009 S    
C10   N10   1.435988 S    
C154  C186  1.412667 A    
C25   H41   1.081435 S    
C147  C148  1.405658 A    
H24   C104  1.081270 S    
N5    O61   1.301117 A    
C21   H37   1.081516 S    
Zn7   O49   1.930511 S    
C112  C144  1.393718 A    
N9    O69   1.301039 A    
Zn11  O26   1.935467 S    
C126  H68   1.082103 S    
C80   C198  1.453199 S    
C112  C169  1.416664 A    
C12   N12   1.435951 S    
C134  C139  1.389934 A    
C115  H77   1.082099 S    
C74   C200  1.449097 S    
N4    O59   1.301149 A    
H31   C111  1.082325 S    
C97   C184  1.416664 A    
C98   C183  1.416646 A    
C159  C191  1.415038 A    
O14   C62   1.280677 A    
C72   C190  1.449093 S    
C82   C114  1.393700 A    
C24   C44   1.400799 A    
C38   C64   1.466997 S    
C21   C33   1.397297 A    
Zn5   O51   1.935475 S    
