data_mof_unit_6188.cif
_audit_creation_date              2013-03-05T15:47:16-0500
_audit_creation_method            fapswitch 2.2
_symmetry_space_group_name_H-M    P1
_symmetry_Int_Tables_number       1
_space_group_crystal_system       triclinic
_cell_length_a                    27.810239
_cell_length_b                    11.059037
_cell_length_c                    9.852375
_cell_angle_alpha                 112.11116
_cell_angle_beta                  98.149833
_cell_angle_gamma                 91.201112
_cell_volume                      2769.7991598

loop_
_atom_site_label
_atom_site_type_symbol
_atom_site_description
_atom_site_fract_x
_atom_site_fract_y
_atom_site_fract_z
_atom_type_partial_charge
O1    O     O_R   0.504520 0.332330 0.577400 -0.621422
O2    O     O_R   0.495480 0.667670 0.422600 -0.604188
O3    O     O_R   0.490210 0.295500 0.332650 -0.586504
O4    O     O_R   0.509790 0.704500 0.667350 -0.539290
C1    C     C_R   0.496057 0.253412 0.439255 0.753312
C2    C     C_R   0.504013 0.746598 0.560767 0.753188
O5    O     O_R   0.437420 0.518430 0.622370 -0.579077
O6    O     O_R   0.562580 0.481570 0.377630 -0.596928
O7    O     O_R   0.423110 0.481600 0.377610 -0.567306
O8    O     O_R   0.576890 0.518400 0.622390 -0.611010
C3    C     C_R   0.407515 0.499833 0.501241 0.793226
C4    C     C_R   0.592491 0.500233 0.498744 0.790948
Cu1   Cu    Cu3+1 0.508480 0.521810 0.644910 0.964021
Cu2   Cu    Cu3+1 0.491520 0.478190 0.355090 0.963254
C5    C     C_R   0.175338 0.384423 0.464289 0.587346
C6    C     C_R   0.825550 0.619355 0.557522 0.583608
O9    O     O_2   0.196881 0.271725 0.409831 -0.454751
O10   O     O_2   0.804280 0.729036 0.628411 -0.452723
N1    N     N_R   0.202799 0.500592 0.511122 -0.482264
N2    N     N_R   0.797350 0.503876 0.488662 -0.481963
C7    C     C_R   0.182535 0.617610 0.557493 0.585520
C8    C     C_R   0.816843 0.388544 0.420164 0.583491
C9    C     C_R   0.271666 0.470809 0.374719 -0.083384
C10   C     C_R   0.728277 0.521478 0.622865 -0.077773
C11   C     C_R   0.321632 0.470789 0.372113 -0.206382
C12   C     C_R   0.678313 0.520460 0.625518 -0.216228
C13   C     C_R   0.336935 0.528108 0.638561 -0.203545
C14   C     C_R   0.663167 0.482827 0.363487 -0.215978
C15   C     C_R   0.286905 0.528245 0.640811 -0.088236
C16   C     C_R   0.713200 0.484018 0.361212 -0.088815
C17   C     C_R   0.254202 0.499658 0.508947 0.335622
C18   C     C_R   0.745876 0.503307 0.490856 0.335019
C19   C     C_R   0.102579 0.502229 0.507428 -0.119719
C20   C     C_R   0.897635 0.503822 0.492036 -0.121618
C21   C     C_R   0.124955 0.382539 0.470272 -0.118080
C22   C     C_R   0.876211 0.623474 0.555593 -0.116978
C23   C     C_R   0.096189 0.265308 0.438334 0.346820
C24   C     C_R   0.906314 0.742172 0.619186 0.356123
C25   C     C_R   0.131509 0.621266 0.548116 -0.119507
C26   C     C_R   0.867749 0.384330 0.425328 -0.118657
C27   C     C_R   0.354745 0.499590 0.504099 -0.050210
C28   C     C_R   0.645272 0.501025 0.495793 -0.038441
H1    H     H_    0.361589 0.550720 0.741942 0.169764
H2    H     H_    0.638587 0.467802 0.261871 0.151790
H3    H     H_    0.273490 0.550564 0.744845 0.150508
H4    H     H_    0.726642 0.470102 0.258871 0.148204
C29   C     C_R   0.970608 0.383519 0.439514 0.019664
C30   C     C_R   0.029298 0.623038 0.548654 0.021636
C31   C     C_R   0.978538 0.623426 0.555437 0.023303
C32   C     C_R   0.022195 0.383096 0.455003 0.022981
C33   C     C_R   0.949006 0.503613 0.495550 0.081792
C34   C     C_R   0.051262 0.502816 0.503759 0.082318
C35   C     C_R   0.939931 0.266999 0.368818 -0.231365
C36   C     C_R   0.058574 0.739179 0.581184 -0.232401
C37   C     C_R   0.889645 0.265592 0.363425 0.359603
C38   C     C_R   0.108555 0.739412 0.578894 0.348066
O11   O     O_2   0.786693 0.278931 0.347744 -0.462753
O12   O     O_2   0.212001 0.729339 0.613502 -0.461795
C39   C     C_R   0.045734 0.266591 0.428308 -0.238508
C40   C     C_R   0.956419 0.740362 0.620861 -0.240316
H5    H     H_    0.665639 0.534740 0.729014 0.145692
H6    H     H_    0.334270 0.448102 0.266853 0.173824
H7    H     H_    0.753406 0.536087 0.723311 0.154015
H8    H     H_    0.246440 0.448776 0.272557 0.155033
H9    H     H_    0.954066 0.173862 0.314655 0.185264
H10   H     H_    0.043053 0.831466 0.599748 0.182583
H11   H     H_    0.025940 0.175193 0.408912 0.182452
H12   H     H_    0.977369 0.833592 0.676395 0.182242
H13   H     H_    0.500405 0.862249 0.372313 0.199992
H14   H     H_    0.501186 0.137934 0.628030 0.185441
C41   C     C_2   0.494087 0.112389 0.402776 0.262209
C42   C     C_2   0.506119 0.887653 0.597275 0.251548
C43   C     C_2   0.499064 0.069277 0.513884 -0.231006
C44   C     C_2   0.501935 0.930804 0.486253 -0.225111
H15   H     H_    0.473887 0.400705 0.839714 0.133212
H16   H     H_    0.536683 0.570504 0.152582 0.125922
N3    N     N_2   0.478780 0.445430 0.137360 -0.030609
N4    N     N_2   0.521220 0.554570 0.862640 -0.034121
C45   C     C_2   0.505371 0.507009 0.080862 0.096119
C46   C     C_2   0.497625 0.484699 0.916825 0.091364
O13   O     O_3   0.507453 0.973116 0.743288 -0.578766
C47   C     C_3   0.556641 0.010579 0.810385 0.064898
H17   H     H_    0.576608 0.053926 0.746854 0.149888
H18   H     H_    0.575343 0.925105 0.818475 0.148094
C48   C     C_3   0.558754 0.113472 0.966352 -0.761854
H19   H     H_    0.539305 0.073814 0.033497 0.278109
H20   H     H_    0.597303 0.141997 0.021017 0.210558
H21   H     H_    0.541585 0.201749 0.961171 0.227436
O14   O     O_3   0.491986 0.027136 0.256350 -0.574210
C49   C     C_3   0.442625 0.987422 0.192773 0.030664
H22   H     H_    0.421907 0.072936 0.195027 0.125831
H23   H     H_    0.425093 0.935402 0.252617 0.163627
C50   C     C_3   0.439704 0.893803 0.031921 -0.695164
H24   H     H_    0.458873 0.805494 0.026648 0.281531
H25   H     H_    0.400981 0.863089 0.980297 0.194400
H26   H     H_    0.456759 0.942562 0.968530 0.270628
O15   O     O_3   0.539703 0.673400 0.963261 -0.508902
C51   C     C_3   0.587632 0.693836 0.941933 0.192763
H27   H     H_    0.587494 0.721810 0.845185 0.170813
H28   H     H_    0.608107 0.605235 0.926637 0.122133
C52   C     C_3   0.614060 0.806007 0.078381 -0.824971
H29   H     H_    0.615402 0.780849 0.177832 0.250193
H30   H     H_    0.651868 0.824507 0.062554 0.224128
H31   H     H_    0.594778 0.896402 0.096484 0.270702
O16   O     O_3   0.435344 0.391638 0.052332 -0.513214
C53   C     C_3   0.426990 0.266640 0.054521 0.185762
H32   H     H_    0.411147 0.274667 0.154349 0.166866
H33   H     H_    0.460873 0.214225 0.050802 0.163785
C54   C     C_3   0.390435 0.184785 0.918351 -0.817463
H34   H     H_    0.405359 0.173642 0.815809 0.256671
H35   H     H_    0.382896 0.086215 0.919494 0.219393
H36   H     H_    0.355760 0.232892 0.918125 0.263826
N5    N     N_R   0.117506 0.145517 0.427063 0.176388
O17   O     O_R   0.098515 0.035245 0.323215 -0.295876
O18   O     O_R   0.148967 0.143245 0.537058 -0.231760
N6    N     N_R   0.886915 0.867268 0.677747 0.169390
O19   O     O_R   0.904130 0.948689 0.811866 -0.289738
O20   O     O_R   0.860676 0.910286 0.587767 -0.249916
N7    N     N_R   0.862051 0.140766 0.299609 0.164539
O21   O     O_R   0.843206 0.094593 0.385590 -0.251568
O22   O     O_R   0.865324 0.062119 0.165003 -0.278136
N8    N     N_R   0.134431 0.859744 0.597921 0.178283
O23   O     O_R   0.155798 0.866098 0.491246 -0.229716
O24   O     O_R   0.128236 0.967701 0.706051 -0.289123

loop_
_geom_bond_atom_site_label_1
_geom_bond_atom_site_label_2
_geom_bond_distance
_ccdc_geom_bond_type
C50   H24   1.110017 S    
C1    C41   1.460593 S    
C13   C15   1.394682 A    
C43   C44   1.457072 S    
C35   C37   1.391474 A    
H16   C45   1.084917 S    
N1    C17   1.432914 S    
C8    O11   1.348414 S    
O15   C51   1.405138 S    
C37   N7    1.433626 S    
C48   H19   1.110159 S    
C19   C34   1.422666 A    
C5    N1    1.363583 A    
C20   C33   1.424204 A    
C19   C25   1.416988 A    
C31   C40   1.408718 A    
O1    C1    1.294562 A    
C32   C39   1.409555 A    
C50   H26   1.110220 S    
N1    C7    1.363644 A    
C12   H5    1.082564 S    
C10   C12   1.393337 A    
C54   H35   1.110277 S    
N4    C46   1.304315 D    
C23   N5    1.435141 S    
C53   H32   1.108219 S    
N6    O19   1.301116 A    
Cu2   N3    2.013094 S    
C14   C28   1.406409 A    
O4    Cu1   1.946918 S    
C4    C28   1.472148 S    
C39   H11   1.078258 S    
C49   H23   1.114193 S    
C31   C33   1.416601 A    
C41   O14   1.386869 S    
C32   C34   1.415417 A    
C35   H9    1.078361 S    
H15   C46   1.084741 S    
C42   O13   1.387082 S    
C6    N2    1.364255 A    
C29   C35   1.408268 A    
N3    C45   1.304398 D    
C50   H25   1.110456 S    
Cu1   Cu2   2.679595 S    
O2    C2    1.294800 A    
H14   C43   1.086843 S    
C5    C21   1.410774 A    
O13   C47   1.411934 S    
C29   C32   1.421375 A    
N7    O22   1.301058 A    
C36   C38   1.393323 A    
C48   H20   1.110457 S    
C52   H29   1.110927 S    
C42   C44   1.340493 D    
C54   H36   1.111203 S    
C11   C27   1.405993 A    
C41   C43   1.340710 D    
C29   C33   1.416021 A    
C2    C42   1.460824 S    
C14   H2    1.083136 S    
C15   H3    1.082831 S    
C9    C17   1.399124 A    
C30   C36   1.409817 A    
O7    Cu2   1.945901 S    
C10   C18   1.399769 A    
C24   N6    1.434041 S    
C13   C27   1.406358 A    
O5    C3    1.298013 A    
C25   C38   1.413562 A    
C7    C25   1.411360 A    
C30   C34   1.415773 A    
O6    C4    1.297849 A    
C26   C37   1.415270 A    
C8    C26   1.411773 A    
N4    O15   1.349236 S    
H13   C44   1.086828 S    
C6    O10   1.348498 S    
O7    C3    1.296522 A    
C23   C39   1.393347 A    
O3    Cu2   1.946917 S    
O8    C4    1.296877 A    
C24   C40   1.391857 A    
O4    C2    1.291743 A    
C9    H8    1.082882 S    
N2    C8    1.364130 A    
C51   H27   1.106939 S    
C10   H7    1.082903 S    
C47   H18   1.111737 S    
C20   C26   1.419267 A    
O1    Cu1   1.940574 S    
N8    O24   1.301222 A    
C47   C48   1.521455 S    
C12   C28   1.405713 A    
C49   C50   1.521450 S    
N5    O17   1.301317 A    
N2    C18   1.434651 S    
C48   H21   1.110756 S    
C5    O9    1.348779 S    
Cu1   N4    2.013096 S    
C30   C31   1.422664 A    
O6    Cu2   1.955068 S    
C21   C23   1.413445 A    
C16   H4    1.082853 S    
O3    C1    1.291906 A    
O8    Cu1   1.945906 S    
N7    O21   1.301262 A    
C36   H10   1.077839 S    
C52   H31   1.110902 S    
C51   C52   1.520687 S    
O16   C53   1.405613 S    
C51   H28   1.115169 S    
N3    O16   1.350068 S    
C14   C16   1.394643 A    
N8    O23   1.301362 A    
C7    O12   1.348635 S    
C15   C17   1.399535 A    
C54   H34   1.111489 S    
C6    C22   1.411713 A    
C16   C18   1.400162 A    
C49   H22   1.112430 S    
C53   H33   1.114432 S    
C22   C24   1.415145 A    
C19   C21   1.416921 A    
N6    O20   1.301293 A    
C3    C27   1.471782 S    
C20   C22   1.418842 A    
C11   H6    1.083118 S    
C9    C11   1.393452 A    
O2    Cu2   1.940575 S    
C45   C46   1.522530 S    
C13   H1    1.083111 S    
O5    Cu1   1.955068 S    
C40   H12   1.077774 S    
C52   H30   1.110486 S    
C47   H17   1.114971 S    
O14   C49   1.411905 S    
C38   N8    1.434476 S    
N5    O18   1.301224 A    
C53   C54   1.520945 S    
