data_mof_unit_11918.cif
_audit_creation_date              2012-12-10T20:26:32-0500
_audit_creation_method            fapswitch 2.2
_symmetry_space_group_name_H-M    P1
_symmetry_Int_Tables_number       1
_space_group_crystal_system       triclinic
_cell_length_a                    10.675009
_cell_length_b                    10.592536
_cell_length_c                    9.898239
_cell_angle_alpha                 90.406552
_cell_angle_beta                  89.980511
_cell_angle_gamma                 89.883787
_cell_volume                      1119.2169551

loop_
_atom_site_label
_atom_site_type_symbol
_atom_type_description
_atom_site_fract_x
_atom_site_fract_y
_atom_site_fract_z
_atom_type_partial_charge
C1    C     C_R   0.500792 0.260586 0.499400 0.880672
C2    C     C_R   0.501852 0.128796 0.496032 -0.082320
C3    C     C_R   0.616111 0.064673 0.488451 -0.210520
C4    C     C_R   0.615603 0.934001 0.490277 -0.159919
C5    C     C_R   0.500896 0.871364 0.499955 -0.072796
C6    C     C_R   0.387925 0.935890 0.490140 -0.040996
C7    C     C_3   0.276815 0.932698 0.583263 -0.036380
C8    C     C_3   0.275747 0.077286 0.575604 0.012234
C9    C     C_R   0.472274 0.392690 0.069993 0.155130
C10   C     C_R   0.537246 0.602886 0.073333 -0.098672
C11   C     C_R   0.540192 0.602605 0.929675 0.219262
C12   C     C_R   0.262570 0.499162 0.499825 0.968100
C13   C     C_R   0.472905 0.392526 0.927893 0.147460
C14   C     C_3   0.355856 0.316596 0.919113 -0.561794
C15   C     C_3   0.353656 0.317440 0.073288 -0.023983
C16   C     C_R   0.499417 0.739494 0.500412 0.879097
C17   C     C_R   0.736785 0.512141 0.499748 0.964280
C18   C     C_2   0.936152 0.572860 0.393245 0.471627
C19   C     C_2   0.867893 0.538705 0.501637 -0.504251
C20   C     C_2   0.071793 0.567603 0.402606 -0.275136
C21   C     C_2   0.130196 0.501641 0.498447 -0.379146
C22   C     C_R   0.388669 0.065199 0.487209 0.006423
H1    H     H_    0.296127 0.126091 0.672893 0.125436
H2    H     H_    0.564881 0.686724 0.128358 0.195748
H3    H     H_    0.277680 0.368958 0.870510 0.218683
H4    H     H_    0.373903 0.221144 0.876238 0.184137
H5    H     H_    0.367189 0.223133 0.120076 0.161404
H6    H     H_    0.909623 0.530180 0.600834 0.137889
H7    H     H_    0.126093 0.615702 0.325809 0.200757
H8    H     H_    0.083864 0.449331 0.577247 0.151600
H9    H     H_    0.704257 0.115266 0.486501 0.142607
H10   H     H_    0.703389 0.882387 0.489188 0.162039
H11   H     H_    0.301651 0.894844 0.684626 0.142906
N1    N     N_R   0.499170 0.499140 0.142800 -0.118691
N2    N     N_R   0.499170 0.499180 0.857150 -0.115224
O1    O     O_R   0.500020 0.316790 0.614690 -0.621105
O2    O     O_R   0.500000 0.316760 0.385350 -0.614078
O3    O     O_R   0.319080 0.500020 0.614640 -0.629565
O4    O     O_R   0.319070 0.499980 0.385300 -0.599019
O5    O     O_R   0.500000 0.683240 0.614650 -0.603543
O6    O     O_R   0.499980 0.683210 0.385310 -0.610847
O7    O     O_R   0.680930 0.500020 0.614700 -0.626274
O8    O     O_R   0.680920 0.499980 0.385360 -0.523845
Zn1   Zn    Zn3+2 0.500010 0.500020 0.653130 0.956935
Zn2   Zn    Zn3+2 0.499990 0.499980 0.346870 1.013222
S1    S     S_3+6 0.872558 0.630364 0.239395 -0.011389
O9    O     O_2   0.823147 0.521793 0.156812 -0.280682
O10   O     O_2   0.767847 0.721509 0.268834 -0.352256
O11   O     O_3   0.982979 0.704520 0.148428 -0.579148
H12   H     H_    0.999530 0.784174 0.198300 0.346443
N3    N     N_2   0.583935 0.711223 0.861777 -0.274719
H13   H     H_    0.542827 0.793523 0.896434 0.197956
C23   C     C_3   0.718925 0.721526 0.856442 -0.653473
H14   H     H_    0.757079 0.741345 0.958840 0.274833
H15   H     H_    0.745199 0.800113 0.788456 0.209108
H16   H     H_    0.761442 0.633082 0.816589 0.259530
N4    N     N_2   0.248701 0.388248 0.128954 -0.249251
H17   H     H_    0.236759 0.477775 0.090325 0.248289
C24   C     C_3   0.133264 0.317909 0.139463 -0.684367
H18   H     H_    0.061220 0.376667 0.190825 0.270244
H19   H     H_    0.148097 0.231294 0.200012 0.222962
H20   H     H_    0.098496 0.291687 0.037286 0.229429
N5    N     N_2   0.168303 0.872747 0.521914 -0.279525
H21   H     H_    0.188378 0.811323 0.443540 0.227141
C25   C     C_3   0.078659 0.822198 0.616799 -0.771331
H22   H     H_    0.989533 0.801208 0.563588 0.243112
H23   H     H_    0.058994 0.890968 0.699313 0.245436
H24   H     H_    0.115780 0.733941 0.661790 0.244912
N6    N     N_2   0.171999 0.132512 0.501000 -0.270846
H25   H     H_    0.150473 0.091003 0.409283 0.250600
C26   C     C_3   0.064540 0.171409 0.579925 -0.769127
H26   H     H_    0.002089 0.230582 0.516714 0.233483
H27   H     H_    0.094290 0.228100 0.669141 0.229980
H28   H     H_    0.010864 0.088034 0.613712 0.253111

loop_
_geom_bond_atom_site_label_1
_geom_bond_atom_site_label_2
_ccdc_geom_bond_type
C2    C22   A    
C26   H28   S    
C8    C22   S    
N5    C25   S    
O3    Zn1   S    
C6    C7    S    
C19   H6    S    
C12   C21   S    
C7    H11   S    
C21   H8    S    
C15   H5    S    
C25   H23   S    
O1    Zn1   S    
C1    O2    A    
O4    Zn2   S    
C25   H24   S    
C12   O4    A    
C17   O8    A    
C2    C3    A    
C9    C15   S    
C24   H18   S    
C10   N1    A    
N1    Zn2   S    
C13   C14   S    
C14   H4    S    
C3    H9    S    
N2    Zn1   S    
O8    Zn2   S    
S1    O11   S    
C7    N5    S    
N4    H17   S    
C4    H10   S    
O7    Zn1   S    
C16   O5    A    
C15   N4    S    
C5    C6    A    
C18   S1    S    
C11   N3    S    
C11   N2    A    
C17   C19   S    
C23   H14   S    
C9    N1    A    
C1    C2    S    
C18   C20   S    
C20   H7    S    
C23   H15   S    
C14   H3    S    
C12   O3    A    
N6    H25   S    
S1    O10   D    
C24   H19   S    
N4    C24   S    
C7    C8    S    
C10   C11   A    
O2    Zn2   S    
N3    H13   S    
C6    C22   A    
O5    Zn1   S    
C8    H1    S    
C26   H26   S    
C20   C21   D    
N6    C26   S    
C25   H22   S    
C23   H16   S    
C26   H27   S    
C17   O7    A    
O11   H12   S    
C9    C13   A    
S1    O9    D    
C18   C19   D    
C5    C16   S    
O6    Zn2   S    
C24   H20   S    
C8    N6    S    
C10   H2    S    
C14   C15   S    
C16   O6    A    
C13   N2    A    
C3    C4    A    
N5    H21   S    
C1    O1    A    
C4    C5    A    
N3    C23   S    
