data_mof_unit_33465.cif
_audit_creation_date              2013-03-05T15:40:28-0500
_audit_creation_method            fapswitch 2.2
_symmetry_space_group_name_H-M    P1
_symmetry_Int_Tables_number       1
_space_group_crystal_system       triclinic
_cell_length_a                    7.552832
_cell_length_b                    8.726313
_cell_length_c                    13.364137
_cell_angle_alpha                 96.245047
_cell_angle_beta                  77.722477
_cell_angle_gamma                 103.737565
_cell_volume                      834.465615043

loop_
_atom_site_label
_atom_site_type_symbol
_atom_site_description
_atom_site_fract_x
_atom_site_fract_y
_atom_site_fract_z
_atom_type_partial_charge
O1    O     O_R   0.383920 0.714220 0.492660 -0.527984
O2    O     O_R   0.685730 0.742660 0.511730 -0.566481
C1    C     C_R   0.546688 0.799688 0.500109 0.848320
O3    O     O_R   0.275440 0.478800 0.636790 -0.562838
O4    O     O_R   0.577250 0.507240 0.655860 -0.566846
C2    C     C_R   0.400460 0.495208 0.694076 0.735883
Cu1   Cu    Cu3+1 0.321300 0.483160 0.488710 1.171763
Cu2   Cu    Cu3+1 0.678700 0.516840 0.511290 1.138373
O5    O     O_R   0.314270 0.257340 0.488270 -0.521688
O6    O     O_R   0.616080 0.285780 0.507340 -0.570990
O7    O     O_R   0.422750 0.492760 0.344140 -0.521176
O8    O     O_R   0.724560 0.521200 0.363210 -0.526714
C3    C     C_R   0.455953 0.200058 0.493393 0.773673
C4    C     C_R   0.600489 0.513562 0.306623 0.817888
C5    C     C_R   0.858396 0.706059 0.063903 -0.180775
H1    H     H_    0.923638 0.701500 0.211647 0.206656
H2    H     H_    0.877458 0.807704 0.880724 0.164564
H3    H     H_    0.986121 0.790906 0.037722 0.147956
C6    C     C_R   0.659621 0.545078 0.197944 -0.041382
C7    C     C_R   0.164997 0.388800 0.842716 -0.136307
C8    C     C_R   0.114157 0.353315 0.944935 -0.153172
C9    C     C_R   0.240020 0.404743 0.010248 -0.159688
C10   C     C_R   0.418535 0.499927 0.975305 0.073170
C11   C     C_R   0.460772 0.551647 0.874245 0.058516
C12   C     C_R   0.555851 0.546767 0.037509 0.070539
C13   C     C_R   0.723701 0.656675 0.002205 0.131693
C14   C     C_R   0.752944 0.719501 0.907088 -0.168740
C15   C     C_R   0.622782 0.669081 0.844417 -0.118270
C16   C     C_R   0.531658 0.487419 0.133949 -0.191782
C17   C     C_R   0.825075 0.652552 0.162133 -0.127015
C18   C     C_R   0.339063 0.484840 0.805686 -0.080161
H4    H     H_    0.411755 0.398356 0.162705 0.169624
H5    H     H_    0.070369 0.335689 0.791736 0.193540
H6    H     H_    0.191747 0.369932 0.087904 0.168981
H7    H     H_    0.978784 0.280040 0.972875 0.157737
H8    H     H_    0.649766 0.725220 0.772813 0.174051
C19   C     C_2   0.568385 0.967983 0.501073 -0.400483
H9    H     H_    0.686041 0.040631 0.531161 0.188053
C20   C     C_2   0.438902 0.032027 0.476127 0.180960
N1    N     N_2   0.947230 0.542220 0.528320 0.054171
N2    N     N_2   0.052770 0.457780 0.471680 0.096487
N3    N     N_R   0.294267 0.942262 0.424449 0.163754
O9    O     O_R   0.122787 0.953999 0.457591 -0.296649
O10   O     O_R   0.337841 0.866819 0.336447 -0.337335
N4    N     N_R   0.988755 0.591470 0.624281 0.243900
O11   O     O_R   0.056710 0.740394 0.644352 -0.367000
O12   O     O_R   0.914015 0.500809 0.700102 -0.386111
S1    S     S_3+6 0.022836 0.370029 0.350976 0.144732
O13   O     O_2   0.834103 0.269091 0.346896 -0.305683
O14   O     O_2   0.071009 0.496093 0.275480 -0.309052
O15   O     O_3   0.169335 0.247512 0.313278 -0.491020
H10   H     H_    0.139693 0.194907 0.247465 0.340357

loop_
_geom_bond_atom_site_label_1
_geom_bond_atom_site_label_2
_geom_bond_distance
_ccdc_geom_bond_type
C5    H3    1.083883 S    
C10   C11   1.417937 A    
C19   H9    1.087287 S    
C8    H7    1.082937 S    
C16   H4    1.074489 S    
Cu2   O8    1.938120 S    
S1    O14   1.501917 D    
O2    C1    1.307286 A    
C11   C18   1.418385 A    
Cu1   Cu2   2.722946 S    
C19   C20   1.348591 D    
C8    C9    1.389960 A    
Cu1   O7    1.924079 S    
C15   H8    1.081136 S    
C13   C14   1.392789 A    
O4    C2    1.307609 A    
N3    O10   1.301811 A    
O3    Cu1   1.938120 S    
C7    H5    1.082057 S    
O3    C2    1.310575 A    
S1    O13   1.495677 D    
N2    S1    1.744628 S    
O8    C4    1.309659 A    
C2    C18   1.470815 S    
C20   N3    1.442442 S    
Cu1   N2    2.046043 S    
C12   C16   1.401003 A    
N1    N4    1.383782 S    
C9    H6    1.075784 S    
O7    C4    1.305479 A    
C3    C20   1.438461 S    
O4    Cu2   1.924079 S    
N3    O9    1.301257 A    
H1    C17   1.082342 S    
O15   H10   0.990716 S    
H2    C14   1.084099 S    
N4    O11   1.300051 A    
C10   C12   1.423081 A    
C7    C8    1.386344 A    
C1    C19   1.437451 S    
C5    C17   1.393451 A    
Cu2   O6    1.956140 S    
N4    O12   1.300124 A    
C14   C15   1.387845 A    
Cu1   O5    1.958045 S    
O5    C3    1.300896 A    
C9    C10   1.417951 A    
N1    N2    1.285430 D    
C5    C13   1.404200 A    
Cu2   N1    2.046044 S    
C12   C13   1.419939 A    
O1    Cu1   1.956140 S    
C6    C17   1.398889 A    
C4    C6    1.461948 S    
O6    C3    1.301092 A    
S1    O15   1.681880 S    
O2    Cu2   1.958045 S    
C11   C15   1.411448 A    
O1    C1    1.295339 A    
C7    C18   1.402108 A    
C6    C16   1.394854 A    
