data_mof_unit_56406.cif
_audit_creation_date              2012-12-10T20:55:45-0500
_audit_creation_method            fapswitch 2.2
_symmetry_space_group_name_H-M    P1
_symmetry_Int_Tables_number       1
_space_group_crystal_system       triclinic
_cell_length_a                    15.850141
_cell_length_b                    15.027608
_cell_length_c                    10.392642
_cell_angle_alpha                 90.002228
_cell_angle_beta                  90.071258
_cell_angle_gamma                 90.003261
_cell_volume                      2475.41841903

loop_
_atom_site_label
_atom_site_type_symbol
_atom_type_description
_atom_site_fract_x
_atom_site_fract_y
_atom_site_fract_z
_atom_type_partial_charge
C1    C     C_1   0.250437 0.499989 0.499240 -0.185969
C2    C     C_1   0.749563 0.500011 0.500760 -0.185968
C3    C     C_R   0.533516 0.500010 0.878707 -0.176993
C4    C     C_R   0.466484 0.499990 0.121293 -0.176994
C5    C     C_R   0.500000 0.905050 0.500000 0.088534
C6    C     C_R   0.500000 0.094950 0.500000 0.088532
C7    C     C_R   0.435899 0.953052 0.437056 -0.170749
C8    C     C_R   0.564101 0.046948 0.562944 -0.170750
C9    C     C_R   0.564101 0.953063 0.562944 -0.170804
C10   C     C_R   0.435899 0.046937 0.437056 -0.170805
C11   C     C_R   0.956236 0.580712 0.490228 -0.185537
C12   C     C_R   0.043764 0.419288 0.509772 -0.185537
C13   C     C_R   0.043721 0.580683 0.489346 -0.186011
C14   C     C_R   0.956279 0.419317 0.510655 -0.186011
C15   C     C_R   0.338791 0.499997 0.499942 0.904319
C16   C     C_R   0.661209 0.500003 0.500058 0.904319
C17   C     C_R   0.485394 0.499997 0.259248 0.906978
C18   C     C_R   0.514606 0.500003 0.740751 0.906979
C19   C     C_R   0.913156 0.500030 0.500889 0.174124
C20   C     C_R   0.086844 0.499970 0.499111 0.174124
C21   C     C_1   0.500000 0.807251 0.500000 0.030576
C22   C     C_1   0.500000 0.192749 0.500000 0.030576
C23   C     C_1   0.824385 0.500022 0.501067 -0.075091
C24   C     C_1   0.175615 0.499978 0.498933 -0.075091
C25   C     C_R   0.439021 0.662723 0.099144 0.184782
C26   C     C_R   0.560981 0.337278 0.900857 0.184781
C27   C     C_R   0.560912 0.662758 0.900880 0.184382
C28   C     C_R   0.439089 0.337241 0.099119 0.184382
C29   C     C_R   0.468374 0.744832 0.048442 0.185635
C30   C     C_R   0.531629 0.255169 0.951559 0.185635
C31   C     C_R   0.531524 0.744850 0.951589 0.185563
C32   C     C_R   0.468478 0.255150 0.048411 0.185563
C33   C     C_R   0.524553 0.581746 0.944531 -0.018522
C34   C     C_R   0.475447 0.418254 0.055468 -0.018522
C35   C     C_R   0.475411 0.581731 0.055479 -0.018532
C36   C     C_R   0.524590 0.418269 0.944521 -0.018531
H1    H     H_    0.077618 0.643066 0.481191 0.140828
H2    H     H_    0.922382 0.356934 0.518810 0.140828
H3    H     H_    0.922304 0.643110 0.482594 0.141064
H4    H     H_    0.077696 0.356890 0.517407 0.141064
H5    H     H_    0.385634 0.082064 0.387971 0.129956
H6    H     H_    0.614366 0.917936 0.612029 0.129955
H7    H     H_    0.614366 0.082084 0.612028 0.129922
H8    H     H_    0.385634 0.917916 0.387971 0.129921
N1    N     N_1   0.500000 0.270550 0.500000 -0.093697
N2    N     N_1   0.500000 0.729450 0.500000 -0.093697
O1    O     O_R   0.378020 0.573650 0.500040 -0.613454
O2    O     O_R   0.621980 0.426350 0.499960 -0.613454
O3    O     O_R   0.621980 0.573650 0.499960 -0.613546
O4    O     O_R   0.378020 0.426350 0.500040 -0.613546
O5    O     O_R   0.499990 0.573670 0.316780 -0.597607
O6    O     O_R   0.500010 0.426330 0.683220 -0.597608
O7    O     O_R   0.500010 0.573670 0.683220 -0.597558
O8    O     O_R   0.499990 0.426330 0.316780 -0.597558
Zn1   Zn    Zn3+2 0.500000 0.598370 0.500000 0.957892
Zn2   Zn    Zn3+2 0.500000 0.401630 0.500000 0.957892
C37   C     C_3   0.434815 0.166817 0.097924 -0.902032
H9    H     H_    0.388638 0.172903 0.177016 0.236177
H10   H     H_    0.403197 0.130289 0.018568 0.241901
H11   H     H_    0.487464 0.125910 0.136200 0.247244
C38   C     C_3   0.565189 0.833183 0.902078 -0.902040
H12   H     H_    0.611358 0.827096 0.822975 0.236179
H13   H     H_    0.512540 0.874095 0.863816 0.247246
H14   H     H_    0.596816 0.869704 0.981432 0.241901
C39   C     C_3   0.565331 0.166855 0.902039 -0.902076
H15   H     H_    0.611506 0.172968 0.822948 0.236139
H16   H     H_    0.596965 0.130348 0.981393 0.241943
H17   H     H_    0.512700 0.125916 0.863761 0.247218
C40   C     C_3   0.434673 0.833145 0.097964 -0.902077
H18   H     H_    0.388502 0.827032 0.177061 0.236139
H19   H     H_    0.487306 0.874085 0.136236 0.247221
H20   H     H_    0.403035 0.869651 0.018613 0.241941
C41   C     C_3   0.363156 0.660902 0.188196 -0.841716
H21   H     H_    0.309809 0.697242 0.142999 0.227589
H22   H     H_    0.339856 0.592550 0.207043 0.213573
H23   H     H_    0.379042 0.692309 0.281804 0.256620
C42   C     C_3   0.636846 0.339099 0.811805 -0.841717
H24   H     H_    0.690194 0.302760 0.857002 0.227589
H25   H     H_    0.620960 0.307692 0.718197 0.256620
H26   H     H_    0.660145 0.407451 0.792958 0.213573
C43   C     C_3   0.636785 0.660981 0.811842 -0.840943
H27   H     H_    0.690110 0.697358 0.857050 0.227697
H28   H     H_    0.660116 0.592643 0.793000 0.213595
H29   H     H_    0.620891 0.692372 0.718231 0.256593
C44   C     C_3   0.363216 0.339018 0.188157 -0.840941
H30   H     H_    0.309890 0.302643 0.142948 0.227694
H31   H     H_    0.379109 0.307626 0.281767 0.256593
H32   H     H_    0.339885 0.407357 0.207000 0.213595

loop_
_geom_bond_atom_site_label_1
_geom_bond_atom_site_label_2
_ccdc_geom_bond_type
C7    C10   A    
C38   H14   S    
C41   H21   S    
C31   C38   S    
C8    H7    S    
C15   O1    A    
C17   O5    A    
C43   H27   S    
C18   O6    A    
C44   H30   S    
C27   C33   A    
C11   C19   A    
C9    H6    S    
C44   H32   S    
C3    C33   A    
C6    C22   S    
C3    C18   S    
C38   H13   S    
C15   O4    A    
C40   H19   S    
C18   O7    A    
C20   C24   S    
N1    Zn2   S    
C8    C9    A    
C39   H16   S    
N2    Zn1   S    
C1    C15   S    
C2    C16   S    
C25   C41   S    
C42   H24   S    
C44   H31   S    
C4    C35   A    
C28   C34   A    
C10   H5    S    
C41   H22   S    
C16   O2    A    
C40   H18   S    
C32   C37   S    
C43   H28   S    
C29   C40   S    
O7    Zn1   S    
C25   C29   A    
O8    Zn2   S    
C26   C42   S    
C27   C31   A    
C27   C43   S    
C16   O3    A    
C5    C7    A    
C37   H11   S    
C6    C8    A    
O3    Zn1   S    
O4    Zn2   S    
C12   H4    S    
C40   H20   S    
C19   C23   S    
C5    C9    A    
C14   H2    S    
C28   C32   A    
C39   H17   S    
C12   C20   A    
C42   H25   S    
C7    H8    S    
C11   H3    S    
C25   C35   A    
C4    C17   S    
C26   C36   A    
C12   C14   A    
C26   C30   A    
C41   H23   S    
C2    C23   T    
C43   H29   S    
O1    Zn1   S    
C21   N2    T    
C42   H26   S    
O2    Zn2   S    
C13   C20   A    
C13   H1    S    
C14   C19   A    
C6    C10   A    
C29   C31   A    
C30   C32   A    
C11   C13   A    
C37   H9    S    
C3    C36   A    
C33   C35   A    
C34   C36   A    
O5    Zn1   S    
C4    C34   A    
C38   H12   S    
C30   C39   S    
C37   H10   S    
C22   N1    T    
C5    C21   S    
C1    C24   T    
C39   H15   S    
C28   C44   S    
C17   O8    A    
O6    Zn2   S    
