data_mof_unit_16605.cif
_audit_creation_date              2013-03-05T16:12:26-0500
_audit_creation_method            fapswitch 2.2
_symmetry_space_group_name_H-M    P1
_symmetry_Int_Tables_number       1
_space_group_crystal_system       triclinic
_cell_length_a                    10.71334
_cell_length_b                    9.815664
_cell_length_c                    23.458339
_cell_angle_alpha                 90.091622
_cell_angle_beta                  89.866616
_cell_angle_gamma                 90.062018
_cell_volume                      2466.83354134

loop_
_atom_site_label
_atom_site_type_symbol
_atom_site_description
_atom_site_fract_x
_atom_site_fract_y
_atom_site_fract_z
_atom_type_partial_charge
O1    O     O_R   0.316770 0.614620 0.500000 -0.627122
O2    O     O_R   0.683230 0.385380 0.500000 -0.626947
O3    O     O_R   0.683230 0.614620 0.500000 -0.626725
O4    O     O_R   0.316770 0.385380 0.500000 -0.626739
C1    C     C_R   0.259801 0.499953 0.499962 0.876689
C2    C     C_R   0.740199 0.500047 0.500038 0.876851
O5    O     O_R   0.499970 0.614690 0.416160 -0.623266
O6    O     O_R   0.500030 0.385310 0.583840 -0.623738
O7    O     O_R   0.500030 0.614690 0.583840 -0.621857
O8    O     O_R   0.499970 0.385310 0.416160 -0.621796
C3    C     C_R   0.500388 0.499887 0.389263 0.903019
C4    C     C_R   0.499469 0.500116 0.610739 0.902798
Zn1   Zn    Zn3+2 0.500000 0.653120 0.500000 0.953617
Zn2   Zn    Zn3+2 0.500000 0.346880 0.500000 0.953688
C5    C     C_R   0.603932 0.523767 0.879324 0.526817
C6    C     C_R   0.391080 0.476029 0.120706 0.523839
N1    N     N_R   0.492817 0.501995 0.852433 -0.357063
N2    N     N_R   0.502213 0.497651 0.147596 -0.351489
C7    C     C_R   0.384385 0.480197 0.881384 0.525522
C8    C     C_R   0.610654 0.519282 0.118632 0.524466
C9    C     C_R   0.384591 0.477991 0.940754 -0.049843
C10   C     C_R   0.610489 0.521233 0.059266 -0.047732
C11   C     C_R   0.497475 0.500483 0.969977 -0.049322
C12   C     C_R   0.497616 0.498709 0.030044 -0.046504
C13   C     C_R   0.609780 0.524867 0.939238 -0.083357
C14   C     C_R   0.385297 0.474468 0.060789 -0.080536
C15   C     C_R   0.274340 0.453040 0.971039 -0.175238
C16   C     C_R   0.720768 0.546047 0.028985 -0.177355
C17   C     C_R   0.273064 0.450316 0.030305 0.210862
C18   C     C_R   0.722049 0.548810 0.969723 0.212474
O9    O     O_2   0.707056 0.543446 0.847484 -0.506386
O10   O     O_2   0.287830 0.457140 0.152546 -0.511729
O11   O     O_2   0.276995 0.460493 0.852481 -0.532445
O12   O     O_2   0.718018 0.539254 0.147527 -0.536686
H1    H     H_    0.187775 0.434518 0.948540 0.221959
H2    H     H_    0.807352 0.564460 0.051484 0.222233
C19   C     C_R   0.519236 0.375214 0.238037 0.199706
C20   C     C_R   0.504994 0.377367 0.762280 0.198372
C21   C     C_R   0.517631 0.376685 0.297415 -0.205093
C22   C     C_R   0.507543 0.377845 0.702903 -0.205696
H3    H     H_    0.528774 0.281904 0.320468 0.169818
H4    H     H_    0.519003 0.282535 0.680112 0.166962
C23   C     C_R   0.502062 0.499541 0.327075 -0.130326
C24   C     C_R   0.496628 0.500500 0.672922 -0.125499
C25   C     C_R   0.488484 0.622047 0.297175 -0.205939
C26   C     C_R   0.481981 0.623551 0.702496 -0.222904
H5    H     H_    0.476288 0.717141 0.320044 0.166992
H6    H     H_    0.472883 0.718755 0.679512 0.174866
C27   C     C_R   0.489316 0.622600 0.237789 0.200124
C28   C     C_R   0.478389 0.625366 0.761806 0.201069
C29   C     C_R   0.504579 0.498624 0.208346 0.303889
C30   C     C_R   0.490506 0.501589 0.791696 0.310635
C31   C     C_R   0.063736 0.378511 0.510966 -0.183147
C32   C     C_R   0.936265 0.621489 0.489035 -0.183150
C33   C     C_R   0.935901 0.378590 0.511050 -0.182337
C34   C     C_R   0.064100 0.621410 0.488952 -0.182457
H7    H     H_    0.112300 0.284148 0.519866 0.159530
H8    H     H_    0.887700 0.715852 0.480136 0.159657
H9    H     H_    0.887046 0.284263 0.520013 0.155474
H10   H     H_    0.112954 0.715737 0.479988 0.155531
C35   C     C_R   0.872594 0.500073 0.500066 -0.015152
C36   C     C_R   0.127407 0.499927 0.499935 -0.015092
C37   C     C_R   0.576451 0.072269 0.535881 -0.072950
C38   C     C_R   0.423549 0.927731 0.464119 -0.072882
C39   C     C_R   0.423552 0.071810 0.464119 -0.073525
C40   C     C_R   0.576447 0.928189 0.535881 -0.073523
H11   H     H_    0.637497 0.127234 0.564524 0.126142
H12   H     H_    0.362504 0.872765 0.435476 0.126210
H13   H     H_    0.362515 0.126410 0.435474 0.131797
H14   H     H_    0.637483 0.873590 0.564527 0.131285
N3    N     N_R   0.500000 0.857200 0.500000 -0.081158
N4    N     N_R   0.500000 0.142800 0.500000 -0.081205
I1    I     I_    0.094379 0.405063 0.066194 -0.210889
I2    I     I_    0.900863 0.593549 0.933852 -0.207700
C41   C     C_3   0.536179 0.242640 0.206547 -0.854156
H15   H     H_    0.547632 0.155530 0.236247 0.231589
H16   H     H_    0.453385 0.222161 0.179484 0.257030
H17   H     H_    0.620596 0.248324 0.179113 0.258811
C42   C     C_3   0.519086 0.245047 0.794073 -0.859317
H18   H     H_    0.530864 0.157289 0.764591 0.231212
H19   H     H_    0.602336 0.249965 0.822098 0.256009
H20   H     H_    0.434871 0.226093 0.820554 0.258437
C43   C     C_3   0.472957 0.754617 0.206036 -0.856875
H21   H     H_    0.556193 0.774462 0.179026 0.257185
H22   H     H_    0.388946 0.748601 0.178528 0.257229
H23   H     H_    0.461178 0.842288 0.235562 0.231373
C44   C     C_3   0.462312 0.760483 0.791537 -0.837581
H24   H     H_    0.457937 0.751047 0.838579 0.243596
H25   H     H_    0.541819 0.828379 0.780625 0.242627
H26   H     H_    0.374307 0.809049 0.777124 0.244435

loop_
_geom_bond_atom_site_label_1
_geom_bond_atom_site_label_2
_geom_bond_distance
_ccdc_geom_bond_type
C44   H24   1.108441 S    
C33   H9    1.083729 S    
C15   C17   1.390621 A    
O3    C2    1.280134 A    
C21   H3    1.083684 S    
O5    C3    1.290622 A    
O1    C1    1.279777 A    
C38   H12   1.081852 S    
C2    C35   1.418394 S    
C7    C9    1.392915 A    
C12   C14   1.421485 A    
C19   C29   1.407400 A    
C5    C13   1.407048 A    
C20   C30   1.408625 A    
C20   C42   1.506648 S    
C25   H5    1.083720 S    
C18   I2    2.136038 S    
O7    Zn1   2.003188 S    
C40   N3    1.365614 A    
C27   C29   1.407785 A    
C28   C30   1.409996 A    
C11   C12   1.409226 A    
C3    C23   1.458882 S    
C22   C24   1.400418 A    
O3    Zn1   1.999450 S    
C8    O12   1.350416 S    
C10   C12   1.408485 A    
C22   H4    1.083733 S    
C9    C15   1.398518 A    
C37   C40   1.414233 A    
C38   N3    1.365618 A    
C10   C16   1.398487 A    
O4    Zn2   1.999452 S    
O2    C2    1.279778 A    
N1    C30   1.425066 S    
C41   H17   1.110179 S    
C24   C26   1.400698 A    
N2    C29   1.425383 S    
C37   H11   1.081849 S    
C31   C33   1.369537 A    
C6    C14   1.407127 A    
C19   C21   1.393027 A    
C32   C34   1.369536 A    
O8    Zn2   2.003190 S    
C42   H19   1.110198 S    
C31   H7    1.083681 S    
C21   C23   1.401203 A    
Zn1   N3    2.003181 S    
C15   H1    1.083185 S    
C34   H10   1.083729 S    
C41   H15   1.110903 S    
C23   C25   1.400931 A    
C31   C36   1.396783 A    
C43   H21   1.109948 S    
C25   C27   1.393131 A    
O6    C4    1.290674 A    
C41   H16   1.109969 S    
C28   C44   1.507328 S    
C43   H22   1.110157 S    
C8    C10   1.392800 A    
C9    C11   1.408561 A    
C7    O11   1.350370 S    
C34   C36   1.397082 A    
O1    Zn1   1.998648 S    
C32   H8    1.083681 S    
C13   C18   1.419917 A    
C5    N1    1.364988 A    
O6    Zn2   2.002003 S    
Zn2   N4    2.003181 S    
O4    C1    1.280133 A    
C42   H20   1.109917 S    
C5    O9    1.346085 S    
C32   C35   1.396784 A    
C6    O10   1.346102 S    
C39   N4    1.365619 A    
C26   C28   1.391850 A    
C38   C39   1.414233 A    
C27   C43   1.506304 S    
C16   C18   1.390541 A    
C4    C24   1.458960 S    
C20   C22   1.393091 A    
C40   H14   1.081807 S    
C39   H13   1.081806 S    
C33   C35   1.397083 A    
N1    C7    1.361160 A    
C1    C36   1.418390 S    
N2    C8    1.361143 A    
C11   C13   1.421526 A    
C19   C41   1.506265 S    
O2    Zn2   1.998647 S    
O7    C4    1.290431 A    
O8    C3    1.290431 A    
C42   H18   1.110937 S    
C26   H6    1.084217 S    
O5    Zn1   2.002006 S    
C43   H23   1.110912 S    
C17   I1    2.136009 S    
C37   N4    1.365615 A    
C16   H2    1.083187 S    
C14   C17   1.419918 A    
C6    N2    1.364918 A    
C44   H26   1.110608 S    
C44   H25   1.110634 S    
