data_mof_unit_26386.cif
_audit_creation_date              2012-12-11T17:04:40-0500
_audit_creation_method            fapswitch 2.2
_symmetry_space_group_name_H-M    P1
_symmetry_Int_Tables_number       1
_space_group_crystal_system       triclinic
_cell_length_a                    17.332574
_cell_length_b                    24.304649
_cell_length_c                    15.05579
_cell_angle_alpha                 90.226939
_cell_angle_beta                  125.691316
_cell_angle_gamma                 89.10114
_cell_volume                      5150.40803867

loop_
_atom_site_label
_atom_site_type_symbol
_atom_type_description
_atom_site_fract_x
_atom_site_fract_y
_atom_site_fract_z
_atom_type_partial_charge
C1    C     C_R   0.814963 0.634984 0.907883 0.415364
C2    C     C_R   0.032307 0.500127 0.706411 -0.161535
C3    C     C_R   0.769606 0.044219 0.243009 -0.043717
C4    C     C_R   0.811197 0.375602 0.910263 0.795182
C5    C     C_R   0.137292 0.346456 0.091817 0.750065
C6    C     C_R   0.311207 0.875589 0.910269 0.795207
C7    C     C_R   0.637264 0.846457 0.091826 0.750176
C8    C     C_R   0.903596 0.629824 0.089829 0.732513
C9    C     C_R   0.054429 0.655356 0.914477 0.788062
C10   C     C_R   0.403609 0.129855 0.089819 0.732392
C11   C     C_R   0.554430 0.155356 0.914477 0.788043
C12   C     C_R   0.816526 0.648858 0.999420 -0.194673
C13   C     C_R   0.585440 0.000762 0.373552 -0.195894
C14   C     C_R   0.117070 0.685330 0.007149 -0.235964
C15   C     C_R   0.316523 0.148870 0.999397 -0.194591
C16   C     C_R   0.617074 0.185329 0.007145 -0.235983
C17   C     C_R   0.532332 0.000127 0.706439 -0.161493
C18   C     C_R   0.700244 0.502401 0.631063 0.031294
C19   C     C_R   0.325729 0.496780 0.272403 0.063655
C20   C     C_R   0.200260 0.002400 0.631052 0.031326
C21   C     C_R   0.825734 0.996770 0.272422 0.063651
C22   C     C_3   0.532150 0.466468 0.514735 0.319116
C23   C     C_3   0.501379 0.447956 0.400876 0.369077
C24   C     C_3   0.032163 0.966491 0.514773 0.319019
C25   C     C_R   0.145778 0.652699 0.095036 0.365307
C26   C     C_3   0.001379 0.947933 0.400934 0.369109
C27   C     C_3   0.462313 0.515404 0.465282 0.314784
C28   C     C_3   0.577553 0.485001 0.410708 0.378400
C29   C     C_3   0.962338 0.015431 0.465271 0.314713
C30   C     C_3   0.077558 0.984951 0.410714 0.378382
C31   C     C_3   0.429440 0.496663 0.350338 -0.433356
C32   C     C_3   0.608323 0.503261 0.524535 -0.431167
C33   C     C_3   0.929449 0.996644 0.350344 -0.433340
C34   C     C_3   0.108341 0.003257 0.524522 -0.431109
C35   C     C_3   0.504706 0.533425 0.358348 0.343296
C36   C     C_R   0.314965 0.134985 0.907869 0.415215
C37   C     C_3   0.537176 0.552031 0.473118 0.350138
C38   C     C_3   0.004721 0.033379 0.358302 0.343339
C39   C     C_3   0.037206 0.052030 0.473055 0.350141
C40   C     C_R   0.800112 0.288787 0.094989 -0.049337
C41   C     C_R   0.087877 0.224629 0.909183 -0.036515
C42   C     C_R   0.300082 0.788823 0.095089 -0.049388
C43   C     C_R   0.587885 0.724602 0.909263 -0.036487
C44   C     C_R   0.753436 0.327551 0.010293 -0.084919
C45   C     C_R   0.118889 0.251673 0.007231 -0.045024
C46   C     C_R   0.253435 0.827553 0.010320 -0.084988
C47   C     C_R   0.645796 0.152696 0.095036 0.365422
C48   C     C_R   0.618916 0.751675 0.007294 -0.044851
C49   C     C_R   0.654150 0.325591 0.934250 0.877267
C50   C     C_R   0.195466 0.227272 0.104674 0.861440
C51   C     C_R   0.154157 0.825575 0.934219 0.877231
C52   C     C_R   0.695575 0.727329 0.104747 0.861019
C53   C     C_R   0.899336 0.380964 0.090386 0.735584
C54   C     C_R   0.047923 0.345166 0.912187 0.783677
C55   C     C_R   0.399345 0.880956 0.090391 0.735643
C56   C     C_R   0.547923 0.845162 0.912196 0.783643
C57   C     C_R   0.104919 0.780975 0.936759 -0.202715
C58   C     C_R   0.812483 0.364984 0.001097 -0.290774
C59   C     C_R   0.758321 0.692795 0.101895 -0.316132
C60   C     C_R   0.604920 0.280986 0.936795 -0.202611
C61   C     C_R   0.258185 0.192701 0.101830 -0.316176
C62   C     C_R   0.155206 0.739383 0.016351 0.016332
C63   C     C_R   0.742692 0.678596 0.001938 -0.015457
C64   C     C_R   0.655227 0.239374 0.016336 0.016284
C65   C     C_R   0.242655 0.178589 0.001886 -0.015565
C66   C     C_R   0.251390 0.746460 0.100017 0.024672
C67   C     C_R   0.651428 0.688754 0.905856 0.042956
C68   C     C_R   0.751434 0.246423 0.099934 0.024698
C69   C     C_R   0.104552 0.312160 0.004020 -0.319250
C70   C     C_R   0.151428 0.188793 0.905767 0.043032
C71   C     C_3   0.332161 0.706152 0.141292 0.172688
C72   C     C_3   0.579528 0.644360 0.849925 0.135787
C73   C     C_3   0.832159 0.206102 0.141064 0.172796
C74   C     C_3   0.079494 0.144423 0.849711 0.135740
C75   C     C_3   0.884091 0.251985 0.129215 0.678043
C76   C     C_3   0.012650 0.181077 0.857288 0.697115
C77   C     C_3   0.384121 0.752034 0.129489 0.678260
C78   C     C_3   0.512668 0.681042 0.857426 0.697087
C79   C     C_R   0.987840 0.525771 0.528913 -0.019949
C80   C     C_R   0.312500 0.864966 0.001109 -0.290794
C81   C     C_R   0.001762 0.526626 0.449222 -0.134163
C82   C     C_R   0.487817 0.025748 0.528911 -0.019922
C83   C     C_R   0.501725 0.026605 0.449209 -0.134292
C84   C     C_R   0.054262 0.501005 0.628694 -0.098339
C85   C     C_R   0.083087 0.503033 0.466614 -0.034213
C86   C     C_R   0.554271 0.001005 0.628708 -0.098332
C87   C     C_R   0.583068 0.003036 0.466606 -0.034156
C88   C     C_R   0.142851 0.483026 0.654153 0.422391
C89   C     C_R   0.157725 0.484240 0.571652 0.455601
C90   C     C_R   0.642870 0.983052 0.654163 0.422419
C91   C     C_R   0.604538 0.812159 0.004039 -0.319328
C92   C     C_R   0.657729 0.984268 0.571651 0.455593
C93   C     C_3   0.898840 0.517570 0.360714 0.484850
C94   C     C_3   0.883761 0.516391 0.450338 0.599514
C95   C     C_3   0.398811 0.017510 0.360722 0.484903
C96   C     C_3   0.383748 0.016331 0.450358 0.599524
C97   C     C_R   0.062335 0.545762 0.308492 0.514008
C98   C     C_R   0.007830 0.546158 0.738474 0.457588
C99   C     C_R   0.562310 0.045768 0.308480 0.513533
C100  C     C_R   0.507846 0.046158 0.738492 0.457577
C101  C     C_R   0.748402 0.456268 0.692265 0.577188
C102  C     C_R   0.085465 0.500755 0.373562 -0.195962
C103  C     C_R   0.269252 0.452680 0.255610 0.467564
C104  C     C_R   0.248411 0.956267 0.692262 0.577194
C105  C     C_R   0.769248 0.952675 0.255617 0.467501
C106  C     C_R   0.062255 0.455492 0.309325 0.635964
C107  C     C_R   0.006962 0.454547 0.736891 0.447782
C108  C     C_R   0.562251 0.955497 0.309325 0.636114
C109  C     C_R   0.506976 0.954547 0.736907 0.447706
C110  C     C_R   0.745006 0.547105 0.694745 -0.031348
C111  C     C_R   0.269598 0.544225 0.242998 -0.043774
C112  C     C_R   0.245013 0.047104 0.694739 -0.031481
Cl1   Cl    Cl    0.751323 0.671674 0.783952 -0.401386
Cl2   Cl    Cl    0.556507 0.622792 0.509215 -0.263821
Cl3   Cl    Cl    0.986596 0.075051 0.250345 -0.372194
Cl4   Cl    Cl    0.056575 0.122801 0.509068 -0.263781
Cl5   Cl    Cl    0.382486 0.686374 0.279456 -0.330807
Cl6   Cl    Cl    0.544458 0.630984 0.715002 -0.320700
Cl7   Cl    Cl    0.882581 0.186295 0.279233 -0.330977
Cl8   Cl    Cl    0.044414 0.131158 0.714749 -0.320491
Cl9   Cl    Cl    0.896285 0.240095 0.020961 -0.504498
Cl10  Cl    Cl    0.986779 0.151210 0.945396 -0.439200
Cl11  Cl    Cl    0.396500 0.740106 0.021386 -0.504492
Cl12  Cl    Cl    0.173552 0.678663 0.219405 -0.374616
Cl13  Cl    Cl    0.486768 0.651235 0.945554 -0.439062
Cl14  Cl    Cl    0.994670 0.271384 0.252349 -0.199257
Cl15  Cl    Cl    0.906668 0.204738 0.731545 -0.195160
Cl16  Cl    Cl    0.494618 0.771467 0.252694 -0.199159
Cl17  Cl    Cl    0.406703 0.704668 0.731629 -0.195305
Cl18  Cl    Cl    0.232441 0.457871 0.786181 -0.431338
Cl19  Cl    Cl    0.266838 0.461596 0.598936 -0.302973
Cl20  Cl    Cl    0.732489 0.957924 0.786203 -0.431328
Cl21  Cl    Cl    0.766852 0.961654 0.598929 -0.303064
Cl22  Cl    Cl    0.122297 0.607834 0.364708 -0.315660
Cl23  Cl    Cl    0.251381 0.171688 0.783955 -0.401387
Cl24  Cl    Cl    0.000794 0.612970 0.690344 -0.385842
Cl25  Cl    Cl    0.622297 0.107833 0.364703 -0.315537
Cl26  Cl    Cl    0.500806 0.112967 0.690351 -0.385844
Cl27  Cl    Cl    0.750841 0.393777 0.634594 -0.310577
Cl28  Cl    Cl    0.307199 0.392494 0.335122 -0.323585
Cl29  Cl    Cl    0.250848 0.893772 0.634606 -0.310592
Cl30  Cl    Cl    0.807164 0.892478 0.335094 -0.323599
Cl31  Cl    Cl    0.116775 0.390831 0.362598 -0.273435
Cl32  Cl    Cl    0.994545 0.388895 0.681893 -0.387436
Cl33  Cl    Cl    0.616785 0.890842 0.362618 -0.273472
Cl34  Cl    Cl    0.673684 0.178652 0.219460 -0.374444
Cl35  Cl    Cl    0.494560 0.888897 0.681904 -0.387477
Cl36  Cl    Cl    0.389684 0.535887 0.508679 -0.330712
Cl37  Cl    Cl    0.656707 0.466547 0.375945 -0.368809
Cl38  Cl    Cl    0.889730 0.035963 0.508669 -0.330753
Cl39  Cl    Cl    0.156702 0.966451 0.375960 -0.368733
Cl40  Cl    Cl    0.540241 0.421849 0.613991 -0.249360
Cl41  Cl    Cl    0.494453 0.379045 0.355206 -0.292250
Cl42  Cl    Cl    0.040253 0.921919 0.614085 -0.249492
Cl43  Cl    Cl    0.994478 0.879001 0.355372 -0.292192
Cl44  Cl    Cl    0.486573 0.575157 0.250452 -0.372316
F1    F     F_    0.606451 0.364074 0.853869 -0.563322
F2    F     F_    0.974304 0.324407 0.816325 -0.554157
F3    F     F_    0.423333 0.882253 0.193205 -0.591599
F4    F     F_    0.474315 0.824399 0.816330 -0.554144
F5    F     F_    0.742457 0.360384 0.806941 -0.552581
F6    F     F_    0.153042 0.329151 0.186299 -0.518575
F7    F     F_    0.242461 0.860377 0.806945 -0.552571
F8    F     F_    0.652922 0.829162 0.186268 -0.518585
F9    F     F_    0.938809 0.636335 0.195800 -0.661270
F10   F     F_    0.981825 0.679772 0.820994 -0.591225
F11   F     F_    0.438911 0.136493 0.195793 -0.660820
F12   F     F_    0.216374 0.239837 0.204035 -0.513177
F13   F     F_    0.481830 0.179773 0.820991 -0.591157
F14   F     F_    0.106477 0.864034 0.853784 -0.563271
F15   F     F_    0.716587 0.739951 0.204132 -0.513236
F16   F     F_    0.883096 0.466887 0.310964 -0.620941
F17   F     F_    0.830914 0.561195 0.445049 -0.577522
F18   F     F_    0.383122 0.966818 0.311022 -0.620867
F19   F     F_    0.330858 0.061118 0.445040 -0.577583
F20   F     F_    0.923351 0.382217 0.193214 -0.591519
H1    H     H_    0.029696 0.777394 0.873268 0.254769
H2    H     H_    0.861033 0.476188 0.462087 0.131254
H3    H     H_    0.363762 0.052739 0.302675 0.123555
H4    H     H_    0.361067 0.976121 0.462148 0.131265
H5    H     H_    0.736457 0.588412 0.664925 0.246117
H6    H     H_    0.293122 0.585999 0.253295 0.215477
H7    H     H_    0.236464 0.088412 0.664926 0.246151
H8    H     H_    0.793137 0.085991 0.253309 0.215520
H9    H     H_    0.819805 0.679698 0.179924 0.276739
H10   H     H_    0.529683 0.277420 0.873354 0.254721
H11   H     H_    0.319558 0.179486 0.179848 0.276539
H12   H     H_    0.313866 0.670711 0.085644 0.118009
H13   H     H_    0.602005 0.606012 0.899925 0.121995
H14   H     H_    0.813787 0.170675 0.085364 0.117979
H15   H     H_    0.101936 0.106039 0.899600 0.121968
H16   H     H_    0.863834 0.552815 0.302698 0.123808
N1    N     N_R   0.892620 0.603790 0.941770 -0.145312
N2    N     N_R   0.973690 0.529110 0.793240 -0.137727
N3    N     N_R   0.526310 0.029110 0.206760 -0.153276
N4    N     N_R   0.473690 0.029110 0.793240 -0.137712
N5    N     N_R   0.818570 0.472310 0.793020 -0.141334
N6    N     N_R   0.181430 0.472310 0.206980 -0.123606
N7    N     N_R   0.318570 0.972310 0.793020 -0.141323
N8    N     N_R   0.681430 0.972310 0.206980 -0.123596
N9    N     N_R   0.026930 0.472300 0.207330 -0.155664
N10   N     N_R   0.973070 0.472300 0.792670 -0.136215
N11   N     N_R   0.526930 0.972300 0.207330 -0.155638
N12   N     N_R   0.107380 0.603790 0.058230 -0.153229
N13   N     N_R   0.473070 0.972300 0.792670 -0.136204
N14   N     N_R   0.817960 0.529130 0.792460 -0.117532
N15   N     N_R   0.182040 0.529130 0.207540 -0.084081
N16   N     N_R   0.317960 0.029130 0.792460 -0.117529
N17   N     N_R   0.682040 0.029130 0.207540 -0.084054
N18   N     N_R   0.894850 0.397640 0.943830 -0.183475
N19   N     N_R   0.105150 0.397640 0.056170 -0.198940
N20   N     N_R   0.394850 0.897640 0.943830 -0.183503
N21   N     N_R   0.605150 0.897640 0.056170 -0.198963
N22   N     N_R   0.950040 0.603780 0.055950 -0.144064
N23   N     N_R   0.392620 0.103790 0.941770 -0.145297
N24   N     N_R   0.049960 0.603780 0.944050 -0.160736
N25   N     N_R   0.450040 0.103780 0.055950 -0.144095
N26   N     N_R   0.549960 0.103780 0.944050 -0.160755
N27   N     N_R   0.607380 0.103790 0.058230 -0.153243
N28   N     N_R   0.952270 0.397640 0.058010 -0.168277
N29   N     N_R   0.047730 0.397640 0.941990 -0.183879
N30   N     N_R   0.452270 0.897640 0.058010 -0.168252
N31   N     N_R   0.547730 0.897640 0.941990 -0.183880
N32   N     N_R   0.026310 0.529110 0.206760 -0.153174
Ni1   Ni    Ni4+2 0.934160 0.565860 0.869070 0.298605
Ni2   Ni    Ni4+2 0.065840 0.565860 0.130930 0.316979
Ni3   Ni    Ni4+2 0.434160 0.065860 0.869070 0.298610
Ni4   Ni    Ni4+2 0.565840 0.065860 0.130930 0.316989
Ni5   Ni    Ni4+2 0.067260 0.435560 0.132230 0.340300
Ni6   Ni    Ni4+2 0.932740 0.435560 0.867770 0.331668
Ni7   Ni    Ni4+2 0.567260 0.935560 0.132230 0.340306
Ni8   Ni    Ni4+2 0.432740 0.935560 0.867770 0.331648

loop_
_geom_bond_atom_site_label_1
_geom_bond_atom_site_label_2
_ccdc_geom_bond_type
C44   C49   A    
C3    N17   A    
C83   C87   A    
C93   F16   S    
C93   C94   S    
C73   Cl7   S    
C96   F19   S    
C98   Cl24  S    
C72   H13   S    
C2    C84   S    
C95   C96   S    
C88   Cl18  S    
C71   H12   S    
C9    C14   A    
C25   N12   A    
C19   C31   S    
C6    F7    S    
C101  Cl27  S    
N6    Ni5   S    
N18   N28   A    
C57   C62   A    
N20   N30   A    
N5    Ni6   S    
C43   C78   S    
C54   C69   A    
C98   N2    A    
C49   C60   A    
C22   C32   S    
N3    Ni4   S    
C64   C68   A    
N2    Ni1   S    
C9    F10   S    
C35   C37   S    
C78   Cl17  S    
C24   C26   S    
C108  N11   A    
C8    N22   A    
C10   C15   A    
N23   N25   A    
C36   N23   A    
C42   C46   A    
C38   C39   S    
N20   Ni8   S    
C101  N5    A    
C6    N20   A    
C65   C70   A    
C14   C62   S    
C99   N3    A    
C2    C107  A    
C61   H11   S    
C71   Cl5   S    
C4    N18   A    
C30   C38   S    
C67   C72   S    
C94   H2    S    
C100  N4    A    
N4    N13   A    
C24   C29   S    
C72   C78   S    
N15   Ni2   S    
C29   Cl38  S    
C20   C112  A    
C19   C103  A    
C39   Cl4   S    
C105  N8    A    
C92   Cl21  S    
C28   C35   S    
C44   C58   S    
C27   Cl36  S    
C48   C91   S    
N29   Ni6   S    
C70   C74   S    
C5    C69   A    
C57   H1    S    
C102  C106  A    
C51   C57   A    
N8    Ni7   S    
N27   Ni4   S    
C3    H8    S    
C97   C102  A    
N21   Ni7   S    
N10   Ni6   S    
C90   Cl20  S    
C53   N28   A    
N9    Ni5   S    
N4    Ni3   S    
C83   C95   S    
C28   Cl37  S    
C29   C33   S    
C87   C92   A    
C73   C75   S    
C49   F1    S    
N5    N14   A    
C109  Cl35  S    
C1    C12   A    
C1    Cl1   S    
C97   Cl22  S    
C13   C108  A    
C52   F15   S    
C26   Cl43  S    
C25   Cl12  S    
C24   Cl42  S    
C112  H7    S    
C22   Cl40  S    
C56   C91   A    
C9    N24   A    
C5    N19   A    
C63   C67   A    
C82   C96   S    
C30   C34   S    
C38   Cl3   S    
C45   C69   S    
C17   C86   S    
C18   C110  A    
C28   C32   S    
C62   C66   A    
C35   Cl44  S    
C112  N16   A    
C107  N10   A    
C106  Cl31  S    
C86   C90   A    
C30   Cl39  S    
C105  Cl30  S    
C79   C81   A    
C12   C63   S    
C85   C89   A    
C10   F11   S    
C54   N29   A    
C16   C47   A    
C94   F17   S    
C68   C73   S    
C82   C86   A    
C47   N27   A    
C46   C51   A    
C111  H6    S    
C24   C34   S    
C72   Cl6   S    
C34   C39   S    
N32   Ni2   S    
C103  N6    A    
C23   C31   S    
C13   C99   A    
C1    N1    A    
N7    Ni8   S    
C43   C67   A    
C77   Cl11  S    
C52   C59   A    
C16   C64   S    
C54   F2    S    
N19   N29   A    
C81   C93   S    
C11   C16   A    
C26   C33   S    
C90   C92   A    
C66   C71   S    
C40   C44   A    
C8    C12   A    
C104  Cl29  S    
C7    C91   A    
C13   C87   S    
N14   Ni1   S    
N18   Ni6   S    
C110  N14   A    
C32   C37   S    
C96   H4    S    
C109  N13   A    
C11   N26   A    
C7    N21   A    
C77   Cl16  S    
C100  Cl26  S    
C20   C34   S    
C79   C94   S    
C55   N30   A    
C20   C104  A    
N28   Ni5   S    
C95   H3    S    
N17   Ni4   S    
N30   Ni7   S    
C11   F13   S    
C22   C27   S    
C23   Cl41  S    
C27   C31   S    
C50   F12   S    
C6    C80   A    
C104  N7    A    
C31   C35   S    
C3    C21   A    
C23   C28   S    
C74   C76   S    
N12   Ni2   S    
C36   Cl23  S    
C111  N15   A    
N26   Ni3   S    
C71   C77   S    
N31   Ni8   S    
C42   C66   A    
C108  Cl33  S    
C43   C48   A    
C93   H16   S    
C29   C39   S    
C76   Cl15  S    
C60   H10   S    
N19   Ni5   S    
N1    N22   A    
N6    N15   A    
C75   Cl9   S    
C95   F18   S    
C51   F14   S    
C99   Cl25  S    
C73   H14   S    
N13   Ni8   S    
C17   C109  A    
C56   N31   A    
C53   C58   A    
C40   C75   S    
C26   C30   S    
C37   Cl2   S    
N24   Ni1   S    
C19   C111  A    
C74   Cl8   S    
C7    F8    S    
N12   N24   A    
N2    N10   A    
C59   C63   A    
N8    N17   A    
C89   Cl19  S    
C97   N32   A    
C60   C64   A    
C75   Cl14  S    
C76   Cl10  S    
C5    F6    S    
C21   C33   S    
N1    Ni1   S    
N16   Ni3   S    
C103  Cl28  S    
C106  N9    A    
N11   Ni7   S    
C55   C80   A    
N21   N31   A    
N26   N27   A    
C79   C84   A    
C84   C88   A    
C45   C50   A    
C27   C37   S    
C55   F3    S    
N7    N16   A    
C59   H9    S    
N23   Ni3   S    
C4    F5    S    
C14   C25   A    
N22   Ni2   S    
C17   C100  A    
C81   C85   A    
C47   Cl34  S    
C8    F9    S    
N25   Ni4   S    
C74   H15   S    
C61   C65   A    
C48   C52   A    
C18   C32   S    
C88   C89   A    
C2    C98   A    
C42   C77   S    
C56   F4    S    
C82   C83   A    
C40   C68   A    
C10   N25   A    
C4    C58   A    
C110  H5    S    
C50   C61   A    
C41   C45   A    
C22   C23   S    
C15   C36   A    
C33   C38   S    
C46   C80   S    
N9    N32   A    
C107  Cl32  S    
C78   Cl13  S    
C18   C101  A    
C21   C105  A    
C85   C102  S    
N3    N11   A    
C53   F20   S    
C41   C70   A    
C41   C76   S    
C15   C65   S    
