data_mof_unit_52797.cif
_audit_creation_date              2012-12-11T14:50:53-0500
_audit_creation_method            fapswitch 2.2
_symmetry_space_group_name_H-M    P1
_symmetry_Int_Tables_number       1
_space_group_crystal_system       triclinic
_cell_length_a                    10.893534
_cell_length_b                    10.859463
_cell_length_c                    18.833426
_cell_angle_alpha                 89.796456
_cell_angle_beta                  89.615015
_cell_angle_gamma                 60.318549
_cell_volume                      1935.58568911

loop_
_atom_site_label
_atom_site_type_symbol
_atom_type_description
_atom_site_fract_x
_atom_site_fract_y
_atom_site_fract_z
_atom_type_partial_charge
C1    C     C_R   0.238492 0.645464 0.610412 0.578557
C2    C     C_R   0.552450 0.234079 0.796996 -0.140672
C3    C     C_R   0.535737 0.246649 0.724555 -0.140077
C4    C     C_R   0.654551 0.623201 0.600500 0.584772
C5    C     C_R   0.653321 0.197234 0.679370 0.027448
C6    C     C_R   0.191086 0.554302 0.722750 -0.102072
C7    C     C_R   0.183434 0.557767 0.796581 0.292388
C8    C     C_R   0.182320 0.670449 0.834255 0.051715
C9    C     C_R   0.206770 0.769856 0.797327 0.024406
C10   C     C_R   0.210924 0.766575 0.723803 -0.145771
C11   C     C_R   0.202800 0.659820 0.685909 -0.013442
C12   C     C_3   0.652537 0.567348 0.800439 -0.272811
C13   C     C_R   0.675455 0.556991 0.271202 -0.119845
C14   C     C_R   0.688197 0.578087 0.199793 0.078233
C15   C     C_R   0.689416 0.701600 0.178225 0.053911
C16   C     C_R   0.625708 0.232402 0.604397 0.559277
C17   C     C_R   0.669338 0.805827 0.228234 -0.178153
C18   C     C_R   0.653635 0.784637 0.300110 -0.149957
C19   C     C_R   0.660485 0.658042 0.321321 0.021293
C20   C     C_R   0.487803 0.303204 0.269569 -0.104277
C21   C     C_R   0.508491 0.263219 0.198769 0.049648
C22   C     C_R   0.648038 0.175026 0.173426 0.052225
C23   C     C_3   0.702094 0.676350 0.810994 -0.004917
C24   C     C_R   0.764586 0.137095 0.219247 0.040211
C25   C     C_R   0.740463 0.179941 0.288885 -0.146771
C26   C     C_R   0.603158 0.258817 0.314512 -0.030692
C27   C     C_R   0.242492 0.730220 0.279555 0.061807
C28   C     C_R   0.226290 0.648424 0.399421 0.563836
C29   C     C_R   0.236035 0.718037 0.206729 0.076250
C30   C     C_R   0.156071 0.661142 0.180083 0.035397
C31   C     C_R   0.099651 0.597666 0.224488 -0.105050
C32   C     C_R   0.116701 0.596476 0.297104 0.024534
C33   C     C_R   0.187973 0.663589 0.325267 0.032944
C34   C     C_3   0.671909 0.649225 0.675558 0.075205
C35   C     C_R   0.701909 0.103998 0.896634 0.539875
C36   C     C_R   0.725352 0.689486 0.887269 0.547701
C37   C     C_R   0.119711 0.705879 0.905684 0.575715
C38   C     C_R   0.674724 0.108256 0.103947 0.550899
C39   C     C_R   0.728128 0.715236 0.105940 0.571655
C40   C     C_R   0.645371 0.626431 0.394239 0.544266
C41   C     C_R   0.096320 0.706270 0.111219 0.570282
C42   C     C_R   0.580175 0.295202 0.388437 0.555735
C43   C     C_3   0.591055 0.821205 0.778259 -0.229096
C44   C     C_3   0.569617 0.804074 0.698905 -0.216140
C45   C     C_3   0.825658 0.613966 0.690336 0.223328
C46   C     C_3   0.843849 0.626537 0.770327 -0.172864
C47   C     C_3   0.638200 0.548581 0.720696 -0.277178
C48   C     C_R   0.789306 0.137909 0.708183 -0.131214
C49   C     C_R   0.806844 0.119220 0.781626 -0.139871
C50   C     C_R   0.687884 0.163707 0.825970 0.008285
Cr1   Cr    Cr6+3 0.392930 0.397900 0.502230 1.017847
Cr2   Cr    Cr6+3 0.398240 0.708600 0.501260 1.033964
Cr3   Cr    Cr6+3 0.708800 0.393470 0.496460 1.024559
Cr4   Cr    Cr6+3 0.937620 0.938540 0.007640 1.058585
Cr5   Cr    Cr6+3 0.625150 0.937450 0.994520 1.026628
Cr6   Cr    Cr6+3 0.937990 0.625080 0.001190 1.070251
F1    F     F_    0.171744 0.453757 0.830782 -0.657695
F2    F     F_    0.857355 0.704944 0.652806 -0.655109
H1    H     H_    0.627337 0.900155 0.784124 0.159141
H2    H     H_    0.488486 0.863948 0.806686 0.128274
H3    H     H_    0.225229 0.846363 0.696351 0.141128
H4    H     H_    0.675342 0.461705 0.287649 0.125165
H5    H     H_    0.670715 0.900794 0.211897 0.123943
H6    H     H_    0.639674 0.864179 0.338796 0.138224
H7    H     H_    0.381628 0.366660 0.290010 0.154308
H8    H     H_    0.830841 0.146143 0.323392 0.152284
H9    H     H_    0.458089 0.831183 0.690444 0.117259
H10   H     H_    0.034896 0.556443 0.203241 0.167981
H11   H     H_    0.588464 0.879403 0.666789 0.178523
H12   H     H_    0.711823 0.436232 0.706142 0.136392
H13   H     H_    0.882847 0.702418 0.779736 0.167721
H14   H     H_    0.729578 0.463511 0.824168 0.145526
H15   H     H_    0.549055 0.603971 0.827498 0.129759
H16   H     H_    0.529153 0.569709 0.709654 0.132291
H17   H     H_    0.315232 0.825244 0.864072 0.232994
H18   H     H_    0.235076 0.944315 0.798859 0.216546
H19   H     H_    0.785841 0.377818 0.161798 0.243715
H20   H     H_    0.607681 0.464658 0.154967 0.226888
H21   H     H_    0.403580 0.356085 0.107883 0.245402
H22   H     H_    0.369816 0.229631 0.141937 0.264105
H23   H     H_    0.925197 0.520967 0.790292 0.168942
H24   H     H_    0.953127 0.958032 0.229354 0.229158
H25   H     H_    0.963607 0.102963 0.205523 0.219563
H26   H     H_    0.229433 0.921806 0.291634 0.220319
H27   H     H_    0.396018 0.784569 0.284459 0.235882
H28   H     H_    0.409235 0.720227 0.167616 0.238813
H29   H     H_    0.259869 0.881383 0.168785 0.240026
H30   H     H_    0.991525 0.607318 0.379914 0.245226
H31   H     H_    0.133408 0.443605 0.365244 0.257668
H32   H     H_    0.901778 0.503756 0.673303 0.140863
H33   H     H_    0.880969 0.103408 0.674059 0.133883
H34   H     H_    0.912657 0.062893 0.803098 0.164324
H35   H     H_    0.459314 0.269706 0.830180 0.189496
H36   H     H_    0.429678 0.296330 0.703882 0.145461
H37   H     H_    0.188704 0.468833 0.694511 0.148636
N1    N     N_3   0.222587 0.876950 0.834305 -0.593863
N2    N     N_3   0.697559 0.475205 0.149298 -0.584171
N3    N     N_3   0.386486 0.313811 0.154423 -0.629263
N4    N     N_3   0.908440 0.048293 0.197140 -0.573607
N5    N     N_3   0.297177 0.816826 0.306783 -0.574853
N6    N     N_3   0.300613 0.773351 0.158949 -0.596989
N7    N     N_3   0.053611 0.534278 0.340872 -0.617885
O1    O     O_R   0.507430 0.255570 0.581420 -0.519631
O2    O     O_R   0.837200 0.593290 0.915250 -0.490177
O3    O     O_R   0.065330 0.635370 0.931590 -0.446459
O4    O     O_R   0.280190 0.527390 0.578910 -0.502958
O5    O     O_R   0.068300 0.828790 0.091860 -0.466352
O6    O     O_R   0.798730 0.057480 0.079370 -0.461289
O7    O     O_R   0.584680 0.080480 0.076790 -0.542369
O8    O     O_R   0.626790 0.809640 0.067050 -0.491733
O9    O     O_R   0.816010 0.596460 0.076500 -0.475379
O10   O     O_R   0.045680 0.638310 0.081070 -0.540633
O11   O     O_3   0.833590 0.833690 0.001120 -0.296629
O12   O     O_R   0.524460 0.695920 0.424060 -0.485076
O13   O     O_R   0.260310 0.739740 0.584580 -0.527709
O14   O     O_R   0.532250 0.695150 0.573830 -0.516825
O15   O     O_R   0.744930 0.503430 0.576380 -0.523957
O16   O     O_R   0.699250 0.276390 0.571950 -0.502474
O17   O     O_R   0.499020 0.256400 0.419850 -0.507013
O18   O     O_R   0.272400 0.528160 0.429140 -0.534726
O19   O     O_R   0.251910 0.740570 0.423020 -0.465815
O20   O     O_R   0.736530 0.504260 0.414810 -0.514468
O21   O     O_R   0.691460 0.277160 0.422180 -0.503413
O22   O     O_3   0.499990 0.499990 0.499980 -0.282557
O23   O     O_R   0.089490 0.825610 0.930610 -0.488604
O24   O     O_R   0.818370 0.054540 0.929880 -0.498116
O25   O     O_R   0.605870 0.077310 0.915530 -0.517063
O26   O     O_R   0.646440 0.806700 0.917570 -0.503733

loop_
_geom_bond_atom_site_label_1
_geom_bond_atom_site_label_2
_ccdc_geom_bond_type
H31   N7    S    
C27   C29   A    
C24   N4    S    
H24   N4    S    
H21   N3    S    
C1    C11   S    
C7    C8    A    
C45   C46   S    
C27   C33   A    
Cr4   O24   S    
C12   C23   S    
Cr4   O5    S    
C21   C22   A    
Cr3   O20   S    
C30   C31   A    
Cr3   O15   S    
C42   O17   A    
Cr1   O1    S    
C22   C38   S    
Cr4   O11   S    
C23   C43   S    
C18   C19   A    
C5    C16   S    
C2    C50   A    
H29   N6    S    
C39   O8    A    
C40   O12   A    
C13   H4    S    
C8    C9    A    
C41   O10   A    
H17   N1    S    
Cr1   O17   S    
Cr6   O11   S    
C30   C41   S    
H19   N2    S    
C9    C10   A    
Cr6   O9    S    
C43   H1    S    
C1    O4    A    
C39   O9    A    
C12   H14   S    
C23   C46   S    
H25   N4    S    
C13   C14   A    
Cr5   O7    S    
Cr1   O22   S    
C36   O26   A    
C35   C50   S    
C12   C47   S    
Cr4   O23   S    
C42   O21   A    
C17   C18   A    
C37   O23   A    
Cr2   O14   S    
C31   H10   S    
C45   F2    S    
C5    C48   A    
C4    C34   S    
C27   N5    S    
C13   C19   A    
H26   N5    S    
C20   H7    S    
C34   C44   S    
C24   C25   A    
Cr6   O2    S    
Cr3   O21   S    
C6    C11   A    
Cr3   O16   S    
Cr5   O11   S    
C25   C26   A    
C48   H33   S    
C35   O24   A    
C43   C44   S    
C47   H12   S    
C37   O3    A    
C29   C30   A    
C16   O16   A    
C46   H23   S    
Cr2   O19   S    
C16   O1    A    
C31   C32   A    
H20   N2    S    
Cr1   O18   S    
C29   N6    S    
C44   H11   S    
C34   C45   S    
Cr5   O26   S    
C38   O7    A    
C35   O25   A    
C45   H32   S    
C9    N1    S    
C15   C39   S    
C46   H13   S    
C43   H2    S    
C48   C49   A    
Cr5   O25   S    
C28   C33   S    
C49   C50   A    
C10   C11   A    
Cr5   O8    S    
C28   O18   A    
C32   N7    S    
C4    O15   A    
C10   H3    S    
C8    C37   S    
C49   H34   S    
C26   C42   S    
C14   N2    S    
Cr2   O13   S    
C15   C17   A    
C41   O5    A    
H22   N3    S    
C28   O19   A    
C4    O14   A    
C2    H35   S    
C25   H8    S    
C47   H16   S    
C3    C5    A    
Cr3   O22   S    
H30   N7    S    
C6    C7    A    
C23   C36   S    
Cr2   O12   S    
C40   O20   A    
Cr4   O6    S    
C36   O2    A    
C32   C33   A    
C2    C3    A    
H27   N5    S    
C17   H5    S    
C21   N3    S    
Cr2   O22   S    
C18   H6    S    
C20   C26   A    
Cr1   O4    S    
Cr6   O10   S    
C3    H36   S    
C22   C24   A    
C38   O6    A    
Cr6   O3    S    
C19   C40   S    
C20   C21   A    
C6    H37   S    
C14   C15   A    
C44   H9    S    
C34   C47   S    
C1    O13   A    
C12   H15   S    
H28   N6    S    
C7    F1    S    
H18   N1    S    
