data_mof_unit_38264.cif
_audit_creation_date              2012-12-11T14:01:31-0500
_audit_creation_method            fapswitch 2.2
_symmetry_space_group_name_H-M    P1
_symmetry_Int_Tables_number       1
_space_group_crystal_system       triclinic
_cell_length_a                    19.179089
_cell_length_b                    10.894663
_cell_length_c                    18.703719
_cell_angle_alpha                 90.601784
_cell_angle_beta                  89.679415
_cell_angle_gamma                 90.050907
_cell_volume                      3907.85860573

loop_
_atom_site_label
_atom_site_type_symbol
_atom_type_description
_atom_site_fract_x
_atom_site_fract_y
_atom_site_fract_z
_atom_type_partial_charge
C1    C     C_R   0.272496 0.042906 0.853463 0.564143
C2    C     C_R   0.727735 0.042889 0.146885 0.562530
C3    C     C_R   0.772496 0.542907 0.853462 0.564061
C4    C     C_R   0.227736 0.542890 0.146885 0.553911
C5    C     C_R   0.446798 0.027718 0.086561 0.152389
C6    C     C_R   0.478006 0.071768 0.941729 0.171265
C7    C     C_R   0.946804 0.527732 0.086557 0.152038
C8    C     C_R   0.978010 0.571771 0.941725 0.171295
C9    C     C_R   0.936447 0.643578 0.057483 -0.148700
C10   C     C_R   0.952916 0.665704 0.986654 -0.147710
C11   C     C_R   0.436442 0.143567 0.057489 -0.148407
C12   C     C_R   0.452912 0.165697 0.986661 -0.147694
C13   C     C_2   0.250416 0.582146 0.921586 -0.117471
C14   C     C_2   0.750527 0.578717 0.079063 -0.119555
C15   C     C_2   0.750413 0.082136 0.921582 -0.117653
C16   C     C_2   0.250528 0.078709 0.079064 -0.119188
C17   C     C_2   0.251280 0.589387 0.078289 -0.112645
C18   C     C_2   0.749636 0.587369 0.923179 -0.108733
C19   C     C_2   0.751277 0.089376 0.078285 -0.112733
C20   C     C_2   0.249637 0.087365 0.923181 -0.108710
C21   C     C_2   0.296463 0.524438 0.037960 -0.163751
C22   C     C_2   0.705223 0.519713 0.962361 -0.168346
C23   C     C_2   0.796455 0.024418 0.037955 -0.164595
C24   C     C_2   0.205225 0.019708 0.962362 -0.168360
C25   C     C_2   0.305079 0.549409 0.961730 -0.161096
C26   C     C_2   0.696693 0.541310 0.039083 -0.168087
C27   C     C_2   0.805073 0.049389 0.961725 -0.161017
C28   C     C_2   0.196694 0.041305 0.039084 -0.168334
C29   C     C_2   0.437983 0.825213 0.563458 -0.126394
C30   C     C_2   0.488862 0.837106 0.416977 -0.099595
C31   C     C_2   0.938154 0.326262 0.563791 -0.126436
C32   C     C_2   0.990967 0.337336 0.418137 -0.100186
C33   C     C_2   0.446688 0.747372 0.440230 0.079445
C34   C     C_2   0.438069 0.727926 0.517863 0.081460
C35   C     C_2   0.945488 0.252415 0.440676 0.082011
C36   C     C_2   0.938298 0.229953 0.517817 0.082742
C37   C     C_2   0.243341 0.557502 0.586699 -0.123359
C38   C     C_2   0.752617 0.567033 0.417193 -0.125883
C39   C     C_2   0.744982 0.061628 0.583801 -0.120178
C40   C     C_2   0.252104 0.067011 0.417253 -0.128928
C41   C     C_2   0.233037 0.561418 0.431685 -0.053132
C42   C     C_2   0.786733 0.498844 0.563137 -0.090010
C43   C     C_2   0.712815 0.995040 0.435958 -0.050528
C44   C     C_2   0.286778 0.998437 0.563051 -0.092147
C45   C     C_R   0.470952 0.824604 0.853537 0.568636
C46   C     C_R   0.529705 0.820607 0.146366 0.579127
C47   C     C_R   0.970952 0.324605 0.853537 0.568738
C48   C     C_R   0.029704 0.320608 0.146366 0.577336
C49   C     C_2   0.177830 0.583833 0.475457 0.099223
C50   C     C_2   0.828280 0.567173 0.520549 0.094749
C51   C     C_2   0.667181 0.051247 0.480303 0.091991
C52   C     C_2   0.328104 0.066440 0.519984 0.097546
C53   C     C_2   0.183865 0.581209 0.553034 -0.151060
C54   C     C_2   0.817207 0.562938 0.442945 -0.133916
C55   C     C_2   0.680260 0.060427 0.557447 -0.149913
C56   C     C_2   0.316728 0.059966 0.442417 -0.137219
C57   C     C_R   0.261291 0.637014 0.851748 0.547924
C58   C     C_R   0.738827 0.636048 0.148435 0.542517
C59   C     C_R   0.761289 0.137009 0.851745 0.548766
C60   C     C_R   0.238827 0.136046 0.148435 0.540188
C61   C     C_R   0.292731 0.994564 0.640744 0.559872
C62   C     C_R   0.706416 0.992632 0.358451 0.603344
C63   C     C_R   0.792731 0.494524 0.640768 0.560257
C64   C     C_R   0.223133 0.537310 0.356058 0.588043
C65   C     C_R   0.434044 0.817671 0.641220 0.574508
C66   C     C_R   0.527006 0.824753 0.350391 0.569690
C67   C     C_R   0.934090 0.317797 0.641309 0.573746
C68   C     C_R   0.026976 0.324819 0.350398 0.576185
C69   C     C_R   0.259341 0.631064 0.649043 0.548262
C70   C     C_R   0.739766 0.633668 0.352281 0.537875
C71   C     C_R   0.759927 0.133010 0.647606 0.544294
C72   C     C_R   0.239697 0.133622 0.352267 0.547054
C73   C     C_R   0.503367 0.824251 0.073705 0.016840
C74   C     C_R   0.499962 0.841846 0.925248 0.000237
C75   C     C_R   0.003366 0.324255 0.073704 0.017515
C76   C     C_R   0.999963 0.341848 0.925248 0.000215
C77   C     C_R   0.478073 0.933550 0.043680 0.013526
C78   C     C_R   0.485649 0.949570 0.968638 0.018154
C79   C     C_R   0.978076 0.433558 0.043678 0.013712
C80   C     C_R   0.985652 0.449574 0.968636 0.018156
C81   C     C_R   0.521717 0.733906 0.957191 -0.171239
C82   C     C_R   0.522925 0.724989 0.029880 -0.160872
C83   C     C_R   0.021716 0.233907 0.957191 -0.171267
C84   C     C_R   0.022922 0.224992 0.029880 -0.160630
Cr1   Cr    Cr6+3 0.230530 0.836340 0.748870 1.006274
Cr2   Cr    Cr6+3 0.769470 0.836340 0.251130 1.026158
Cr3   Cr    Cr6+3 0.730530 0.336340 0.748870 1.006598
Cr4   Cr    Cr6+3 0.269470 0.336340 0.251130 1.033144
Cr5   Cr    Cr6+3 0.387420 0.989430 0.750820 1.034042
Cr6   Cr    Cr6+3 0.612580 0.989430 0.249180 1.040538
Cr7   Cr    Cr6+3 0.887420 0.489430 0.750820 1.034828
Cr8   Cr    Cr6+3 0.112580 0.489430 0.249180 1.044610
Cr9   Cr    Cr6+3 0.385640 0.677860 0.749230 1.039580
Cr10  Cr    Cr6+3 0.614360 0.677860 0.250770 1.034909
Cr11  Cr    Cr6+3 0.885640 0.177860 0.749230 1.039374
Cr12  Cr    Cr6+3 0.114360 0.177860 0.250770 1.036835
H1    H     H_    0.534684 0.652837 0.925714 0.141824
H2    H     H_    0.541463 0.639546 0.051706 0.140101
H3    H     H_    0.034682 0.152838 0.925715 0.141782
H4    H     H_    0.041458 0.139547 0.051707 0.139951
H5    H     H_    0.140936 0.624645 0.581911 0.161974
H6    H     H_    0.860444 0.585795 0.407836 0.152631
H7    H     H_    0.637247 0.094111 0.590299 0.158164
H8    H     H_    0.359920 0.079532 0.406595 0.149447
H9    H     H_    0.283633 0.538654 0.452612 0.111758
H10   H     H_    0.749410 0.435321 0.539607 0.075449
H11   H     H_    0.756156 0.943145 0.457071 0.090368
H12   H     H_    0.249495 0.934570 0.539724 0.077050
H13   H     H_    0.284819 0.503720 0.562776 0.130371
H14   H     H_    0.707399 0.545501 0.449957 0.108197
H15   H     H_    0.789356 0.029599 0.553202 0.138653
H16   H     H_    0.206886 0.048313 0.450651 0.109990
H17   H     H_    0.914819 0.717342 0.089905 0.126004
H18   H     H_    0.946466 0.757833 0.966486 0.104306
H19   H     H_    0.414815 0.217330 0.089913 0.126355
H20   H     H_    0.446462 0.257828 0.966494 0.104377
H21   H     H_    0.325816 0.448594 0.060015 0.151139
H22   H     H_    0.676183 0.443937 0.938794 0.152488
H23   H     H_    0.825806 0.948570 0.060010 0.150829
H24   H     H_    0.176185 0.943933 0.938794 0.152412
H25   H     H_    0.357311 0.543048 0.939234 0.156444
H26   H     H_    0.645223 0.528874 0.062187 0.146704
H27   H     H_    0.857306 0.043022 0.939230 0.156444
H28   H     H_    0.145223 0.028875 0.062187 0.146333
H29   H     H_    0.223772 0.667415 0.056229 0.109004
H30   H     H_    0.776963 0.665335 0.946561 0.109183
H31   H     H_    0.723771 0.167407 0.056225 0.108999
H32   H     H_    0.276964 0.165330 0.946563 0.109187
H33   H     H_    0.198480 0.584602 0.944706 0.096340
H34   H     H_    0.802224 0.584540 0.055963 0.125247
H35   H     H_    0.698476 0.084597 0.944702 0.096185
H36   H     H_    0.302225 0.084528 0.055965 0.125410
H37   H     H_    0.508409 0.907448 0.452803 0.067415
H38   H     H_    0.437292 0.917380 0.542493 0.096305
H39   H     H_    0.014924 0.400997 0.455463 0.066507
H40   H     H_    0.937387 0.418553 0.542949 0.097309
O1    O     O_R   0.215090 0.709860 0.828130 -0.538708
O2    O     O_R   0.784910 0.709860 0.171870 -0.529614
O3    O     O_R   0.715090 0.209860 0.828130 -0.538309
O4    O     O_R   0.284910 0.209860 0.171870 -0.529957
O5    O     O_R   0.445660 0.919250 0.676780 -0.504833
O6    O     O_R   0.554340 0.919250 0.323220 -0.510969
O7    O     O_R   0.945660 0.419250 0.676780 -0.504065
O8    O     O_R   0.054340 0.419250 0.323220 -0.495173
O9    O     O_R   0.456260 0.718170 0.670000 -0.456823
O10   O     O_R   0.543740 0.718170 0.330000 -0.467295
O11   O     O_R   0.956260 0.218170 0.670000 -0.457907
O12   O     O_R   0.043740 0.218170 0.330000 -0.471419
O13   O     O_R   0.320940 0.626760 0.674370 -0.493701
O14   O     O_R   0.679060 0.626760 0.325630 -0.496755
O15   O     O_R   0.820940 0.126760 0.674370 -0.494430
O16   O     O_R   0.179060 0.126760 0.325630 -0.497457
O17   O     O_3   0.334530 0.834540 0.749640 -0.303693
O18   O     O_3   0.665470 0.834540 0.250360 -0.289080
O19   O     O_3   0.834530 0.334540 0.749640 -0.304442
O20   O     O_3   0.165470 0.334540 0.250360 -0.263116
O21   O     O_R   0.236990 0.958390 0.823710 -0.490412
O22   O     O_R   0.763010 0.958390 0.176290 -0.487317
O23   O     O_R   0.736990 0.458390 0.823710 -0.490470
O24   O     O_R   0.263010 0.458390 0.176290 -0.490361
O25   O     O_R   0.332380 0.074750 0.830850 -0.507941
O26   O     O_R   0.667620 0.074750 0.169150 -0.511372
O27   O     O_R   0.832380 0.574750 0.830850 -0.508046
O28   O     O_R   0.167620 0.574750 0.169150 -0.515330
O29   O     O_R   0.445800 0.917770 0.825070 -0.457362
O30   O     O_R   0.554200 0.917770 0.174930 -0.469933
O31   O     O_R   0.945800 0.417770 0.825070 -0.457366
O32   O     O_R   0.054200 0.417770 0.174930 -0.470711
O33   O     O_R   0.456410 0.716580 0.829970 -0.523229
O34   O     O_R   0.543590 0.716580 0.170030 -0.529872
O35   O     O_R   0.956410 0.216580 0.829970 -0.523376
O36   O     O_R   0.043590 0.216580 0.170030 -0.532953
O37   O     O_R   0.321080 0.625290 0.822650 -0.493148
O38   O     O_R   0.678920 0.625290 0.177350 -0.497644
O39   O     O_R   0.821080 0.125290 0.822650 -0.492548
O40   O     O_R   0.178920 0.125290 0.177350 -0.501632
O41   O     O_R   0.214930 0.711450 0.668160 -0.529238
O42   O     O_R   0.785070 0.711450 0.331840 -0.522816
O43   O     O_R   0.714930 0.211450 0.668160 -0.526673
O44   O     O_R   0.285070 0.211450 0.331840 -0.510207
O45   O     O_R   0.236850 0.959870 0.675420 -0.487752
O46   O     O_R   0.763150 0.959870 0.324580 -0.472945
O47   O     O_R   0.736850 0.459870 0.675420 -0.488940
O48   O     O_R   0.263150 0.459870 0.324580 -0.477477
O49   O     O_R   0.332230 0.076350 0.670880 -0.497788
O50   O     O_R   0.667770 0.076350 0.329120 -0.475745
O51   O     O_R   0.832230 0.576350 0.670880 -0.493872
O52   O     O_R   0.167770 0.576350 0.329120 -0.480075
N1    N     N_2   0.111949 0.620832 0.448290 -0.472859
H41   H     H_    0.071076 0.585992 0.477470 0.230071
C85   C     C_3   0.105545 0.752070 0.438553 -0.272120
H42   H     H_    0.055209 0.772458 0.412199 0.150729
H43   H     H_    0.148408 0.786971 0.404059 0.171117
H44   H     H_    0.106982 0.800639 0.491099 0.138837
N2    N     N_2   0.876889 0.653850 0.549987 -0.476903
H45   H     H_    0.853253 0.724849 0.577832 0.288547
C86   C     C_3   0.933753 0.695619 0.505469 -0.303293
H46   H     H_    0.973912 0.740131 0.539489 0.172283
H47   H     H_    0.914628 0.763290 0.466105 0.175421
H48   H     H_    0.957889 0.616780 0.476978 0.127346
N3    N     N_2   0.607159 0.111730 0.453804 -0.482850
H49   H     H_    0.563780 0.089090 0.483252 0.229826
C87   C     C_3   0.614683 0.243719 0.448910 -0.264962
H50   H     H_    0.568077 0.282638 0.422502 0.154616
H51   H     H_    0.661512 0.267859 0.416722 0.184792
H52   H     H_    0.619381 0.285665 0.503126 0.139197
N4    N     N_2   0.376595 0.154298 0.548613 -0.480538
H53   H     H_    0.353105 0.221702 0.579467 0.290517
C88   C     C_3   0.429095 0.204706 0.501552 -0.300720
H54   H     H_    0.469772 0.251404 0.533883 0.174503
H55   H     H_    0.405223 0.272246 0.464913 0.183979
H56   H     H_    0.454180 0.130574 0.469880 0.130060
N5    N     N_2   0.423775 0.006660 0.158265 -0.501509
H57   H     H_    0.415926 0.083686 0.189850 0.258865
C89   C     C_3   0.372968 0.909713 0.169388 -0.290648
H58   H     H_    0.394816 0.840801 0.206314 0.171695
H59   H     H_    0.358203 0.863053 0.118501 0.142881
H60   H     H_    0.325068 0.947894 0.194561 0.139408
N6    N     N_2   0.500732 0.105815 0.872121 -0.476831
H61   H     H_    0.477379 0.183598 0.852277 0.243581
C90   C     C_3   0.575133 0.105907 0.861700 -0.281517
H62   H     H_    0.587075 0.125722 0.804822 0.167539
H63   H     H_    0.597553 0.014858 0.874450 0.145412
H64   H     H_    0.598770 0.178264 0.896120 0.144784
N7    N     N_2   0.923779 0.506676 0.158259 -0.502981
H65   H     H_    0.915935 0.583705 0.189844 0.258489
C91   C     C_3   0.872951 0.409756 0.169369 -0.287658
H66   H     H_    0.894807 0.340772 0.206241 0.174160
H67   H     H_    0.858139 0.363185 0.118471 0.142665
H68   H     H_    0.825080 0.447939 0.194600 0.142824
N8    N     N_2   0.000737 0.605815 0.872117 -0.476820
H69   H     H_    0.977384 0.683596 0.852271 0.243533
C92   C     C_3   0.075139 0.605909 0.861700 -0.281460
H70   H     H_    0.087083 0.625712 0.804824 0.167791
H71   H     H_    0.097562 0.514868 0.874457 0.145456
H72   H     H_    0.098773 0.678273 0.896116 0.144683
I1    I     I_    0.403043 0.618046 0.365995 -0.374474
I2    I     I_    0.440803 0.540158 0.550585 -0.392713
I3    I     I_    0.890922 0.137735 0.366925 -0.341640
I4    I     I_    0.943983 0.041340 0.548176 -0.386176

loop_
_geom_bond_atom_site_label_1
_geom_bond_atom_site_label_2
_ccdc_geom_bond_type
Cr10  O10   S    
C87   H50   S    
C38   C70   S    
C16   C28   D    
Cr5   O25   S    
C37   C69   S    
C52   N4    S    
N3    C87   S    
N3    H49   S    
Cr9   O13   S    
C35   C36   S    
C70   O14   A    
C67   O7    A    
C2    O26   A    
C81   C82   A    
C40   H16   S    
Cr12  O20   S    
C77   C78   A    
C31   C67   S    
C87   H51   S    
Cr9   O33   S    
C50   C54   S    
C75   C79   A    
C41   H9    S    
Cr6   O26   S    
Cr4   O20   S    
Cr7   O31   S    
C47   C76   S    
C5    C11   A    
C90   H64   S    
C59   O39   A    
C17   H29   S    
C89   H59   S    
C23   H23   S    
C8    N8    S    
Cr5   O5    S    
C75   C84   A    
Cr4   O48   S    
C15   H35   S    
C49   N1    S    
C13   H33   S    
Cr12  O16   S    
C55   H7    S    
Cr2   O42   S    
C88   H56   S    
C65   O5    A    
C3    C18   S    
C7    C9    A    
C16   C60   S    
C71   O43   A    
C86   H47   S    
Cr11  O39   S    
Cr4   O4    S    
C21   H21   S    
C81   H1    S    
C69   O41   A    
C48   O36   A    
Cr5   O17   S    
C26   H26   S    
C71   O15   A    
C83   C84   A    
C53   H5    S    
C72   O16   A    
C48   O32   A    
C4    O28   A    
Cr9   O9    S    
C23   C27   S    
C38   H14   S    
C12   H20   S    
C11   H19   S    
C9    C10   A    
C37   H13   S    
C36   I4    S    
C10   H18   S    
C3    O27   A    
C62   O50   A    
C37   C53   D    
Cr8   O28   S    
C39   H15   S    
C29   H38   S    
C1    O25   A    
C83   H3    S    
Cr6   O30   S    
C3    O23   A    
C82   H2    S    
C48   C75   S    
Cr7   O27   S    
C58   O38   A    
Cr1   O21   S    
Cr12  O12   S    
C76   C83   A    
C41   C49   D    
C30   C66   S    
Cr2   O2    S    
Cr4   O44   S    
Cr7   O7    S    
N4    H53   S    
C44   H12   S    
C14   C58   S    
C87   H52   S    
C39   C55   D    
C24   H24   S    
C63   O47   A    
C85   H42   S    
C84   H4    S    
C32   C35   D    
C24   C28   S    
Cr11  O11   S    
C56   H8    S    
C88   H54   S    
C21   C25   S    
Cr12  O36   S    
C89   H60   S    
Cr3   O3    S    
N6    H61   S    
C51   N3    S    
C27   H27   S    
C70   O42   A    
Cr1   O17   S    
N2    H45   S    
C7    N7    S    
C51   C55   S    
C40   C56   D    
C39   C71   S    
N5    H57   S    
C29   C34   D    
C17   C21   D    
C46   O34   A    
C45   O33   A    
C45   C74   S    
C64   O48   A    
C86   H48   S    
C19   C23   D    
C89   H58   S    
C85   H43   S    
Cr7   O19   S    
C90   H62   S    
N6    C90   S    
C47   O31   A    
C50   N2    S    
Cr8   O32   S    
C15   C27   D    
C91   H66   S    
C38   C54   D    
C59   O3    A    
Cr10  O18   S    
C30   H37   S    
C5    N5    S    
C61   O49   A    
N7    H65   S    
C57   O1    A    
Cr8   O20   S    
C43   H11   S    
C14   C26   D    
C92   H71   S    
Cr5   O29   S    
C64   O52   A    
C2    O22   A    
C42   C50   D    
C35   I3    S    
C57   O37   A    
C4    C17   S    
C8    C10   A    
C91   H67   S    
C60   O4    A    
Cr2   O22   S    
C63   O51   A    
N8    C92   S    
C74   C78   A    
C60   O40   A    
C29   C65   S    
Cr11  O15   S    
C72   O44   A    
C74   C81   A    
C5    C77   A    
Cr3   O23   S    
C6    C12   A    
Cr1   O1    S    
C73   C82   A    
C66   O10   A    
C7    C79   A    
C14   H34   S    
C34   I2    S    
Cr2   O46   S    
N1    H41   S    
C22   H22   S    
Cr7   O51   S    
C88   H55   S    
C1    C20   S    
Cr1   O45   S    
C40   C72   S    
C30   C33   D    
C2    C19   S    
C18   C22   D    
Cr5   O49   S    
C62   O46   A    
C54   H6    S    
C76   C80   A    
N4    C88   S    
C31   H40   S    
C13   C25   D    
C68   O12   A    
C44   C52   D    
Cr12  O40   S    
C32   H39   S    
C47   O35   A    
C11   C12   A    
C28   H28   S    
C16   H36   S    
C20   H32   S    
C66   O6    A    
Cr3   O19   S    
C44   C61   S    
Cr6   O6    S    
Cr6   O50   S    
C6    C78   A    
C61   O45   A    
C32   C68   S    
C69   O13   A    
C1    O21   A    
Cr2   O18   S    
N5    C89   S    
C9    H17   S    
C90   H63   S    
Cr10  O34   S    
Cr3   O47   S    
C58   O2    A    
Cr6   O18   S    
C4    O24   A    
C45   O29   A    
C43   C51   D    
C49   C53   S    
C65   O9    A    
Cr9   O37   S    
N7    C91   S    
C33   C34   S    
C68   O8    A    
Cr11  O19   S    
Cr4   O24   S    
C86   H46   S    
Cr8   O8    S    
C92   H72   S    
C15   C59   S    
C85   H44   S    
C33   I1    S    
C46   O30   A    
Cr3   O43   S    
C79   C80   A    
C42   H10   S    
Cr9   O17   S    
Cr10  O14   S    
C91   H68   S    
C13   C57   S    
C6    N6    S    
C43   C62   S    
Cr1   O41   S    
C22   C26   S    
C67   O11   A    
Cr10  O38   S    
N8    H69   S    
C8    C80   A    
C73   C77   A    
C31   C36   D    
C19   H31   S    
C41   C64   S    
Cr11  O35   S    
C25   H25   S    
C42   C63   S    
C20   C24   D    
C46   C73   S    
C18   H30   S    
Cr8   O52   S    
C52   C56   S    
C92   H70   S    
N1    C85   S    
N2    C86   S    
