data_mof_unit_10779.cif
_audit_creation_date              2012-12-11T14:28:28-0500
_audit_creation_method            fapswitch 2.2
_symmetry_space_group_name_H-M    P1
_symmetry_Int_Tables_number       1
_space_group_crystal_system       triclinic
_cell_length_a                    10.864667
_cell_length_b                    19.19072
_cell_length_c                    18.729065
_cell_angle_alpha                 89.994554
_cell_angle_beta                  90.149444
_cell_angle_gamma                 89.978522
_cell_volume                      3905.01112841

loop_
_atom_site_label
_atom_site_type_symbol
_atom_type_description
_atom_site_fract_x
_atom_site_fract_y
_atom_site_fract_z
_atom_type_partial_charge
C1    C     C_R   0.315538 0.940130 0.637834 0.547800
C2    C     C_3   0.212864 0.758756 0.049014 -0.140672
C3    C     C_3   0.088316 0.185896 0.965773 -0.126785
C4    C     C_3   0.588302 0.314096 0.465733 -0.127696
C5    C     C_3   0.533757 0.306690 0.023734 -0.112839
C6    C     C_3   0.534206 0.693076 0.523861 -0.117024
C7    C     C_3   0.588742 0.685930 0.965760 -0.127491
C8    C     C_3   0.201805 0.786138 0.507222 -0.125576
C9    C     C_3   0.169095 0.818281 0.999502 -0.150460
C10   C     C_3   0.168747 0.181468 0.499382 -0.149778
C11   C     C_3   0.201796 0.213836 0.007253 -0.124341
C12   C     C_3   0.701806 0.286137 0.507223 -0.125516
C13   C     C_3   0.212938 0.240806 0.549003 -0.140800
C14   C     C_3   0.668300 0.318362 0.999341 -0.145026
C15   C     C_3   0.668745 0.681467 0.499382 -0.150018
C16   C     C_3   0.701935 0.714111 0.007334 -0.125496
C17   C     C_3   0.113978 0.756374 0.564124 0.043627
C18   C     C_3   0.148560 0.764745 0.939620 0.047632
C19   C     C_3   0.148563 0.235177 0.439602 0.047750
C20   C     C_3   0.113955 0.243641 0.064138 0.042916
C21   C     C_3   0.613978 0.256374 0.564124 0.044083
C22   C     C_3   0.648341 0.264688 0.939542 0.043504
C23   C     C_3   0.648563 0.735177 0.439602 0.047899
C24   C     C_3   0.193309 0.283629 0.966426 -0.121204
C25   C     C_3   0.613771 0.743717 0.064166 0.043786
C26   C     C_3   0.001900 0.784800 0.524228 -0.139350
C27   C     C_3   0.015212 0.753463 0.963028 -0.116072
C28   C     C_3   0.015297 0.246760 0.463028 -0.116325
C29   C     C_3   0.001894 0.215226 0.024257 -0.140054
C30   C     C_3   0.501901 0.284801 0.524227 -0.139394
C31   C     C_3   0.515070 0.253019 0.962878 -0.125904
C32   C     C_3   0.515298 0.746760 0.463029 -0.116199
C33   C     C_3   0.501996 0.715064 0.024175 -0.138821
C34   C     C_3   0.994263 0.714863 0.483967 -0.099415
C35   C     C_3   0.693358 0.216339 0.466426 -0.121924
C36   C     C_3   0.059745 0.694292 0.012094 -0.096695
C37   C     C_3   0.060232 0.305726 0.512184 -0.096995
C38   C     C_3   0.994203 0.285154 0.983968 -0.099492
C39   C     C_3   0.494264 0.214864 0.483966 -0.099358
C40   C     C_3   0.560054 0.194017 0.012037 -0.109817
C41   C     C_3   0.560235 0.805726 0.512185 -0.096804
C42   C     C_3   0.493968 0.784976 0.983883 -0.099991
C43   C     C_3   0.107397 0.687134 0.524134 -0.108686
C44   C     C_3   0.193530 0.705409 0.988129 -0.093059
C45   C     C_3   0.193934 0.294308 0.488201 -0.094012
C46   C     C_3   0.712561 0.259018 0.048945 -0.134931
C47   C     C_3   0.107325 0.312869 0.024119 -0.109473
C48   C     C_3   0.607396 0.187134 0.524133 -0.108510
C49   C     C_3   0.693779 0.205535 0.988123 -0.105254
C50   C     C_3   0.693936 0.794307 0.488202 -0.093734
C51   C     C_3   0.606774 0.812943 0.024141 -0.108801
C52   C     C_3   0.712938 0.740803 0.549003 -0.141111
C53   C     C_3   0.693089 0.783895 0.966511 -0.121161
C54   C     C_3   0.080590 0.744702 0.426991 0.061624
C55   C     C_3   0.080153 0.747691 0.071913 0.054057
C56   C     C_3   0.080289 0.252195 0.571934 0.054247
C57   C     C_R   0.317879 0.966363 0.854394 0.584886
C58   C     C_3   0.080555 0.255285 0.927003 0.062133
C59   C     C_3   0.580592 0.244703 0.426991 0.061577
C60   C     C_3   0.579907 0.247567 0.071807 0.059388
C61   C     C_3   0.580291 0.752194 0.571935 0.054128
C62   C     C_3   0.580631 0.755298 0.926989 0.061801
C63   C     C_R   0.314352 0.001347 0.423415 -0.029163
C64   C     C_R   0.315997 0.033343 0.066069 -0.032045
C65   C     C_R   0.315735 0.965423 0.565570 -0.031396
C66   C     C_R   0.314927 0.997056 0.924097 -0.006952
C67   C     C_R   0.814344 0.501343 0.423412 -0.029203
C68   C     C_R   0.317792 0.033617 0.354399 0.541597
C69   C     C_R   0.815736 0.534553 0.065570 -0.030926
C70   C     C_R   0.815733 0.465424 0.565568 -0.030885
C71   C     C_R   0.814325 0.498626 0.923420 -0.029187
C72   C     C_R   0.536483 0.965308 0.420278 0.132288
C73   C     C_R   0.538943 0.993865 0.066115 0.130228
C74   C     C_R   0.538290 0.005580 0.564286 0.127270
C75   C     C_R   0.536937 0.031449 0.921685 0.119757
C76   C     C_R   0.036467 0.465301 0.420264 0.132158
C77   C     C_R   0.038357 0.494424 0.064259 0.129523
C78   C     C_R   0.038289 0.505580 0.564271 0.129509
C79   C     C_R   0.315596 0.059456 0.137860 0.548230
C80   C     C_R   0.036401 0.534664 0.920232 0.132160
C81   C     C_R   0.647702 0.974110 0.456499 -0.114456
C82   C     C_R   0.648989 0.001387 0.028653 -0.123660
C83   C     C_R   0.648012 0.999387 0.526227 -0.134344
C84   C     C_R   0.648426 0.025704 0.958561 -0.150575
C85   C     C_R   0.147690 0.474108 0.456478 -0.114816
C86   C     C_R   0.148040 0.500592 0.026165 -0.133994
C87   C     C_R   0.148007 0.499389 0.526205 -0.134015
C88   C     C_R   0.147653 0.525843 0.956423 -0.114838
C89   C     C_R   0.426381 0.984757 0.530775 -0.017919
C90   C     C_R   0.815539 0.440133 0.637834 0.547315
C91   C     C_R   0.425919 0.015730 0.957704 0.005573
C92   C     C_R   0.424998 0.981072 0.456516 -0.022303
C93   C     C_R   0.426760 0.013218 0.031926 -0.026436
C94   C     C_R   0.926378 0.484753 0.530767 -0.017554
C95   C     C_R   0.924961 0.518903 0.956499 -0.022594
C96   C     C_R   0.924988 0.481063 0.456508 -0.022609
C97   C     C_R   0.926394 0.515227 0.030761 -0.017529
C98   C     C_R   0.201405 0.967113 0.527745 -0.003294
C99   C     C_R   0.200638 0.998094 0.963233 -0.012701
C100  C     C_R   0.200121 0.000694 0.462791 -0.002359
C101  C     C_R   0.817774 0.466372 0.854403 0.542087
C102  C     C_R   0.201908 0.031853 0.028016 -0.003967
C103  C     C_R   0.701401 0.467114 0.527745 -0.003455
C104  C     C_R   0.700119 0.499273 0.962814 -0.002650
C105  C     C_R   0.700114 0.500692 0.462790 -0.002492
C106  C     C_R   0.701390 0.532857 0.027761 -0.003533
C107  C     C_R   0.086504 0.942794 0.554551 -0.080597
C108  C     C_R   0.085528 0.966304 0.942977 -0.085619
C109  C     C_R   0.085170 0.032950 0.442783 -0.083480
C110  C     C_R   0.087185 0.056980 0.054286 -0.079588
C111  C     C_R   0.586500 0.442795 0.554553 -0.080621
C112  C     C_R   0.817790 0.533617 0.354398 0.541786
C113  C     C_R   0.585193 0.467045 0.942807 -0.083613
C114  C     C_R   0.585163 0.532946 0.442781 -0.083510
C115  C     C_R   0.586468 0.557189 0.054569 -0.080704
C116  C     C_R   0.975152 0.965244 0.527359 -0.144841
C117  C     C_R   0.975233 0.985118 0.974270 -0.147593
C118  C     C_R   0.974894 0.014776 0.474464 -0.148895
C119  C     C_R   0.975767 0.035005 0.026827 -0.144324
C120  C     C_R   0.475147 0.465244 0.527361 -0.144892
C121  C     C_R   0.474913 0.485218 0.974503 -0.148904
C122  C     C_R   0.474888 0.514774 0.474464 -0.148966
C123  C     C_R   0.815528 0.559848 0.137831 0.547409
C124  C     C_R   0.475133 0.534745 0.027393 -0.144867
C125  C     C_R   0.139899 0.759810 0.640900 0.548852
C126  C     C_R   0.183174 0.771090 0.863937 0.555691
C127  C     C_R   0.183177 0.228889 0.363923 0.557936
C128  C     C_R   0.139901 0.240200 0.140909 0.548842
C129  C     C_R   0.639899 0.259810 0.640900 0.549499
C130  C     C_R   0.683134 0.271081 0.863928 0.555446
C131  C     C_R   0.683177 0.728889 0.363923 0.557906
C132  C     C_R   0.639764 0.740240 0.140942 0.548713
C133  C     C_R   0.540786 0.770265 0.643931 0.541175
C134  C     C_3   0.193358 0.716339 0.466426 -0.121889
C135  C     C_R   0.546349 0.768800 0.853579 0.536919
C136  C     C_R   0.546333 0.231191 0.353588 0.538648
C137  C     C_R   0.540597 0.229647 0.143852 0.542268
C138  C     C_R   0.040784 0.270265 0.643930 0.543521
C139  C     C_R   0.046306 0.268809 0.853596 0.541804
C140  C     C_R   0.046332 0.731190 0.353588 0.538648
C141  C     C_R   0.040715 0.729698 0.143908 0.541981
C142  C     C_3   0.088300 0.814096 0.465733 -0.127574
C143  C     C_3   0.034481 0.806996 0.023946 -0.116902
C144  C     C_3   0.034207 0.193077 0.523861 -0.116858
Cr1   Cr    Cr6+3 0.488160 0.884660 0.750000 0.996807
Cr2   Cr    Cr6+3 0.333410 0.272740 0.250000 1.022661
Cr3   Cr    Cr6+3 0.833410 0.227260 0.750000 1.010819
Cr4   Cr    Cr6+3 0.833410 0.772740 0.250000 1.022900
Cr5   Cr    Cr6+3 0.488160 0.115340 0.250000 0.985974
Cr6   Cr    Cr6+3 0.988160 0.384660 0.750000 0.987047
Cr7   Cr    Cr6+3 0.988160 0.615340 0.250000 0.985973
Cr8   Cr    Cr6+3 0.173480 0.883120 0.750000 0.987084
Cr9   Cr    Cr6+3 0.173480 0.116880 0.250000 0.986485
Cr10  Cr    Cr6+3 0.673480 0.383120 0.750000 0.987007
Cr11  Cr    Cr6+3 0.673480 0.616880 0.250000 0.986240
Cr12  Cr    Cr6+3 0.333410 0.727260 0.750000 1.021593
H1    H     H_    0.286938 0.815889 0.518959 0.098387
H2    H     H_    0.890456 0.960789 0.957181 0.101761
H3    H     H_    0.890297 0.039423 0.457485 0.099574
H4    H     H_    0.891456 0.055537 0.048625 0.101449
H5    H     H_    0.390651 0.445525 0.549727 0.101769
H6    H     H_    0.390340 0.460579 0.957532 0.099599
H7    H     H_    0.390291 0.539419 0.457483 0.099579
H8    H     H_    0.390618 0.554460 0.049769 0.101710
H9    H     H_    0.080802 0.863867 0.436005 0.140840
H10   H     H_    0.968437 0.848054 0.040380 0.133395
H11   H     H_    0.967891 0.152154 0.540218 0.133235
H12   H     H_    0.222154 0.867044 0.995970 0.112375
H13   H     H_    0.080987 0.136119 0.936053 0.142483
H14   H     H_    0.580805 0.363868 0.436006 0.140885
H15   H     H_    0.467308 0.347581 0.040061 0.132190
H16   H     H_    0.467889 0.652155 0.540217 0.133129
H17   H     H_    0.581686 0.636142 0.936042 0.140816
H18   H     H_    0.928668 0.815201 0.550758 0.101196
H19   H     H_    0.938030 0.748926 0.924605 0.121166
H20   H     H_    0.938150 0.251590 0.424614 0.121182
H21   H     H_    0.928671 0.184877 0.050818 0.102057
H22   H     H_    0.428669 0.315202 0.550757 0.101230
H23   H     H_    0.221314 0.132502 0.495596 0.115133
H24   H     H_    0.438013 0.248210 0.924404 0.119787
H25   H     H_    0.438151 0.751592 0.424615 0.121142
H26   H     H_    0.428816 0.684540 0.050566 0.101115
H27   H     H_    0.912271 0.683179 0.471107 0.107901
H28   H     H_    0.012069 0.644242 0.020096 0.125392
H29   H     H_    0.012886 0.355881 0.520267 0.125726
H30   H     H_    0.912132 0.316827 0.971132 0.108656
H31   H     H_    0.412271 0.183181 0.471106 0.107915
H32   H     H_    0.512836 0.143734 0.019853 0.124193
H33   H     H_    0.512890 0.855881 0.520268 0.125515
H34   H     H_    0.286885 0.184012 0.019024 0.099746
H35   H     H_    0.411868 0.816515 0.970855 0.105288
H36   H     H_    0.121347 0.636231 0.549025 0.173950
H37   H     H_    0.258272 0.663649 0.971899 0.128755
H38   H     H_    0.258820 0.335978 0.471983 0.128741
H39   H     H_    0.121250 0.363773 0.048983 0.174050
H40   H     H_    0.621345 0.136231 0.549023 0.173736
H41   H     H_    0.758893 0.163962 0.971896 0.124310
H42   H     H_    0.758824 0.835976 0.471983 0.128677
H43   H     H_    0.619982 0.863961 0.048912 0.173780
H44   H     H_    0.268066 0.685831 0.441108 0.110393
H45   H     H_    0.786939 0.315888 0.518960 0.098639
H46   H     H_    0.288750 0.763577 0.088373 0.115907
H47   H     H_    0.288863 0.235742 0.588312 0.117025
H48   H     H_    0.268006 0.314112 0.941099 0.111100
H49   H     H_    0.768066 0.185830 0.441108 0.110396
H50   H     H_    0.788422 0.264089 0.088289 0.114721
H51   H     H_    0.788863 0.735738 0.588312 0.115923
H52   H     H_    0.767680 0.814526 0.941265 0.110642
H53   H     H_    0.733418 0.963581 0.429398 0.123246
H54   H     H_    0.733868 0.985501 0.053739 0.119701
H55   H     H_    0.732630 0.016540 0.550725 0.116842
H56   H     H_    0.720800 0.367334 0.995607 0.113781
H57   H     H_    0.733877 0.036710 0.931423 0.110250
H58   H     H_    0.233404 0.463582 0.429374 0.123288
H59   H     H_    0.232692 0.483435 0.050650 0.117182
H60   H     H_    0.232627 0.516545 0.550699 0.117188
H61   H     H_    0.233339 0.536343 0.929292 0.123240
H62   H     H_    0.075372 0.076287 0.406911 0.175196
H63   H     H_    0.079564 0.094978 0.095083 0.177997
H64   H     H_    0.078594 0.905157 0.595662 0.178184
H65   H     H_    0.075799 0.922943 0.907136 0.174203
H66   H     H_    0.575362 0.576282 0.406907 0.175235
H67   H     H_    0.721310 0.632500 0.495595 0.114907
H68   H     H_    0.578528 0.594834 0.095672 0.178528
H69   H     H_    0.578591 0.405159 0.595665 0.178482
H70   H     H_    0.575419 0.423725 0.906924 0.175401
H71   H     H_    0.450583 0.918984 0.334219 0.232346
H72   H     H_    0.578794 0.966255 0.314668 0.241624
H73   H     H_    0.587859 0.979332 0.170680 0.252559
H74   H     H_    0.454566 0.936568 0.145930 0.254541
H75   H     H_    0.453269 0.062947 0.643876 0.260545
H76   H     H_    0.587279 0.020719 0.668768 0.256282
H77   H     H_    0.599718 0.032279 0.820008 0.232410
H78   H     H_    0.787205 0.684487 0.019160 0.098511
H79   H     H_    0.564521 0.111202 0.853952 0.256088
H80   H     H_    0.950551 0.418959 0.334222 0.232431
H81   H     H_    0.078738 0.466239 0.314640 0.241911
H82   H     H_    0.087480 0.479352 0.168723 0.253400
H83   H     H_    0.953502 0.437092 0.143928 0.254851
H84   H     H_    0.953290 0.562922 0.643894 0.254917
H85   H     H_    0.087331 0.520698 0.668732 0.253361
H86   H     H_    0.078625 0.533742 0.814601 0.241884
H87   H     H_    0.950386 0.581022 0.834202 0.232437
H88   H     H_    0.890655 0.945523 0.549723 0.101539
N1    N     N_3   0.539079 0.932132 0.351479 -0.594470
N2    N     N_3   0.542490 0.952188 0.130010 -0.636231
N3    N     N_3   0.541314 0.047460 0.628021 -0.635203
N4    N     N_3   0.535508 0.059505 0.850801 -0.603003
N5    N     N_3   0.039050 0.432120 0.351466 -0.594396
N6    N     N_3   0.041502 0.452579 0.128025 -0.637141
N7    N     N_3   0.041328 0.547451 0.628011 -0.637127
N8    N     N_3   0.038909 0.567855 0.851432 -0.594383
O1    O     O_R   0.575450 0.828820 0.667950 -0.528925
O2    O     O_R   0.416860 0.942890 0.825320 -0.473228
O3    O     O_R   0.416860 0.057110 0.325320 -0.500822
O4    O     O_R   0.416860 0.057110 0.174680 -0.508652
O5    O     O_R   0.916860 0.442890 0.674680 -0.509052
O6    O     O_R   0.916860 0.442890 0.825320 -0.500620
O7    O     O_R   0.916860 0.557110 0.325320 -0.500621
O8    O     O_R   0.916860 0.557110 0.174680 -0.508928
O9    O     O_R   0.213790 0.953680 0.668330 -0.525413
O10   O     O_R   0.213790 0.953680 0.831670 -0.550929
O11   O     O_R   0.213790 0.046320 0.331670 -0.543852
O12   O     O_R   0.575450 0.828820 0.832050 -0.521856
O13   O     O_R   0.213790 0.046320 0.168330 -0.527408
O14   O     O_R   0.713790 0.453680 0.668330 -0.527461
O15   O     O_R   0.713790 0.453680 0.831670 -0.543690
O16   O     O_R   0.713790 0.546320 0.331670 -0.543816
O17   O     O_R   0.713790 0.546320 0.168330 -0.527423
O18   O     O_R   0.121360 0.817890 0.672660 -0.543282
O19   O     O_R   0.121360 0.817890 0.827340 -0.523266
O20   O     O_R   0.121360 0.182110 0.327340 -0.521681
O21   O     O_R   0.121360 0.182110 0.172660 -0.542543
O22   O     O_R   0.621360 0.317890 0.672660 -0.542363
O23   O     O_R   0.575450 0.171180 0.332050 -0.520018
O24   O     O_R   0.621360 0.317890 0.827340 -0.518339
O25   O     O_R   0.621360 0.682110 0.327340 -0.521717
O26   O     O_R   0.621360 0.682110 0.172660 -0.542971
O27   O     O_R   0.206850 0.711370 0.665820 -0.503870
O28   O     O_R   0.206850 0.711370 0.834180 -0.489611
O29   O     O_R   0.206850 0.288630 0.334180 -0.490303
O30   O     O_R   0.206850 0.288630 0.165820 -0.504052
O31   O     O_R   0.706850 0.211370 0.665820 -0.505874
O32   O     O_R   0.706850 0.211370 0.834180 -0.532762
O33   O     O_R   0.706850 0.788630 0.334180 -0.490287
O34   O     O_R   0.575450 0.171180 0.167950 -0.527185
O35   O     O_R   0.706850 0.788630 0.165820 -0.503466
O36   O     O_R   0.457710 0.733190 0.672630 -0.508737
O37   O     O_R   0.457710 0.733190 0.827370 -0.522045
O38   O     O_R   0.457710 0.266810 0.327370 -0.521853
O39   O     O_R   0.457710 0.266810 0.172630 -0.509307
O40   O     O_R   0.957710 0.233190 0.672630 -0.507562
O41   O     O_R   0.957710 0.233190 0.827370 -0.519151
O42   O     O_R   0.957710 0.766810 0.327370 -0.521852
O43   O     O_R   0.957710 0.766810 0.172630 -0.508774
O44   O     O_3   0.331690 0.831680 0.750000 -0.296293
O45   O     O_R   0.075450 0.328820 0.667950 -0.527676
O46   O     O_3   0.331690 0.168320 0.250000 -0.290926
O47   O     O_3   0.831690 0.331680 0.750000 -0.288169
O48   O     O_3   0.831690 0.668320 0.250000 -0.291090
O49   O     O_R   0.075450 0.328820 0.832050 -0.519964
O50   O     O_R   0.075450 0.671180 0.332050 -0.519961
O51   O     O_R   0.075450 0.671180 0.167950 -0.527849
O52   O     O_R   0.416860 0.942890 0.674680 -0.503313

loop_
_geom_bond_atom_site_label_1
_geom_bond_atom_site_label_2
_ccdc_geom_bond_type
Cr8   O9    S    
C81   H53   S    
C71   C104  A    
C73   C82   A    
C6    C32   S    
C2    H46   S    
C73   C93   A    
C74   C83   A    
C50   H42   S    
C61   C133  S    
Cr5   O4    S    
C65   C89   A    
C47   H39   S    
Cr8   O44   S    
Cr11  O26   S    
C2    C55   S    
C117  C119  A    
C112  O7    A    
C86   C88   A    
C71   C95   A    
C69   C123  S    
Cr5   O46   S    
C54   C134  S    
C45   H38   S    
C88   H61   S    
C57   O2    A    
C129  O31   A    
C109  H62   S    
C37   C56   S    
C37   H29   S    
C50   C52   S    
C28   C144  S    
C41   C61   S    
C4    C12   S    
C112  O16   A    
C89   C92   A    
H74   N2    S    
Cr1   O52   S    
C21   C48   S    
C100  C109  A    
C29   H21   S    
C22   C130  S    
C7    C33   S    
C129  O22   A    
C8    H1    S    
C109  C118  A    
C9    C143  S    
C11   C20   S    
C111  H69   S    
C115  H68   S    
Cr12  O27   S    
C133  O1    A    
C131  O33   A    
C70   C103  A    
C3    H13   S    
Cr11  O48   S    
C13   H47   S    
C17   C43   S    
C7    C62   S    
C18   C44   S    
Cr1   O12   S    
Cr7   O50   S    
C94   C96   A    
C135  O37   A    
Cr2   O29   S    
C22   C49   S    
Cr4   O48   S    
C34   C54   S    
C82   C84   A    
C27   C36   S    
C64   C79   S    
Cr1   O2    S    
C36   C44   S    
C37   C45   S    
C132  O26   A    
C140  O50   A    
C16   C25   S    
C141  O51   A    
C46   C60   S    
H75   N3    S    
C95   C97   A    
C125  O27   A    
C31   H24   S    
C8    C17   S    
C41   H33   S    
C106  C115  A    
C52   C61   S    
C11   H34   S    
C28   C37   S    
C80   C88   A    
C36   C55   S    
C76   C96   A    
C13   C45   S    
Cr3   O32   S    
C78   C94   A    
C116  C118  A    
C128  O21   A    
C20   C47   S    
C3    C11   S    
C67   C112  S    
H84   N7    S    
C33   H26   S    
C26   H18   S    
Cr9   O21   S    
C77   N6    S    
C76   C85   A    
C75   N4    S    
C78   C87   A    
C116  H88   S    
C40   C60   S    
H85   N7    S    
C128  O30   A    
C57   C66   S    
Cr7   O7    S    
C6    H16   S    
C64   C102  A    
C99   C108  A    
C4    H14   S    
C33   C42   S    
C6    C61   S    
C103  C111  A    
C75   C84   A    
C40   C49   S    
C59   C136  S    
Cr6   O49   S    
C3    C29   S    
C2    C44   S    
C29   C38   S    
C1    C65   S    
C87   H60   S    
C77   C97   A    
C42   C62   S    
C75   C91   A    
C13   C56   S    
C135  O12   A    
H82   N6    S    
C81   C83   A    
Cr2   O46   S    
C55   C143  S    
C144  H11   S    
C8    C134  S    
C32   H25   S    
Cr10  O15   S    
C38   H30   S    
C51   C53   S    
C62   C135  S    
C110  H63   S    
Cr2   O39   S    
C27   C143  S    
C133  O36   A    
C30   H22   S    
C23   C131  S    
C34   H27   S    
C103  C105  A    
C10   C144  S    
C12   C35   S    
Cr10  O24   S    
C19   C28   S    
C21   C129  S    
Cr3   O47   S    
C43   H36   S    
C136  O23   A    
Cr7   O51   S    
C130  O24   A    
H79   N4    S    
C84   H57   S    
Cr8   O10   S    
C46   H50   S    
Cr4   O43   S    
C63   C68   S    
C5    C60   S    
C117  H2    S    
C108  C117  A    
C9    H12   S    
C34   C43   S    
Cr11  O16   S    
C110  C119  A    
Cr10  O47   S    
C19   C45   S    
C40   H32   S    
C80   C95   A    
Cr5   O3    S    
Cr6   O47   S    
C125  O18   A    
H86   N8    S    
C14   C22   S    
Cr11  O25   S    
C136  O38   A    
C85   H58   S    
C18   C126  S    
C108  H65   S    
C68   O3    A    
C137  O34   A    
C30   C39   S    
Cr9   O11   S    
C107  C116  A    
C139  O49   A    
C104  C113  A    
C9    C18   S    
C113  C121  A    
C80   N8    S    
C2    C9    S    
C25   C33   S    
C82   H54   S    
C69   C97   A    
Cr9   O46   S    
C55   C141  S    
C52   H51   S    
Cr5   O34   S    
C104  C106  A    
C14   C46   S    
C46   C49   S    
C44   H37   S    
C70   C94   A    
C65   C98   A    
Cr12  O28   S    
Cr6   O5    S    
C72   C92   A    
C132  O35   A    
C35   C48   S    
Cr8   O19   S    
C53   H52   S    
C31   C40   S    
C35   C59   S    
Cr10  O22   S    
C138  O40   A    
C38   C58   S    
C42   H35   S    
C79   O4    A    
C1    O52   A    
C72   C81   A    
Cr2   O30   S    
C123  O17   A    
C71   C101  S    
H83   N6    S    
C78   N7    S    
Cr1   O1    S    
C118  H3    S    
C76   N5    S    
Cr3   O40   S    
C57   O10   A    
Cr6   O45   S    
C126  O19   A    
C27   H19   S    
C28   H20   S    
C23   C50   S    
C49   H41   S    
C73   N2    S    
C35   H49   S    
C98   C107  A    
C72   N1    S    
C43   C134  S    
Cr9   O13   S    
C91   C93   A    
Cr3   O31   S    
C16   H78   S    
C10   C19   S    
C39   C59   S    
C101  O6    A    
C15   C52   S    
C114  H66   S    
C5    C14   S    
C7    C16   S    
C54   C142  S    
C98   C100  A    
Cr4   O33   S    
C102  C110  A    
Cr9   O20   S    
C10   H23   S    
C41   C50   S    
C115  C124  A    
C67   C105  A    
Cr7   O48   S    
Cr1   O44   S    
C69   C106  A    
C123  O8    A    
Cr4   O42   S    
C21   C30   S    
C14   H56   S    
C23   C32   S    
C113  H70   S    
C121  H6    S    
C15   H67   S    
C131  O25   A    
C107  H64   S    
C56   C144  S    
C3    C58   S    
C99   C102  A    
C24   C58   S    
C8    C142  S    
C90   O5    A    
C39   C48   S    
C124  H8    S    
C58   C139  S    
H80   N5    S    
C143  H10   S    
C134  H44   S    
C17   C26   S    
Cr5   O23   S    
C74   C89   A    
C90   O14   A    
C64   C93   A    
C20   C128  S    
C140  O42   A    
C141  O43   A    
H71   N1    S    
C11   C24   S    
C137  O39   A    
C16   C53   S    
C121  C124  A    
C130  O32   A    
C6    C15   S    
C86   H59   S    
C25   C132  S    
C26   C34   S    
C54   C140  S    
Cr8   O18   S    
C119  H4    S    
Cr4   O35   S    
C63   C92   A    
C36   H28   S    
C60   C137  S    
C39   H31   S    
C15   C23   S    
C101  O15   A    
C48   H40   S    
H81   N5    S    
C70   C90   S    
Cr11  O17   S    
C120  C122  A    
Cr7   O8    S    
C20   C29   S    
C85   C87   A    
C22   C31   S    
Cr12  O44   S    
C105  C114  A    
C139  O41   A    
H72   N1    S    
Cr3   O41   S    
C126  O28   A    
C12   C21   S    
C122  H7    S    
C111  C120  A    
C66   C99   A    
C25   C51   S    
C63   C100  A    
C56   C138  S    
C53   C62   S    
C32   C41   S    
C5    H15   S    
C12   H45   S    
C138  O45   A    
C38   C47   S    
C51   H43   S    
C120  H5    S    
C1    O9    A    
H73   N2    S    
C77   C86   A    
C127  O20   A    
C67   C96   A    
Cr12  O36   S    
C24   H48   S    
H87   N8    S    
C24   C47   S    
C18   C27   S    
Cr10  O14   S    
C10   C13   S    
H77   N4    S    
C66   C91   A    
C42   C51   S    
H76   N3    S    
C127  O29   A    
Cr6   O6    S    
C142  H9    S    
C74   N3    S    
Cr2   O38   S    
C17   C125  S    
C7    H17   S    
C4    C59   S    
C19   C127  S    
C79   O13   A    
Cr12  O37   S    
C4    C30   S    
C114  C122  A    
C26   C142  S    
C68   O11   A    
C83   H55   S    
C5    C31   S    
