data_mof_unit_11493.cif
_audit_creation_date              2012-10-26T19:02:37-0400
_audit_creation_method            fapswitch 2.2
_symmetry_space_group_name_H-M    P1
_symmetry_Int_Tables_number       1
_space_group_crystal_system       triclinic
_cell_length_a                    17.191398
_cell_length_b                    8.728714
_cell_length_c                    7.442462
_cell_angle_alpha                 102.427332
_cell_angle_beta                  91.436966
_cell_angle_gamma                 93.035897
_cell_volume                      1088.34708916

loop_
_atom_site_label
_atom_site_type_symbol
_atom_type_description
_atom_site_fract_x
_atom_site_fract_y
_atom_site_fract_z
_atom_type_partial_charge
C1    C     C_R   0.495732 0.200384 0.455215 0.553434
C2    C     C_R   0.774339 0.458016 0.620999 -0.093517
C3    C     C_R   0.143905 0.365577 0.361339 0.059696
C4    C     C_R   0.855250 0.472949 0.636590 0.072530
C5    C     C_R   0.105416 0.407528 0.528434 0.006454
C6    C     C_R   0.896934 0.516298 0.491724 0.014320
C7    C     C_R   0.147350 0.473938 0.693204 -0.081237
C8    C     C_R   0.856398 0.553202 0.341943 -0.117389
C9    C     C_R   0.227674 0.502931 0.693627 -0.115265
C10   C     C_R   0.775151 0.540914 0.330301 -0.116514
C11   C     C_2   0.020867 0.400850 0.531961 -0.040208
C12   C     C_R   0.504232 0.799617 0.544789 0.557657
C13   C     C_2   0.982191 0.517090 0.487210 -0.079156
C14   C     C_2   0.892888 0.450093 0.809961 0.539071
C15   C     C_2   0.102330 0.287557 0.184069 0.584148
C16   C     C_2   0.417775 0.957126 0.305826 0.573853
C17   C     C_2   0.582055 0.043001 0.694277 0.577159
C18   C     C_2   0.482062 0.034871 0.438607 -0.009115
C19   C     C_2   0.517836 0.965149 0.561408 -0.009963
C20   C     C_R   0.350832 0.495230 0.522998 0.561277
C21   C     C_R   0.649082 0.496392 0.476156 0.557616
C22   C     C_R   0.266346 0.467953 0.528162 -0.002414
C23   C     C_R   0.733892 0.493917 0.470585 0.000363
C24   C     C_R   0.224373 0.398298 0.363648 -0.115345
Cu1   Cu    Cu3+1 0.508700 0.517250 0.683000 1.043967
Cu2   Cu    Cu3+1 0.491300 0.482750 0.317000 1.046367
H1    H     H_    0.254761 0.366335 0.236394 0.170356
H2    H     H_    0.991007 0.301786 0.572948 0.172590
H3    H     H_    0.892697 0.328081 0.011562 0.350234
H4    H     H_    0.007391 0.162165 0.053912 0.352187
H5    H     H_    0.370501 0.919819 0.047996 0.343071
H6    H     H_    0.628877 0.081479 0.952582 0.347950
H7    H     H_    0.742454 0.423978 0.731544 0.188640
H8    H     H_    0.117370 0.507390 0.820814 0.194379
H9    H     H_    0.887899 0.589715 0.232611 0.168418
H10   H     H_    0.439375 0.377859 0.957401 0.249159
H11   H     H_    0.560627 0.622134 0.042602 0.246755
H12   H     H_    0.744792 0.571392 0.214748 0.143025
H13   H     H_    0.259144 0.555182 0.821961 0.150041
H14   H     H_    0.013575 0.609542 0.436086 0.141799
N1    N     N_2   0.478180 0.456750 0.041980 -0.243754
N2    N     N_2   0.521820 0.543250 0.958020 -0.244356
O1    O     O_R   0.505650 0.286040 0.618880 -0.502213
O2    O     O_R   0.861406 0.335134 0.896744 -0.697917
O3    O     O_2   0.133689 0.286011 0.037993 -0.531954
O4    O     O_R   0.028436 0.212111 0.182878 -0.694945
O5    O     O_2   0.364859 0.879000 0.356534 -0.509043
O6    O     O_R   0.416974 0.977616 0.124535 -0.641282
O7    O     O_2   0.635211 0.120407 0.643363 -0.512908
O8    O     O_R   0.582454 0.023569 0.875957 -0.639744
O9    O     O_R   0.494350 0.713960 0.381120 -0.500041
O10   O     O_R   0.490960 0.256910 0.309800 -0.456242
O11   O     O_R   0.509040 0.743090 0.690200 -0.453874
O12   O     O_R   0.394600 0.516230 0.672450 -0.517148
O13   O     O_R   0.605400 0.483770 0.327550 -0.514901
O14   O     O_R   0.379910 0.487100 0.363380 -0.494217
O15   O     O_R   0.620090 0.512900 0.636620 -0.500802
O16   O     O_2   0.950151 0.533075 0.878815 -0.531054

loop_
_geom_bond_atom_site_label_1
_geom_bond_atom_site_label_2
_ccdc_geom_bond_type
C17   O8    S    
Cu1   N2    S    
C2    C4    A    
C21   O15   A    
C1    C18   S    
Cu2   O10   S    
C10   C23   A    
N1    N2    D    
H4    O4    S    
C12   O11   A    
C24   H1    S    
C20   O14   A    
C10   H12   S    
H6    O8    S    
Cu2   O13   S    
Cu1   O1    S    
C3    C24   A    
Cu2   O9    S    
C6    C13   S    
C11   C13   D    
C20   O12   A    
C16   O6    S    
H10   N1    S    
Cu1   O15   S    
C11   H2    S    
C12   C19   S    
C14   O2    S    
C17   C19   S    
Cu1   O11   S    
C5    C11   S    
C5    C7    A    
H5    O6    S    
C21   C23   S    
H3    O2    S    
C4    C14   S    
C14   O16   D    
C1    O10   A    
C22   C24   A    
C9    C22   A    
C4    C6    A    
C15   O3    D    
C7    C9    A    
C9    H13   S    
C12   O9    A    
C3    C15   S    
Cu1   O12   S    
C2    H7    S    
C2    C23   A    
C16   C18   S    
C18   C19   D    
C7    H8    S    
C17   O7    D    
H11   N2    S    
C21   O13   A    
C16   O5    D    
C13   H14   S    
C6    C8    A    
C15   O4    S    
Cu1   Cu2   S    
C1    O1    A    
C8    C10   A    
Cu2   N1    S    
C20   C22   S    
C3    C5    A    
C8    H9    S    
Cu2   O14   S    
