data_mof_unit_60360.cif
_audit_creation_date              2012-12-10T21:35:40-0500
_audit_creation_method            fapswitch 2.2
_symmetry_space_group_name_H-M    P1
_symmetry_Int_Tables_number       1
_space_group_crystal_system       triclinic
_cell_length_a                    16.22863
_cell_length_b                    15.783182
_cell_length_c                    16.674735
_cell_angle_alpha                 90.980323
_cell_angle_beta                  85.722585
_cell_angle_gamma                 92.421948
_cell_volume                      4254.93821054

loop_
_atom_site_label
_atom_site_type_symbol
_atom_type_description
_atom_site_fract_x
_atom_site_fract_y
_atom_site_fract_z
_atom_type_partial_charge
C1    C     C_R   0.512512 0.501614 0.347312 0.969586
C2    C     C_3   0.560093 0.955010 0.568139 -0.320600
C3    C     C_3   0.504556 0.917212 0.499048 -0.206469
C4    C     C_3   0.412239 0.944670 0.514177 0.135830
C5    C     C_3   0.407052 0.044581 0.511121 0.117715
C6    C     C_1   0.502761 0.825274 0.499036 0.126650
C7    C     C_1   0.499494 0.175165 0.499175 0.206718
C8    C     C_1   0.500123 0.250188 0.498935 0.071193
C9    C     C_R   0.523979 0.508477 0.261071 -0.249096
C10   C     C_R   0.538726 0.588911 0.225501 -0.214606
C11   C     C_R   0.542714 0.594608 0.141487 0.389677
C12   C     C_R   0.500205 0.338579 0.499155 0.943943
C13   C     C_R   0.529576 0.521329 0.095037 0.167518
C14   C     C_R   0.519372 0.441511 0.131035 -0.202780
C15   C     C_R   0.516598 0.434800 0.213782 0.398487
C16   C     C_R   0.460559 0.415266 0.862062 0.334307
C17   C     C_R   0.468775 0.416418 0.777929 -0.198177
C18   C     C_R   0.458407 0.491744 0.905683 0.077555
C19   C     C_R   0.475130 0.495486 0.739123 -0.283553
C20   C     C_R   0.467524 0.571867 0.782787 0.321490
C21   C     C_R   0.458054 0.569989 0.866472 0.343155
C22   C     C_R   0.236680 0.540331 0.542099 0.356041
C23   C     C_R   0.487439 0.498718 0.652680 0.992900
C24   C     C_R   0.149318 0.535778 0.545196 0.238498
C25   C     C_R   0.108427 0.479602 0.492677 0.044802
C26   C     C_R   0.157455 0.427242 0.441243 0.242815
C27   C     C_R   0.244650 0.433342 0.440592 0.367677
C28   C     C_R   0.851522 0.469681 0.450563 -0.294314
C29   C     C_R   0.763766 0.463180 0.454877 0.454536
C30   C     C_R   0.891740 0.522868 0.506260 0.144519
C31   C     C_R   0.755069 0.561859 0.563893 -0.107445
C32   C     C_R   0.842272 0.569618 0.562279 0.288096
C33   C     C_R   0.499929 0.661526 0.500292 0.925013
C34   C     C_3   0.546151 0.053826 0.573260 0.085206
C35   C     C_3   0.545778 0.051710 0.418152 0.647497
C36   C     C_3   0.535979 0.952837 0.413333 -0.366283
C37   C     C_1   0.500662 0.750116 0.499638 0.033695
C38   C     C_3   0.499531 0.083584 0.499535 -0.219434
H1    H     H_    0.504097 0.066361 0.627225 0.146499
H2    H     H_    0.511862 0.384745 0.094389 0.242376
H3    H     H_    0.485120 0.937940 0.373690 0.224500
H4    H     H_    0.388211 0.920059 0.573049 0.222309
N1    N     N_2   0.523846 0.528499 0.011877 -0.056568
N2    N     N_2   0.461769 0.488531 0.989319 -0.068569
N3    N     N_R   0.283090 0.489740 0.490280 -0.217105
N4    N     N_2   0.019766 0.468361 0.494028 -0.055021
N5    N     N_2   0.980343 0.534584 0.505403 -0.011295
N6    N     N_R   0.716930 0.510260 0.509710 -0.184338
O1    O     O_R   0.577460 0.503670 0.387340 -0.554139
O2    O     O_R   0.438160 0.497080 0.381100 -0.582008
O3    O     O_R   0.569680 0.380440 0.503120 -0.585272
O4    O     O_R   0.430380 0.373850 0.496890 -0.551160
O5    O     O_R   0.561840 0.502920 0.618900 -0.628735
O6    O     O_R   0.422540 0.496330 0.612660 -0.549497
O7    O     O_R   0.569620 0.626150 0.503110 -0.570410
O8    O     O_R   0.430320 0.619560 0.496880 -0.584631
Zn1   Zn    Zn3+2 0.593020 0.504400 0.504170 1.094888
Zn2   Zn    Zn3+2 0.406980 0.495600 0.495830 1.118316
C39   C     C_2   0.650900 0.930667 0.548575 1.111098
O9    O     O_2   0.667668 0.855811 0.549190 -0.515288
O10   O     O_R   0.715445 0.990319 0.531337 -0.649499
H5    H     H_    0.770964 0.963709 0.519859 0.387648
C40   C     C_2   0.533997 0.917400 0.651984 0.938120
O11   O     O_2   0.464739 0.927156 0.683941 -0.543882
O12   O     O_R   0.590513 0.874908 0.694720 -0.717315
H6    H     H_    0.565947 0.854422 0.749008 0.405513
Cl1   Cl    Cl    0.342642 0.887677 0.450120 -0.396985
C41   C     C_2   0.470153 0.335505 0.731187 0.998735
O13   O     O_2   0.424174 0.323811 0.676919 -0.631898
O14   O     O_R   0.523203 0.272363 0.749768 -0.678560
H7    H     H_    0.517094 0.219821 0.714550 0.368745
Cl2   Cl    Cl    0.452948 0.318560 0.914759 -0.399694
Cl3   Cl    Cl    0.502061 0.333379 0.256620 -0.381587
Cl4   Cl    Cl    0.470419 0.669998 0.732571 -0.478682
Cl5   Cl    Cl    0.562609 0.693094 0.093452 -0.356854
Cl6   Cl    Cl    0.444398 0.665152 0.922277 -0.323773
Cl7   Cl    Cl    0.631933 0.121893 0.601224 -0.412184
C42   C     C_2   0.545873 0.667050 0.275471 0.974016
O15   O     O_2   0.597346 0.673284 0.325362 -0.577679
O16   O     O_R   0.493419 0.733417 0.265299 -0.693876
H8    H     H_    0.502573 0.782468 0.304016 0.348369
Cl8   Cl    Cl    0.714224 0.395808 0.386339 -0.415143
C43   C     C_2   0.899626 0.426268 0.384125 1.083462
O17   O     O_2   0.949482 0.467132 0.339985 -0.533698
O18   O     O_R   0.887824 0.338884 0.371887 -0.671722
H9    H     H_    0.923878 0.316842 0.324453 0.395750
Cl9   Cl    Cl    0.109124 0.352573 0.378114 -0.365448
Cl10  Cl    Cl    0.303874 0.365778 0.376605 -0.339908
C44   C     C_2   0.705753 0.609012 0.625750 1.087953
O19   O     O_2   0.693641 0.580381 0.693470 -0.559203
O20   O     O_R   0.677604 0.688436 0.608434 -0.698954
H10   H     H_    0.645701 0.715044 0.656300 0.389383
Cl11  Cl    Cl    0.093681 0.594956 0.620391 -0.315092
Cl12  Cl    Cl    0.889933 0.639128 0.630733 -0.353899
Cl13  Cl    Cl    0.285785 0.610284 0.608601 -0.364725
Cl14  Cl    Cl    0.507901 0.095600 0.329477 -0.305516
Cl15  Cl    Cl    0.652162 0.090322 0.410169 -0.349963
C45   C     C_2   0.608191 0.911596 0.365956 0.974564
O21   O     O_2   0.643555 0.852655 0.392630 -0.548992
O22   O     O_R   0.631227 0.939425 0.287986 -0.662795
H11   H     H_    0.678582 0.907032 0.261020 0.389483
C46   C     C_2   0.359843 0.080403 0.586874 0.938184
O23   O     O_2   0.333283 0.034610 0.642195 -0.524112
O24   O     O_R   0.344554 0.167007 0.591953 -0.728418
H12   H     H_    0.312357 0.183344 0.643968 0.392823
Cl16  Cl    Cl    0.345387 0.076766 0.431911 -0.301008

loop_
_geom_bond_atom_site_label_1
_geom_bond_atom_site_label_2
_ccdc_geom_bond_type
C33   O7    A    
C32   Cl12  S    
C40   O12   S    
C18   C21   A    
C11   C13   A    
C22   Cl13  S    
C19   C20   A    
C16   Cl2   S    
C3    C6    S    
C10   C42   S    
N6    Zn1   S    
C35   Cl14  S    
C21   Cl6   S    
C26   C27   A    
C28   C29   A    
C35   Cl15  S    
C34   Cl7   S    
C42   O16   S    
O1    Zn1   S    
C46   O23   D    
N4    N5    D    
C31   C32   A    
C41   O13   D    
C31   C44   S    
O14   H7    S    
O3    Zn1   S    
C44   O20   S    
C9    C10   A    
C27   N3    A    
C33   O8    A    
C39   O9    D    
C13   C14   A    
C28   C43   S    
C36   H3    S    
O10   H5    S    
O24   H12   S    
C12   O4    A    
C23   O5    A    
C5    Cl16  S    
N3    Zn2   S    
C39   O10   S    
C29   N6    A    
C34   H1    S    
O2    Zn2   S    
C30   N5    S    
C7    C8    T    
C35   C38   S    
C1    C9    S    
C24   C25   A    
O20   H10   S    
O5    Zn1   S    
C2    C39   S    
C26   Cl9   S    
C25   C26   A    
O18   H9    S    
C33   C37   S    
C35   C36   S    
C19   C23   S    
N1    N2    D    
C1    O2    A    
C18   N2    S    
C43   O17   D    
C8    C12   S    
C6    C37   T    
C20   Cl4   S    
C46   O24   S    
O4    Zn2   S    
C16   C18   A    
C15   Cl3   S    
O12   H6    S    
C45   O22   S    
C31   N6    A    
O7    Zn1   S    
C22   C24   A    
C3    C4    S    
C13   N1    S    
C12   O3    A    
C2    C40   S    
C23   O6    A    
O6    Zn2   S    
C5    C46   S    
C17   C41   S    
C43   O18   S    
C34   C38   S    
O16   H8    S    
C4    Cl1   S    
C28   C30   A    
C2    C3    S    
C9    C15   A    
C29   Cl8   S    
C11   Cl5   S    
C24   Cl11  S    
C30   C32   A    
C42   O15   D    
C2    C34   S    
C16   C17   A    
C4    H4    S    
C3    C36   S    
O22   H11   S    
C17   C19   A    
C7    C38   S    
O8    Zn2   S    
C27   Cl10  S    
C10   C11   A    
C14   H2    S    
C40   O11   D    
C4    C5    S    
C22   N3    A    
C20   C21   A    
C41   O14   S    
C45   O21   D    
C14   C15   A    
C36   C45   S    
C44   O19   D    
C5    C38   S    
C1    O1    A    
C25   N4    S    
