data_mof_unit_49153.cif
_audit_creation_date              2012-12-10T17:32:17-0500
_audit_creation_method            fapswitch 2.2
_symmetry_space_group_name_H-M    P1
_symmetry_Int_Tables_number       1
_space_group_crystal_system       triclinic
_cell_length_a                    12.647393
_cell_length_b                    13.349091
_cell_length_c                    15.086869
_cell_angle_alpha                 69.586902
_cell_angle_beta                  105.475127
_cell_angle_gamma                 118.050202
_cell_volume                      2090.43507015

loop_
_atom_site_label
_atom_site_type_symbol
_atom_type_description
_atom_site_fract_x
_atom_site_fract_y
_atom_site_fract_z
_atom_type_partial_charge
C1    C     C_R   0.855098 0.288177 0.499143 0.952361
C2    C     C_R   0.022266 0.623161 0.060131 -0.072325
C3    C     C_R   0.812122 0.310782 0.072042 0.272768
C4    C     C_R   0.806894 0.306987 0.979400 0.305767
C5    C     C_R   0.896243 0.398992 0.920860 -0.094443
C6    C     C_R   0.959947 0.508271 0.943994 -0.024912
C7    C     C_R   0.032035 0.608476 0.879795 0.032412
C8    C     C_R   0.082243 0.719373 0.899358 0.196562
C9    C     C_R   0.065575 0.727586 0.985389 0.363144
C10   C     C_R   0.932551 0.382258 0.847573 0.441979
C11   C     C_R   0.001442 0.485766 0.777728 -0.138114
C12   C     C_R   0.000363 0.492962 0.674982 0.912972
C13   C     C_R   0.046497 0.596194 0.795409 -0.195451
C14   C     C_R   0.266551 0.042404 0.380586 0.458023
C15   C     C_R   0.227244 0.839670 0.464202 -0.125688
C16   C     C_R   0.812365 0.074381 0.525822 0.244486
C17   C     C_R   0.729367 0.956824 0.536392 0.291575
C18   C     C_R   0.607051 0.928153 0.513867 -0.209552
C19   C     C_R   0.562272 0.015106 0.471507 0.060135
C20   C     C_R   0.646032 0.134842 0.446207 0.012814
C21   C     C_R   0.435773 0.984852 0.450329 0.064881
C22   C     C_R   0.392378 0.070309 0.390924 -0.051510
C23   C     C_R   0.144772 0.714519 0.485962 0.832412
C24   C     C_R   0.475719 0.178221 0.342890 0.296246
C25   C     C_R   0.600545 0.213170 0.373860 0.217573
C26   C     C_R   0.350976 0.871341 0.488620 -0.175630
C27   C     C_R   0.185551 0.925922 0.413330 -0.182455
C28   C     C_R   0.771456 0.165993 0.487709 -0.170685
C29   C     C_R   0.400544 0.391076 0.668227 0.298925
C30   C     C_R   0.762472 0.657054 0.370913 0.432547
C31   C     C_R   0.673831 0.698939 0.340735 -0.211524
C32   C     C_R   0.570605 0.645551 0.384231 0.265502
C33   C     C_R   0.548660 0.540018 0.457242 -0.038598
C34   C     C_R   0.000681 0.507990 0.326941 0.882854
C35   C     C_R   0.643832 0.493814 0.489759 0.049812
C36   C     C_R   0.443701 0.484842 0.508532 -0.081991
C37   C     C_R   0.455396 0.408814 0.593929 -0.194161
C38   C     C_R   0.493877 0.329337 0.594229 0.380084
C39   C     C_R   0.606299 0.375126 0.560678 0.286666
C40   C     C_R   0.328938 0.493908 0.486403 0.021602
C41   C     C_R   0.286472 0.391534 0.645925 0.451110
C42   C     C_R   0.040412 0.620991 0.158250 0.275237
C43   C     C_R   0.992118 0.512687 0.226701 -0.172512
C44   C     C_R   0.932304 0.407111 0.200119 0.250017
C45   C     C_R   0.900702 0.409474 0.103504 -0.024816
C46   C     C_R   0.958941 0.514502 0.035295 -0.086672
Cu1   Cu    Cu3+1 0.098270 0.475420 0.521130 1.098669
Cu2   Cu    Cu3+1 0.901730 0.524580 0.478870 1.098357
H1    H     H_    0.378682 0.804986 0.538428 0.170662
H2    H     H_    0.549330 0.835663 0.524423 0.189994
H3    H     H_    0.302764 0.539348 0.416322 0.205806
H4    H     H_    0.687443 0.777930 0.282650 0.226464
H5    H     H_    0.093639 0.673067 0.741525 0.175949
H6    H     H_    0.089655 0.903192 0.401120 0.222711
N1    N     N_R   0.246280 0.438190 0.553160 -0.247206
N2    N     N_R   0.754320 0.561190 0.447410 -0.208075
O1    O     O_R   0.972510 0.318130 0.526570 -0.502361
O2    O     O_R   0.806530 0.359650 0.490890 -0.529792
O3    O     O_R   0.082980 0.479210 0.647590 -0.503951
O4    O     O_R   0.917000 0.520730 0.611900 -0.540782
O5    O     O_R   0.193470 0.640350 0.509110 -0.590446
O6    O     O_R   0.027490 0.681870 0.473430 -0.565625
O7    O     O_R   0.083000 0.479270 0.388100 -0.578287
O8    O     O_R   0.917020 0.520790 0.352410 -0.528695
Br1   Br    Br    0.160618 0.752405 0.207777 -0.324955
Br2   Br    Br    0.422564 0.260613 0.217930 -0.210247
S1    S     S_3+6 0.207137 0.149048 0.348361 0.105334
O9    O     O_2   0.158683 0.169656 0.244314 -0.185625
O10   O     O_2   0.105121 0.103427 0.405054 -0.202064
O11   O     O_3   0.313689 0.276205 0.371638 -0.508246
H7    H     H_    0.270528 0.326403 0.358725 0.385041
Br3   Br    Br    0.980176 0.101874 0.559129 -0.246278
Br4   Br    Br    0.777429 0.828401 0.584585 -0.360534
Br5   Br    Br    0.700343 0.353654 0.292971 -0.401315
S2    S     S_3+6 0.200307 0.326332 0.739509 0.156466
O12   O     O_2   0.233355 0.232052 0.812951 -0.159135
O13   O     O_2   0.229192 0.422009 0.784543 -0.211548
O14   O     O_3   0.052934 0.263748 0.702062 -0.457545
H8    H     H_    0.030562 0.178072 0.724575 0.396124
S3    S     S_3+6 0.391768 0.176355 0.633281 0.130115
O15   O     O_2   0.428541 0.122680 0.735156 -0.139154
O16   O     O_2   0.266248 0.165880 0.625433 -0.231230
O17   O     O_3   0.385585 0.098004 0.565248 -0.506660
H9    H     H_    0.332746 0.015769 0.595267 0.379028
S4    S     S_3+6 0.490519 0.393409 0.781713 0.119458
O18   O     O_2   0.464309 0.270339 0.842882 -0.130692
O19   O     O_2   0.621870 0.455141 0.767778 -0.269240
O20   O     O_3   0.464036 0.466521 0.838002 -0.453981
H10   H     H_    0.514436 0.459800 0.900672 0.397356
Br6   Br    Br    0.930386 0.264429 0.294887 -0.344569
Br7   Br    Br    0.891058 0.740737 0.293082 -0.369506
Br8   Br    Br    0.477027 0.736525 0.345112 -0.445650
S5    S     S_3+6 0.677686 0.282608 0.644618 0.077692
O21   O     O_2   0.807272 0.311221 0.656017 -0.278592
O22   O     O_2   0.656044 0.274722 0.739780 -0.214054
O23   O     O_3   0.608209 0.147046 0.627863 -0.504274
H11   H     H_    0.623649 0.094374 0.689919 0.402918
Br9   Br    Br    0.685267 0.188918 0.148192 -0.246674
Br10  Br    Br    0.674493 0.174673 0.937494 -0.133202
S6    S     S_3+6 0.946495 0.244931 0.880305 0.114351
O24   O     O_2   0.076291 0.269047 0.892750 -0.150135
O25   O     O_2   0.906210 0.168468 0.975909 -0.251563
O26   O     O_3   0.866349 0.165638 0.800740 -0.468458
H12   H     H_    0.865573 0.086642 0.832324 0.387302
Br11  Br    Br    0.176285 0.860507 0.810145 -0.258025
S7    S     S_3+6 0.068281 0.861925 0.986547 0.133855
O27   O     O_2   0.196031 0.944854 0.011337 -0.143904
O28   O     O_2   0.019917 0.918131 0.889723 -0.216734
O29   O     O_3   0.981028 0.837180 0.065508 -0.467739
H13   H     H_    0.993273 0.916327 0.065001 0.413672

loop_
_geom_bond_atom_site_label_1
_geom_bond_atom_site_label_2
_ccdc_geom_bond_type
C16   C28   A    
C21   C26   A    
S5    O21   D    
C19   C20   A    
C16   Br3   S    
C31   H4    S    
C43   C44   A    
C8    Br11  S    
C27   H6    S    
C7    C8    A    
C32   Br8   S    
S4    O18   D    
C2    C46   A    
C38   S3    S    
O17   H9    S    
C36   C37   A    
C19   C21   A    
C18   C19   A    
Cu1   O7    S    
C30   C31   A    
Cu2   O8    S    
Cu1   O1    S    
C20   C25   A    
C33   C36   A    
C25   Br5   S    
C39   S5    S    
C12   O3    A    
Cu2   O6    S    
C23   O6    A    
C41   N1    A    
Cu1   Cu2   S    
C8    C9    A    
C42   Br1   S    
C14   S1    S    
O11   H7    S    
C30   Br7   S    
C14   C27   A    
C29   S4    S    
C24   Br2   S    
C15   C23   S    
S5    O22   D    
C21   C22   A    
C17   Br4   S    
S3    O17   S    
C34   O8    A    
Cu2   O4    S    
C13   H5    S    
S4    O19   D    
C38   C39   A    
S1    O9    D    
C36   C40   A    
C24   C25   A    
S3    O16   D    
C26   H1    S    
O14   H8    S    
C16   C17   A    
C15   C26   A    
C20   C28   A    
C9    S7    S    
C45   C46   A    
C30   N2    A    
C3    C45   A    
S6    O26   S    
S1    O10   D    
C35   C39   A    
S2    O12   D    
C37   C38   A    
C1    O1    A    
C41   S2    S    
C15   C27   A    
C31   C32   A    
C23   O5    A    
C40   N1    A    
O23   H11   S    
S6    O25   D    
C17   C18   A    
C1    C28   S    
C10   S6    S    
S2    O13   D    
S5    O23   S    
C22   C24   A    
C42   C43   A    
C3    C4    A    
C44   Br6   S    
C44   C45   A    
C18   H2    S    
Cu1   N1    S    
S4    O20   S    
Cu2   N2    S    
C6    C46   A    
C29   C41   A    
C35   N2    A    
C34   C43   S    
S3    O15   D    
Cu1   O5    S    
C11   C12   S    
Cu2   O2    S    
C6    C7    A    
C40   H3    S    
S1    O11   S    
C32   C33   A    
C14   C22   A    
C5    C10   A    
C1    O2    A    
C11   C13   A    
C3    Br9   S    
C5    C6    A    
S7    O28   D    
C2    C42   A    
C4    C5    A    
C34   O7    A    
C33   C35   A    
S2    O14   S    
C10   C11   A    
Cu1   O3    S    
C12   O4    A    
C7    C13   A    
O20   H10   S    
S7    O27   D    
C4    Br10  S    
C29   C37   A    
O26   H12   S    
S6    O24   D    
O29   H13   S    
C2    C9    A    
S7    O29   S    
