data_mof_unit_16214.cif
_audit_creation_date              2012-12-10T17:26:22-0500
_audit_creation_method            fapswitch 2.2
_symmetry_space_group_name_H-M    P1
_symmetry_Int_Tables_number       1
_space_group_crystal_system       triclinic
_cell_length_a                    10.120089
_cell_length_b                    10.872868
_cell_length_c                    27.62537
_cell_angle_alpha                 92.111364
_cell_angle_beta                  80.753576
_cell_angle_gamma                 95.660852
_cell_volume                      2984.93001511

loop_
_atom_site_label
_atom_site_type_symbol
_atom_type_description
_atom_site_fract_x
_atom_site_fract_y
_atom_site_fract_z
_atom_type_partial_charge
C1    C     C_R   0.556268 0.732445 0.495885 0.956157
C2    C     C_R   0.471719 0.584593 0.132888 -0.085434
C3    C     C_R   0.499703 0.508773 0.646890 -0.167007
C4    C     C_R   0.500254 0.491049 0.353095 -0.185167
C5    C     C_R   0.494480 0.609189 0.030539 -0.078438
C6    C     C_R   0.507526 0.390567 0.969390 -0.092461
C7    C     C_R   0.516875 0.384853 0.019894 0.064439
C8    C     C_R   0.485372 0.615038 0.980031 0.071698
C9    C     C_R   0.499928 0.491537 0.050588 0.052423
C10   C     C_R   0.501772 0.508234 0.949345 0.051518
C11   C     C_R   0.502540 0.715452 0.062365 0.355024
C12   C     C_R   0.443727 0.267410 0.502234 0.965510
C13   C     C_R   0.499228 0.284206 0.937590 0.378275
C14   C     C_R   0.474778 0.700607 0.112860 -0.169268
C15   C     C_R   0.525368 0.298968 0.887083 -0.138017
C16   C     C_R   0.499211 0.499767 0.594064 0.932020
C17   C     C_R   0.500789 0.500194 0.405928 0.929590
C18   C     C_R   0.447910 0.721139 0.959774 -0.087778
C19   C     C_R   0.554991 0.279103 0.040176 -0.069267
C20   C     C_2   0.588284 0.863721 0.490370 -0.302508
C21   C     C_2   0.411650 0.135455 0.500628 -0.323056
C22   C     C_2   0.487126 0.933264 0.490144 -0.129104
C23   C     C_R   0.506849 0.518535 0.898153 -0.055043
C24   C     C_2   0.512657 0.064718 0.488488 -0.142879
C25   C     C_2   0.927181 0.510642 0.504182 -0.083191
C26   C     C_2   0.072830 0.489386 0.495804 -0.084875
C27   C     C_R   0.493451 0.638887 0.827185 0.543756
C28   C     C_R   0.507192 0.360920 0.172818 0.543828
C29   C     C_R   0.537315 0.427159 0.816520 0.566759
C30   C     C_R   0.461885 0.572299 0.183461 0.566490
C31   C     C_R   0.392520 0.482121 0.731107 -0.194009
C32   C     C_R   0.607375 0.517072 0.268832 -0.163756
C33   C     C_R   0.387322 0.464017 0.681231 0.370476
C34   C     C_R   0.494134 0.481180 0.101806 -0.055966
C35   C     C_R   0.612895 0.535033 0.318692 0.431011
C36   C     C_R   0.614446 0.568265 0.663416 -0.250046
C37   C     C_R   0.385091 0.432252 0.336626 -0.258784
C38   C     C_R   0.618683 0.583298 0.713314 -0.054931
C39   C     C_R   0.380665 0.417170 0.286743 -0.063566
C40   C     C_R   0.507923 0.539750 0.747046 0.238133
C41   C     C_R   0.491617 0.460030 0.252963 0.219832
C42   C     C_R   0.487460 0.631490 0.878085 -0.031293
C43   C     C_R   0.513845 0.368374 0.121893 -0.039841
C44   C     C_R   0.453627 0.731073 0.909470 -0.094526
C45   C     C_R   0.548844 0.269125 0.090502 -0.083718
C46   C     C_R   0.528261 0.414962 0.867068 -0.105266
H1    H     H_    0.700992 0.603374 0.637614 0.176597
H2    H     H_    0.290185 0.375055 0.274322 0.166438
H3    H     H_    0.429005 0.816236 0.895416 0.211082
H4    H     H_    0.574077 0.184241 0.104566 0.204259
H5    H     H_    0.690881 0.551949 0.241747 0.198325
H6    H     H_    0.309115 0.446815 0.758145 0.184211
H7    H     H_    0.471912 0.782196 0.136619 0.212436
H8    H     H_    0.527436 0.217252 0.863363 0.238100
H9    H     H_    0.411272 0.796902 0.982607 0.217399
H10   H     H_    0.592633 0.203758 0.017358 0.225202
H11   H     H_    0.616679 0.103556 0.479433 0.194354
H12   H     H_    0.298356 0.397698 0.362461 0.177891
H13   H     H_    0.383000 0.893906 0.493563 0.191837
H14   H     H_    0.926138 0.738413 0.299490 0.396844
H15   H     H_    0.212905 0.236312 0.718900 0.368228
H16   H     H_    0.638551 0.960638 0.109395 0.364610
H17   H     H_    0.280633 0.001626 0.926031 0.386612
H18   H     H_    0.307876 0.096237 0.509705 0.166774
H19   H     H_    0.692161 0.903476 0.486999 0.160404
H20   H     H_    0.109079 0.420512 0.468771 0.154593
H21   H     H_    0.890941 0.579534 0.531209 0.155148
H22   H     H_    0.119626 0.615702 0.545421 0.183266
H23   H     H_    0.880363 0.384277 0.454587 0.182396
H24   H     H_    0.708898 0.625892 0.725781 0.167190
N1    N     N_R   0.518048 0.537267 0.797809 -0.350660
N2    N     N_R   0.481543 0.462335 0.202195 -0.349445
N3    N     N_2   0.842700 0.448890 0.480020 -0.175244
N4    N     N_2   0.157300 0.551110 0.519980 -0.176025
O1    O     O_R   0.431060 0.692470 0.504020 -0.627427
O2    O     O_2   0.528379 0.254527 0.192731 -0.530059
O3    O     O_2   0.436483 0.670355 0.213820 -0.520325
O4    O     O_2   0.561768 0.328915 0.786161 -0.518810
O5    O     O_2   0.716370 0.712637 0.375797 -0.302767
O6    O     O_2   0.844360 0.532977 0.353652 -0.291969
O7    O     O_3   0.846486 0.695994 0.287182 -0.534331
O8    O     O_2   0.154978 0.464294 0.646762 -0.243279
O9    O     O_2   0.284508 0.286851 0.623362 -0.305526
O10   O     O_3   0.154927 0.299921 0.712185 -0.502247
O11   O     O_2   0.665808 0.858133 0.993866 -0.212927
O12   O     O_R   0.568940 0.307530 0.495980 -0.625440
O13   O     O_2   0.481427 0.953148 0.046519 -0.283477
O14   O     O_3   0.690710 0.910191 0.084012 -0.503464
O15   O     O_2   0.525519 0.048043 0.953559 -0.262856
O16   O     O_2   0.337967 0.140361 0.006102 -0.248231
O17   O     O_3   0.316406 0.086251 0.915576 -0.529424
O18   O     O_R   0.651120 0.659650 0.491200 -0.592745
O19   O     O_R   0.348880 0.340350 0.508800 -0.590199
O20   O     O_R   0.389980 0.516390 0.577660 -0.548480
O21   O     O_R   0.610020 0.483610 0.422340 -0.549247
O22   O     O_R   0.610040 0.483570 0.564830 -0.627399
O23   O     O_R   0.389960 0.516430 0.435170 -0.631258
O24   O     O_2   0.472680 0.745449 0.807299 -0.519856
S1    S     S_3+6 0.757564 0.620355 0.335697 0.044540
S2    S     S_3+6 0.243424 0.377537 0.664100 0.062554
S3    S     S_3+6 0.584947 0.862327 0.044433 0.044537
S4    S     S_3+6 0.419657 0.136468 0.955654 0.033278
Zn1   Zn    Zn3+2 0.353060 0.521910 0.508560 1.017988
Zn2   Zn    Zn3+2 0.646940 0.478090 0.491440 1.018280

loop_
_geom_bond_atom_site_label_1
_geom_bond_atom_site_label_2
_ccdc_geom_bond_type
C44   H3    S    
C19   H10   S    
C38   H24   S    
C27   O24   S    
C40   N1    S    
O15   S4    D    
C25   H21   S    
C31   H6    S    
O12   Zn2   S    
O19   Zn1   S    
O14   S3    S    
O11   S3    D    
C39   C41   A    
C23   C42   A    
C45   H4    S    
O5    S1    D    
C5    C11   A    
C11   C14   A    
C3    C33   A    
H22   N4    S    
C31   C40   A    
C36   H1    S    
O16   S4    D    
C21   H18   S    
O13   S3    D    
C30   O3    S    
N3    Zn2   S    
C29   O4    S    
C24   H11   S    
C32   C41   A    
C31   C33   A    
H23   N3    S    
C17   O21   A    
C37   H12   S    
C2    C34   A    
C4    C35   A    
C23   C46   A    
O1    Zn1   S    
C28   N2    A    
C42   C44   A    
C35   S1    S    
C16   O22   A    
C26   H20   S    
C32   C35   A    
C20   H19   S    
C22   H13   S    
O7    S1    S    
C25   C26   S    
H16   O14   S    
C12   C21   S    
C8    C18   A    
C1    O1    A    
C15   H8    S    
C32   H5    S    
C5    C9    A    
C18   C44   A    
H14   O7    S    
C11   S3    S    
C43   C45   A    
O23   Zn1   S    
C18   H9    S    
C41   N2    S    
C4    C17   S    
C20   C22   D    
O20   Zn1   S    
C1    O18   A    
C7    C19   A    
O9    S2    D    
O22   Zn2   S    
O6    S1    D    
C9    C34   A    
C22   C24   S    
C12   O19   A    
O17   S4    S    
C28   O2    S    
C27   N1    A    
O21   Zn2   S    
C7    C9    A    
C1    C20   S    
O8    S2    D    
C34   C43   A    
H15   O10   S    
C6    C10   A    
C5    C8    A    
C30   N2    A    
C19   C45   A    
C6    C7    A    
C10   C23   A    
C28   C43   A    
C16   O20   A    
C12   O12   A    
C29   C46   A    
C2    C30   A    
C33   S2    S    
C13   C15   A    
C37   C39   A    
C6    C13   A    
C38   C40   A    
C27   C42   A    
C3    C36   A    
C36   C38   A    
C26   N4    D    
C25   N3    D    
C2    C14   A    
O10   S2    S    
O18   Zn2   S    
C14   H7    S    
C4    C37   A    
C8    C10   A    
C21   C24   D    
H17   O17   S    
N4    Zn1   S    
C15   C46   A    
C13   S4    S    
C17   O23   A    
C3    C16   S    
C39   H2    S    
C29   N1    A    
