data_mof_unit_40952.cif
_audit_creation_date              2012-12-10T16:48:11-0500
_audit_creation_method            fapswitch 2.2
_symmetry_space_group_name_H-M    P1
_symmetry_Int_Tables_number       1
_space_group_crystal_system       triclinic
_cell_length_a                    15.919696
_cell_length_b                    8.851441
_cell_length_c                    7.713363
_cell_angle_alpha                 104.098529
_cell_angle_beta                  97.896724
_cell_angle_gamma                 102.74673
_cell_volume                      1006.98165595

loop_
_atom_site_label
_atom_site_type_symbol
_atom_type_description
_atom_site_fract_x
_atom_site_fract_y
_atom_site_fract_z
_atom_type_partial_charge
C1    C     C_R   0.497176 0.199589 0.452045 0.754558
C2    C     C_R   0.502824 0.800411 0.547955 0.754558
C3    C     C_R   0.339676 0.498994 0.495358 0.761398
C4    C     C_R   0.660323 0.501005 0.504642 0.761398
C5    C     C_2   0.494680 0.030454 0.427240 0.299910
C6    C     C_2   0.505320 0.969546 0.572760 0.299910
C7    C     C_3   0.964931 0.386327 0.576621 -0.161225
C8    C     C_3   0.035069 0.613672 0.423379 -0.161226
C9    C     C_3   0.001951 0.354154 0.399489 -0.169092
C10   C     C_3   0.998049 0.645846 0.600511 -0.169092
C11   C     C_1   0.249094 0.498254 0.487020 -0.138022
C12   C     C_1   0.750906 0.501746 0.512980 -0.138022
C13   C     C_3   0.046327 0.531200 0.669663 -0.153582
C14   C     C_3   0.953673 0.468800 0.330338 -0.153581
C15   C     C_3   0.081921 0.499030 0.492548 0.192191
C16   C     C_3   0.918079 0.500970 0.507452 0.192191
C17   C     C_1   0.173422 0.498328 0.486842 -0.085102
C18   C     C_1   0.826578 0.501672 0.513158 -0.085102
Cu1   Cu    Cu3+1 0.509330 0.517380 0.684380 0.966163
Cu2   Cu    Cu3+1 0.490670 0.482620 0.315620 0.966163
H1    H     H_    0.004453 0.234236 0.316538 0.123657
H2    H     H_    0.995547 0.765764 0.683462 0.123657
H3    H     H_    0.935053 0.292942 0.639731 0.123639
H4    H     H_    0.064946 0.707058 0.360268 0.123639
H5    H     H_    0.914473 0.443010 0.190812 0.131972
H6    H     H_    0.085527 0.556990 0.809188 0.131972
N1    N     N_2   0.476600 0.456420 0.038510 -0.132876
N2    N     N_2   0.523400 0.543580 0.961490 -0.132876
O1    O     O_R   0.506070 0.286130 0.619780 -0.564969
O2    O     O_R   0.493930 0.713870 0.380220 -0.564969
O3    O     O_R   0.490300 0.256770 0.308360 -0.554589
O4    O     O_R   0.509700 0.743230 0.691640 -0.554589
O5    O     O_R   0.386960 0.514660 0.655680 -0.587556
O6    O     O_R   0.613040 0.485340 0.344320 -0.587556
O7    O     O_R   0.371190 0.485310 0.344260 -0.612165
O8    O     O_R   0.628810 0.514690 0.655740 -0.612165
F1    F     F_    0.479984 0.936530 0.251883 -0.634837
F2    F     F_    0.520016 0.063470 0.748117 -0.634837
C19   C     C_R   0.399550 0.309273 0.942050 0.375204
C20   C     C_R   0.351564 0.219037 0.045730 -0.087824
C21   C     C_R   0.284580 0.075221 0.973412 -0.173272
C22   C     C_R   0.256967 0.010221 0.788123 -0.068892
C23   C     C_R   0.295034 0.092398 0.676944 -0.229802
C24   C     C_R   0.362025 0.236636 0.751067 -0.084247
H7    H     H_    0.360090 0.247852 0.187100 0.169657
H8    H     H_    0.253566 0.014340 0.063450 0.126266
H9    H     H_    0.205204 0.899007 0.731209 0.134195
H10   H     H_    0.271940 0.044490 0.530298 0.118634
H11   H     H_    0.375834 0.274415 0.640286 0.160605
C25   C     C_R   0.600450 0.690727 0.057950 0.375204
C26   C     C_R   0.648436 0.780963 0.954270 -0.087823
C27   C     C_R   0.715420 0.924779 0.026588 -0.173273
C28   C     C_R   0.743033 0.989778 0.211877 -0.068892
C29   C     C_R   0.704966 0.907601 0.323056 -0.229802
C30   C     C_R   0.637975 0.763363 0.248933 -0.084247
H12   H     H_    0.639910 0.752148 0.812899 0.169657
H13   H     H_    0.746434 0.985660 0.936549 0.126266
H14   H     H_    0.794796 0.100992 0.268791 0.134195
H15   H     H_    0.728060 0.955510 0.469702 0.118634
H16   H     H_    0.624166 0.725585 0.359714 0.160605

loop_
_geom_bond_atom_site_label_1
_geom_bond_atom_site_label_2
_ccdc_geom_bond_type
C24   H11   S    
C1    O3    A    
C8    C14   S    
C28   H14   S    
C4    O8    A    
C15   C17   S    
C19   C24   A    
Cu2   N1    S    
C5    F1    S    
C4    C12   S    
C23   H10   S    
Cu1   Cu2   S    
C3    O7    A    
C21   H8    S    
Cu2   O6    S    
C1    O1    A    
C25   C26   A    
C9    C15   S    
C14   H5    S    
C10   C16   S    
C28   C29   A    
C10   H2    S    
Cu1   N2    S    
C9    H1    S    
C2    C6    S    
N2    C25   S    
C14   C16   S    
C1    C5    S    
Cu1   O4    S    
C2    O4    A    
C20   C21   A    
C8    H4    S    
C8    C15   S    
C4    O6    A    
C29   H15   S    
C13   C15   S    
C23   C24   A    
Cu1   O5    S    
C5    C6    D    
C7    H3    S    
C13   H6    S    
C3    C11   S    
C27   H13   S    
C3    O5    A    
C26   C27   A    
Cu1   O1    S    
C7    C13   S    
C22   H9    S    
C2    O2    A    
C27   C28   A    
C16   C18   S    
C26   H12   S    
C21   C22   A    
C12   C18   T    
C19   C20   A    
C7    C9    S    
C9    C14   S    
C29   C30   A    
C11   C17   T    
Cu2   O2    S    
C20   H7    S    
Cu1   O8    S    
C30   H16   S    
Cu2   O7    S    
C6    F2    S    
Cu2   O3    S    
C8    C10   S    
C7    C16   S    
C25   C30   A    
C22   C23   A    
N1    C19   S    
N1    N2    D    
C10   C13   S    
