data_mof_unit_27915.cif
_audit_creation_date              2012-12-11T16:30:33-0500
_audit_creation_method            fapswitch 2.2
_symmetry_space_group_name_H-M    P1
_symmetry_Int_Tables_number       1
_space_group_crystal_system       triclinic
_cell_length_a                    6.949085
_cell_length_b                    14.619805
_cell_length_c                    15.871036
_cell_angle_alpha                 90.0
_cell_angle_beta                  89.895195
_cell_angle_gamma                 89.999813
_cell_volume                      1612.40358141

loop_
_atom_site_label
_atom_site_type_symbol
_atom_type_description
_atom_site_fract_x
_atom_site_fract_y
_atom_site_fract_z
_atom_type_partial_charge
O1    O     O_R   0.611670 0.415650 0.164070 -0.542298
O2    O     O_R   0.388330 0.915650 0.835930 -0.542298
O3    O     O_R   0.940950 0.405490 0.337780 -0.541401
O4    O     O_R   0.059050 0.905490 0.662220 -0.541400
O5    O     O_R   0.111350 0.584350 0.338470 -0.511781
O6    O     O_R   0.888650 0.084350 0.661530 -0.511781
C1    C     C_R   0.771962 0.383711 0.367333 0.732430
C2    C     C_R   0.228039 0.883710 0.632668 0.732430
O7    O     O_R   0.941380 0.404630 0.164680 -0.547123
O8    O     O_R   0.058620 0.904630 0.835320 -0.547123
O9    O     O_R   0.111780 0.583470 0.164130 -0.530323
O10   O     O_R   0.888220 0.083470 0.835870 -0.530322
C3    C     C_R   0.772630 0.382723 0.135999 0.677485
C4    C     C_R   0.227371 0.882723 0.864001 0.677484
O11   O     O_R   0.611240 0.416530 0.338400 -0.539987
O12   O     O_R   0.388760 0.916530 0.661600 -0.539986
O13   O     O_3   0.778020 0.558680 0.251290 -0.344935
O14   O     O_3   0.221980 0.058680 0.748710 -0.344936
V1    V     V_3+5 0.052840 0.489110 0.251260 1.480120
V2    V     V_3+5 0.947160 0.989110 0.748740 1.480121
O15   O     O_R   0.441500 0.594510 0.164760 -0.545153
O16   O     O_R   0.558500 0.094510 0.835240 -0.545154
C5    C     C_R   0.272795 0.616199 0.135879 0.694892
C6    C     C_R   0.727205 0.116199 0.864121 0.694893
O17   O     O_R   0.441080 0.595370 0.337860 -0.536949
O18   O     O_R   0.558920 0.095370 0.662140 -0.536949
C7    C     C_R   0.271583 0.618563 0.366436 0.752334
C8    C     C_R   0.728417 0.118563 0.633564 0.752337
V3    V     V_3+5 0.552850 0.510890 0.251270 1.476179
V4    V     V_3+5 0.447150 0.010890 0.748730 1.476181
O19   O     O_3   0.277800 0.441320 0.251250 -0.378585
O20   O     O_3   0.722200 0.941320 0.748750 -0.378586
C9    C     C_3   0.045266 0.718578 0.455277 0.157011
C10   C     C_3   0.954732 0.218580 0.544725 0.157015
H1    H     H_    0.959551 0.657007 0.472196 0.158828
H2    H     H_    0.040449 0.157009 0.527806 0.158826
C11   C     C_3   0.034743 0.786860 0.529755 -0.300334
C12   C     C_3   0.965258 0.286863 0.470248 -0.300339
H3    H     H_    0.952334 0.754781 0.582250 0.128749
H4    H     H_    0.047672 0.254785 0.417753 0.128750
H5    H     H_    0.953368 0.849013 0.511464 0.229111
H6    H     H_    0.046627 0.349016 0.488540 0.229114
H7    H     H_    0.317118 0.806773 0.353313 0.213606
H8    H     H_    0.682867 0.306771 0.646688 0.213605
C13   C     C_3   0.371480 0.778025 0.413351 -0.362865
C14   C     C_3   0.628512 0.278024 0.586648 -0.362860
C15   C     C_3   0.350830 0.653042 0.520259 0.017923
C16   C     C_3   0.649174 0.153043 0.479740 0.017922
C17   C     C_3   0.258654 0.689918 0.437004 -0.068449
C18   C     C_3   0.741345 0.189919 0.562996 -0.068452
H9    H     H_    0.505371 0.637995 0.508127 0.168469
H10   H     H_    0.494633 0.137995 0.491871 0.168468
C19   C     C_3   0.239016 0.813870 0.561228 -0.040576
C20   C     C_3   0.760986 0.313871 0.438773 -0.040576
C21   C     C_3   0.359867 0.850376 0.485252 0.193048
C22   C     C_3   0.640132 0.350378 0.514748 0.193045
C23   C     C_3   0.338245 0.725186 0.592288 -0.423413
C24   C     C_3   0.661760 0.225187 0.407711 -0.423412
H11   H     H_    0.257485 0.697430 0.647087 0.177842
H12   H     H_    0.742524 0.197432 0.352913 0.177842
H13   H     H_    0.485934 0.740927 0.615152 0.150932
H14   H     H_    0.514072 0.240927 0.384846 0.150932
H15   H     H_    0.524519 0.760515 0.402002 0.179427
H16   H     H_    0.475472 0.260514 0.597992 0.179423
H17   H     H_    0.508695 0.864533 0.507425 0.133877
H18   H     H_    0.491305 0.364536 0.492574 0.133876
H19   H     H_    0.025471 0.580331 0.762223 0.172676
H20   H     H_    0.974535 0.080331 0.237777 0.172674
C25   C     C_R   0.353028 0.933990 0.031208 -0.161920
C26   C     C_R   0.646968 0.433990 0.968792 -0.161919
C27   C     C_R   0.415967 0.960748 0.110786 -0.126844
C28   C     C_R   0.584028 0.460748 0.889214 -0.126844
C29   C     C_R   0.430280 0.896896 0.175277 -0.078624
C30   C     C_R   0.569715 0.396896 0.824724 -0.078621
C31   C     C_R   0.380783 0.805891 0.160756 -0.106414
C32   C     C_R   0.619212 0.305891 0.839244 -0.106411
C33   C     C_R   0.316673 0.776498 0.080592 0.063498
C34   C     C_R   0.683323 0.276497 0.919408 0.063498
C35   C     C_R   0.303296 0.841813 0.014293 0.058068
C36   C     C_R   0.696701 0.341813 0.985708 0.058068
C37   C     C_R   0.262801 0.684166 0.066323 -0.177224
C38   C     C_R   0.737198 0.184166 0.933678 -0.177224
C39   C     C_R   0.197067 0.657015 0.985457 0.059581
C40   C     C_R   0.802935 0.157016 0.014543 0.059581
C41   C     C_R   0.184433 0.722260 0.919038 0.072458
C42   C     C_R   0.815570 0.222261 0.080961 0.072458
C43   C     C_R   0.237549 0.814667 0.933439 -0.176055
C44   C     C_R   0.762451 0.314667 0.066561 -0.176056
C45   C     C_R   0.147087 0.564867 0.968596 -0.165704
C46   C     C_R   0.852918 0.064867 0.031404 -0.165703
C47   C     C_R   0.085371 0.537975 0.888868 -0.106968
C48   C     C_R   0.914635 0.037975 0.111131 -0.106967
C49   C     C_R   0.072739 0.601652 0.824153 -0.104532
C50   C     C_R   0.927267 0.101652 0.175846 -0.104533
C51   C     C_R   0.122065 0.692689 0.838633 -0.155940
C52   C     C_R   0.877940 0.192690 0.161366 -0.155940
H21   H     H_    0.341992 0.986687 0.983630 0.118581
H22   H     H_    0.658005 0.486687 0.016369 0.118581
H23   H     H_    0.452937 0.031548 0.122543 0.142632
H24   H     H_    0.547059 0.531548 0.877457 0.142633
H25   H     H_    0.478991 0.918055 0.237047 0.174824
H26   H     H_    0.521003 0.418055 0.762954 0.174825
H27   H     H_    0.392616 0.759108 0.213164 0.114228
H28   H     H_    0.607378 0.259107 0.786837 0.114229
H29   H     H_    0.157216 0.512277 0.016312 0.116002
H30   H     H_    0.842789 0.012277 0.983688 0.116002
H31   H     H_    0.048362 0.467172 0.877130 0.153916
H32   H     H_    0.951645 0.967172 0.122869 0.153915
H33   H     H_    0.111800 0.739252 0.785922 0.100834
H34   H     H_    0.888205 0.239252 0.214077 0.100835
Br1   Br    Br    0.919359 0.771368 0.355920 -0.561792
Br2   Br    Br    0.080629 0.271370 0.644084 -0.561787
Br3   Br    Br    0.263293 0.966037 0.441748 -0.553503
Br4   Br    Br    0.736709 0.466036 0.558255 -0.553503
I1    I     I_    0.230420 0.525901 0.562685 -0.379878
I2    I     I_    0.769584 0.025901 0.437315 -0.379872

loop_
_geom_bond_atom_site_label_1
_geom_bond_atom_site_label_2
_ccdc_geom_bond_type
C24   H14   S    
V4    O20   S    
C32   H28   S    
C41   C43   A    
C10   Br2   S    
C19   C21   S    
O4    C2    A    
V1    O19   S    
C35   C43   A    
C15   C17   S    
C15   I1    S    
O9    V1    S    
C30   C32   A    
C11   H5    S    
C40   C42   A    
C4    C43   S    
C12   H6    S    
O3    C1    A    
V2    O20   S    
C34   C36   A    
C23   H11   S    
C15   C23   S    
C24   H12   S    
O13   V3    S    
O9    C5    A    
C25   C27   A    
O7    C3    A    
C6    C38   S    
C21   H17   S    
O5    C7    A    
C8    C18   S    
C48   H32   S    
O6    C8    A    
H8    C14   S    
O3    V1    S    
C9    Br1   S    
C13   C17   S    
C45   C47   A    
O16   V4    S    
C10   H2    S    
C30   H26   S    
C11   C19   S    
C16   C18   S    
C2    O12   A    
C36   C44   A    
C31   H27   S    
C29   C31   A    
C40   C46   A    
O1    V3    S    
C37   C39   A    
O7    V1    S    
O11   V3    S    
C33   C35   A    
O17   V3    S    
C39   C45   A    
C20   C22   S    
C10   C18   S    
C42   C44   A    
C26   C36   A    
C47   H31   S    
C46   H30   S    
C28   C30   A    
C51   H33   S    
O8    V2    S    
C27   C29   A    
C19   C23   S    
O13   V1    S    
C15   H9    S    
C21   Br3   S    
C52   H34   S    
C13   H15   S    
C9    C11   S    
C14   H16   S    
C47   C49   A    
C31   C33   A    
C34   C38   A    
C46   C48   A    
C12   C20   S    
C33   C37   A    
O10   V2    S    
C48   C50   A    
C50   C52   A    
H7    C13   S    
C42   C52   A    
O14   V4    S    
C39   C41   A    
O18   V4    S    
C38   C40   A    
O15   C5    A    
O8    C4    A    
O16   C6    A    
C25   C35   A    
O1    C3    A    
C45   H29   S    
C20   C24   S    
C14   C18   S    
C29   H25   S    
C5    C37   S    
C10   C12   S    
C32   C34   A    
C2    C19   S    
C28   H24   S    
C16   C24   S    
C23   H13   S    
O5    V1    S    
O17   C7    A    
O6    V2    S    
O10   C6    A    
O18   C8    A    
C16   I2    S    
O2    V4    S    
V3    O19   S    
C12   H4    S    
C41   C51   A    
C49   C51   A    
O15   V3    S    
C22   H18   S    
C3    C44   S    
C1    O11   A    
C9    H1    S    
O14   V2    S    
C27   H23   S    
O2    C4    A    
H20   C50   S    
O4    V2    S    
C7    C17   S    
C16   H10   S    
C13   C21   S    
C11   H3    S    
C9    C17   S    
C14   C22   S    
H19   C49   S    
C22   Br4   S    
C26   C28   A    
C1    C20   S    
O12   V4    S    
C26   H22   S    
C25   H21   S    
