data_mof_unit_49541.cif
_audit_creation_date              2013-03-05T15:58:55-0500
_audit_creation_method            fapswitch 2.2
_symmetry_space_group_name_H-M    P1
_symmetry_Int_Tables_number       1
_space_group_crystal_system       triclinic
_cell_length_a                    10.635822
_cell_length_b                    12.591093
_cell_length_c                    13.127069
_cell_angle_alpha                 81.988498
_cell_angle_beta                  90.469714
_cell_angle_gamma                 102.497669
_cell_volume                      1699.08894742

loop_
_atom_site_label
_atom_site_type_symbol
_atom_site_description
_atom_site_fract_x
_atom_site_fract_y
_atom_site_fract_z
_atom_type_partial_charge
O1    O     O_R   0.468120 0.366740 0.627160 -0.618952
O2    O     O_R   0.510770 0.544830 0.662520 -0.615813
C1    C     C_R   0.478813 0.438404 0.691181 0.851842
O3    O     O_R   0.663880 0.410950 0.482330 -0.635321
O4    O     O_R   0.706530 0.589040 0.517700 -0.613610
C2    C     C_R   0.741776 0.500629 0.500255 0.833542
Zn1   Zn    Zn3+2 0.471520 0.381090 0.476390 0.926629
Zn2   Zn    Zn3+2 0.528480 0.618910 0.523610 0.958706
O5    O     O_R   0.489230 0.455170 0.337480 -0.622775
O6    O     O_R   0.531880 0.633260 0.372840 -0.576052
O7    O     O_R   0.293470 0.410960 0.482300 -0.628212
O8    O     O_R   0.336120 0.589050 0.517670 -0.659858
C3    C     C_R   0.515926 0.561830 0.307979 0.884576
C4    C     C_R   0.258165 0.499482 0.500653 0.803911
C5    C     C_3   0.904728 0.404301 0.581738 -0.143393
H1    H     H_    0.854968 0.325482 0.555990 0.107685
C6    C     C_3   0.050409 0.406196 0.582363 -0.431428
H2    H     H_    0.092030 0.417488 0.659283 0.197358
H3    H     H_    0.065277 0.325392 0.565669 0.165721
H4    H     H_    0.864004 0.406865 0.370631 0.166688
H5    H     H_    0.072020 0.397286 0.378807 0.107898
C7    C     C_3   0.921108 0.485087 0.392699 -0.422836
C8    C     C_3   0.957635 0.612850 0.526265 -0.343819
C9    C     C_3   0.878482 0.500898 0.501499 0.083788
H6    H     H_    0.943092 0.680498 0.466033 0.197540
H7    H     H_    0.926134 0.631811 0.601001 0.210611
C10   C     C_3   0.121499 0.500113 0.500154 0.098383
C11   C     C_3   0.065299 0.481397 0.392175 -0.143946
C12   C     C_3   0.099691 0.610804 0.529578 -0.343781
H8    H     H_    0.134890 0.621036 0.608568 0.183814
H9    H     H_    0.154110 0.682369 0.476716 0.208350
H10   H     H_    0.900718 0.552324 0.334672 0.207884
C13   C     C_R   0.441327 0.713266 0.054101 -0.243447
H11   H     H_    0.342070 0.712062 0.867216 0.152681
H12   H     H_    0.420496 0.791054 0.020434 0.181585
C14   C     C_R   0.512397 0.598636 0.196997 -0.183738
C15   C     C_R   0.481870 0.294562 0.839085 -0.195507
C16   C     C_R   0.485031 0.262753 0.944477 -0.119936
C17   C     C_R   0.473806 0.336495 0.011807 -0.182654
C18   C     C_R   0.452799 0.442301 0.974074 0.103707
C19   C     C_R   0.427181 0.466002 0.868940 0.085647
C20   C     C_R   0.460298 0.526860 0.035904 0.080188
C21   C     C_R   0.424268 0.626224 0.996075 0.099267
C22   C     C_R   0.375655 0.638728 0.897352 -0.201302
C23   C     C_R   0.375958 0.558976 0.834543 -0.186601
C24   C     C_R   0.508817 0.517251 0.134546 -0.298291
C25   C     C_R   0.489687 0.702104 0.153748 0.324967
C26   C     C_R   0.457223 0.397616 0.800678 -0.111889
H13   H     H_    0.543262 0.445271 0.165707 0.177549
H14   H     H_    0.502179 0.239799 0.787688 0.149761
H15   H     H_    0.479841 0.307855 0.092677 0.138565
H16   H     H_    0.502295 0.182589 0.973983 0.163282
H17   H     H_    0.337148 0.571546 0.758444 0.165941
C27   C     C_R   0.312449 0.086046 0.353799 -0.274904
H18   H     H_    0.294698 0.254014 0.334907 0.130477
H19   H     H_    0.276953 0.877698 0.327439 0.207758
H20   H     H_    0.240502 0.063230 0.297213 0.158660
N1    N     N_R   0.433240 0.222190 0.444680 -0.101716
C28   C     C_R   0.654827 0.799802 0.628013 0.030603
C29   C     C_R   0.686366 0.904272 0.656480 -0.242777
C30   C     C_R   0.626440 0.985454 0.609101 -0.191186
C31   C     C_R   0.534254 0.962053 0.532486 0.018280
C32   C     C_R   0.505362 0.854103 0.506592 0.223949
C33   C     C_R   0.470346 0.041012 0.480303 -0.012923
C34   C     C_R   0.376208 0.009519 0.406308 0.162535
C35   C     C_R   0.348070 0.902447 0.384095 -0.194412
C36   C     C_R   0.414454 0.826873 0.431493 -0.134728
C37   C     C_R   0.496383 0.150876 0.497626 -0.041347
C38   C     C_R   0.342942 0.193332 0.374402 0.006008
N2    N     N_R   0.566070 0.776970 0.554790 -0.129896
H21   H     H_    0.565909 0.182688 0.551958 0.115685
H22   H     H_    0.700808 0.736160 0.664575 0.146126
H23   H     H_    0.653781 0.064953 0.634318 0.128609
H24   H     H_    0.756837 0.922265 0.715150 0.157058
H25   H     H_    0.394328 0.748131 0.406227 0.220788
C39   C     C_2   0.140071 0.559827 0.304173 0.373377
H26   H     H_    0.203454 0.530435 0.255616 0.060005
O9    O     O_2   0.133194 0.656277 0.288299 -0.579377
N3    N     N_R   0.521808 0.797255 0.205738 0.202621
O10   O     O_R   0.630021 0.816698 0.253902 -0.375227
O11   O     O_R   0.462566 0.877375 0.182576 -0.419980
C40   C     C_2   0.850784 0.403221 0.688472 0.378781
H27   H     H_    0.762908 0.344346 0.715070 0.053715
O12   O     O_2   0.902131 0.469206 0.744259 -0.571465

loop_
_geom_bond_atom_site_label_1
_geom_bond_atom_site_label_2
_geom_bond_distance
_ccdc_geom_bond_type
C17   H15   1.078564 S    
C10   C12   1.561059 S    
C25   N3    1.436936 S    
C27   C34   1.397654 A    
Zn1   O7    2.013053 S    
C24   H13   1.077426 S    
C31   C32   1.415530 A    
C7    H10   1.113985 S    
C33   C37   1.401003 A    
C15   C16   1.387871 A    
C39   O9    1.221166 D    
C16   C17   1.391405 A    
O7    C4    1.303383 A    
C16   H16   1.082873 S    
C5    H1    1.114671 S    
C1    C26   1.459844 S    
C14   C25   1.416208 A    
C5    C6    1.544424 S    
C20   C24   1.389257 A    
C8    H7    1.112219 S    
O5    C3    1.313759 A    
C31   C33   1.419388 A    
C13   H12   1.084141 S    
C8    C9    1.552746 S    
C14   C24   1.392968 A    
C4    C10   1.455252 S    
Zn1   N1    2.053960 S    
C28   H22   1.081756 S    
C18   C20   1.414837 A    
C35   C36   1.381883 A    
C23   H17   1.082025 S    
C28   C29   1.387955 A    
C7    C11   1.544410 S    
O3    Zn1   2.001453 S    
C5    C40   1.515561 S    
C32   C36   1.399786 A    
C13   C21   1.399501 A    
H11   C22   1.084109 S    
C39   H26   1.085565 S    
C3    C14   1.468694 S    
O3    C2    1.297200 A    
C17   C18   1.418845 A    
N3    O11   1.301379 A    
C30   H23   1.077456 S    
C29   C30   1.391450 A    
O1    C1    1.303379 A    
C6    C10   1.550908 S    
C21   C22   1.392463 A    
C12   H8    1.114418 S    
C32   N2    1.361554 A    
Zn2   O8    2.001453 S    
C2    C9    1.453222 S    
C6    H2    1.114090 S    
C15   C26   1.403303 A    
H18   C38   1.082010 S    
N1    C37   1.348970 A    
C18   C19   1.407904 A    
H5    C11   1.114571 S    
H4    C7    1.113815 S    
C34   C35   1.387678 A    
C40   O12   1.221268 D    
C13   C25   1.401554 A    
C7    C9    1.553682 S    
C36   H25   1.066504 S    
C20   C21   1.416810 A    
C11   C39   1.516351 S    
C8    C12   1.516830 S    
C22   C23   1.385780 A    
Zn1   O5    1.919915 S    
C5    C9    1.565784 S    
O1    Zn1   1.962074 S    
O2    Zn2   1.919915 S    
O8    C4    1.292932 A    
O6    C3    1.306774 A    
O4    Zn2   2.013054 S    
N1    C38   1.354010 A    
Zn2   N2    2.041586 S    
C33   C34   1.422244 A    
O2    C1    1.310414 A    
C12   H9    1.111330 S    
C15   H14   1.083439 S    
O4    C2    1.298169 A    
C27   C38   1.383438 A    
C37   H21   1.076440 S    
H19   C35   1.084308 S    
C29   H24   1.082559 S    
C6    H3    1.113786 S    
C19   C26   1.409014 A    
C8    H6    1.114395 S    
C30   C31   1.414581 A    
C28   N2    1.357341 A    
N3    O10   1.301390 A    
Zn2   O6    1.962071 S    
C40   H27   1.085504 S    
C10   C11   1.562120 S    
C19   C23   1.412706 A    
C27   H20   1.083907 S    
