data_mof_unit_49041.cif
_audit_creation_date              2013-03-05T15:42:19-0500
_audit_creation_method            fapswitch 2.2
_symmetry_space_group_name_H-M    P1
_symmetry_Int_Tables_number       1
_space_group_crystal_system       triclinic
_cell_length_a                    7.907109
_cell_length_b                    8.734613
_cell_length_c                    19.12034
_cell_angle_alpha                 93.169067
_cell_angle_beta                  84.807938
_cell_angle_gamma                 93.412246
_cell_volume                      1311.15206707

loop_
_atom_site_label
_atom_site_type_symbol
_atom_site_description
_atom_site_fract_x
_atom_site_fract_y
_atom_site_fract_z
_atom_type_partial_charge
O1    O     O_R   0.389250 0.738570 0.504600 -0.593118
O2    O     O_R   0.610750 0.261430 0.495400 -0.596845
O3    O     O_R   0.678400 0.711620 0.492580 -0.669062
O4    O     O_R   0.321600 0.288380 0.507420 -0.667344
C1    C     C_R   0.544442 0.793128 0.496998 0.880689
C2    C     C_R   0.455624 0.206583 0.501716 0.861119
O5    O     O_R   0.355380 0.513500 0.607880 -0.625335
O6    O     O_R   0.644620 0.486500 0.392120 -0.629803
O7    O     O_R   0.644530 0.486550 0.595850 -0.627595
O8    O     O_R   0.355470 0.513450 0.404150 -0.619571
C3    C     C_R   0.499732 0.498755 0.633789 0.829906
C4    C     C_R   0.500061 0.500759 0.366239 0.829695
Zn1   Zn    Zn3+2 0.306930 0.517990 0.508030 0.956260
Zn2   Zn    Zn3+2 0.693070 0.482010 0.491970 0.950056
C5    C     C_R   0.458567 0.619669 0.750523 -0.160099
C6    C     C_R   0.539822 0.365953 0.252739 -0.155360
H1    H     H_    0.435686 0.723976 0.725375 0.197916
H2    H     H_    0.568910 0.267169 0.280608 0.184581
C7    C     C_R   0.450213 0.618317 0.823393 -0.040813
C8    C     C_R   0.539278 0.355334 0.180028 -0.035531
C9    C     C_R   0.487271 0.482606 0.854385 -0.070804
C10   C     C_R   0.495963 0.484363 0.145637 -0.067730
C11   C     C_R   0.524385 0.347081 0.812943 -0.007719
C12   C     C_R   0.457500 0.624145 0.183433 -0.010161
C13   C     C_R   0.520151 0.347914 0.739282 -0.105958
C14   C     C_R   0.464041 0.634351 0.257203 -0.119537
C15   C     C_R   0.496584 0.488175 0.709073 -0.136938
C16   C     C_R   0.500721 0.501739 0.290716 -0.143196
N1    N     N_R   0.638244 0.472766 0.958906 -0.139025
N2    N     N_R   0.343530 0.484634 0.040994 -0.147682
N3    N     N_R   0.639813 0.469558 0.028123 -0.130045
N4    N     N_R   0.341924 0.487684 0.971769 -0.134974
C17   C     C_R   0.492419 0.474958 0.069901 0.305472
C18   C     C_R   0.489395 0.482756 0.930025 0.320374
C19   C     C_2   0.568255 0.955157 0.499892 -0.216394
C20   C     C_2   0.432807 0.044323 0.496372 -0.218449
N5    N     N_2   0.950330 0.457950 0.481240 -0.052871
N6    N     N_2   0.049670 0.542050 0.518760 -0.055116
C21   C     C_2   0.407937 0.760829 0.866119 0.460926
H3    H     H_    0.423295 0.770571 0.921996 0.109172
O9    O     O_2   0.353832 0.869614 0.839282 -0.507234
C22   C     C_2   0.579569 0.207713 0.141115 0.463693
H4    H     H_    0.563478 0.190976 0.085443 0.110937
O10   O     O_2   0.631914 0.102230 0.170950 -0.527172
C23   C     C_2   0.572527 0.206931 0.845916 0.553011
H5    H     H_    0.669579 0.136489 0.819290 0.095994
O11   O     O_2   0.502872 0.167324 0.902171 -0.535792
C24   C     C_2   0.414679 0.758726 0.145245 0.528868
H6    H     H_    0.303218 0.821444 0.163040 0.112058
O12   O     O_2   0.503722 0.800347 0.093465 -0.540691
C25   C     C_2   0.524683 0.203583 0.693503 0.412777
H7    H     H_    0.541821 0.209751 0.637163 0.126204
O13   O     O_2   0.499516 0.076563 0.717301 -0.563942
C26   C     C_2   0.450848 0.782921 0.299711 0.500731
H8    H     H_    0.497179 0.793783 0.351424 0.076094
O14   O     O_2   0.390466 0.894968 0.278399 -0.563092
C27   C     C_2   0.744782 0.010270 0.513502 0.412813
H9    H     H_    0.849118 0.981075 0.475273 0.059763
O15   O     O_2   0.775089 0.077741 0.568915 -0.597302
C28   C     C_2   0.258012 0.988536 0.480353 0.413643
H10   H     H_    0.150067 0.022525 0.515592 0.061613
O16   O     O_2   0.233591 0.912716 0.426336 -0.569111
C29   C     C_3   0.014899 0.322296 0.443095 -0.147050
C30   C     C_3   0.928534 0.285132 0.375102 -0.428376
C31   C     C_3   0.015182 0.157723 0.329835 -0.822852
H11   H     H_    0.151151 0.191513 0.315611 0.282730
H12   H     H_    0.006067 0.049985 0.358414 0.286903
H13   H     H_    0.950914 0.135975 0.280665 0.280138
H14   H     H_    0.794142 0.245662 0.387058 0.261797
H15   H     H_    0.934911 0.389454 0.343986 0.254365
H16   H     H_    0.148244 0.338537 0.426068 0.236566
H17   H     H_    0.996825 0.224344 0.477548 0.174235
C32   C     C_3   0.985435 0.678379 0.556522 -0.148708
C33   C     C_3   0.072380 0.716605 0.624319 -0.411235
C34   C     C_3   0.988599 0.847043 0.668508 -0.831052
H18   H     H_    0.002536 0.954066 0.639339 0.287255
H19   H     H_    0.851471 0.817028 0.682165 0.275081
H20   H     H_    0.051709 0.868119 0.717996 0.285932
H21   H     H_    0.063970 0.613431 0.656264 0.249851
H22   H     H_    0.207348 0.753715 0.612229 0.267930
H23   H     H_    0.003310 0.776037 0.521750 0.175848
H24   H     H_    0.852164 0.662089 0.573910 0.237689

loop_
_geom_bond_atom_site_label_1
_geom_bond_atom_site_label_2
_geom_bond_distance
_ccdc_geom_bond_type
C6    C16   1.391891 A    
C11   C23   1.491708 S    
C32   C33   1.533172 S    
C19   C20   1.369777 D    
O7    Zn2   1.987229 S    
C21   O9    1.221156 D    
C23   H5    1.085141 S    
C5    C7    1.389546 A    
C4    C16   1.444062 S    
O1    C1    1.288337 A    
C7    C9    1.411592 A    
C12   C14   1.413827 A    
C27   O15   1.219597 D    
C28   O16   1.219763 D    
O4    Zn1   2.015118 S    
C31   H12   1.109506 S    
N3    C17   1.353693 A    
C30   H15   1.111683 S    
C6    C8    1.388607 A    
C24   O12   1.221174 D    
C33   H22   1.104487 S    
O2    C2    1.287742 A    
C22   O10   1.221424 D    
C14   C26   1.496556 S    
C32   H23   1.104977 S    
N5    C29   1.451079 S    
O8    C4    1.304245 A    
C23   O11   1.221146 D    
C26   O14   1.219333 D    
C33   C34   1.527379 S    
C25   H7    1.077426 S    
C12   C24   1.488836 S    
O4    C2    1.306142 A    
C21   H3    1.084275 S    
C9    C18   1.447803 S    
C20   C28   1.490453 S    
N1    C18   1.353874 A    
C28   H10   1.083795 S    
C25   O13   1.220949 D    
N4    C18   1.353646 A    
O5    C3    1.300654 A    
C34   H18   1.109646 S    
C13   C25   1.494806 S    
N5    N6    1.283083 D    
O7    C3    1.305420 A    
C5    C15   1.391042 A    
C3    C15   1.445379 S    
O6    C4    1.301178 A    
C31   H13   1.110597 S    
C30   H14   1.105208 S    
C34   H19   1.111348 S    
Zn1   N6    2.048108 S    
O3    Zn2   2.015118 S    
C7    C21   1.488723 S    
C24   H6    1.084071 S    
C29   H16   1.078419 S    
C33   H21   1.111762 S    
C9    C11   1.418037 A    
C10   C12   1.418564 A    
O1    Zn1   1.999260 S    
C22   H4    1.084307 S    
C32   H24   1.079456 S    
C5    H1    1.085265 S    
C10   C17   1.448596 S    
C26   H8    1.082554 S    
O6    Zn2   1.983850 S    
N2    C17   1.354029 A    
C8    C10   1.410154 A    
O3    C1    1.304937 A    
O8    Zn1   1.987233 S    
C8    C22   1.489157 S    
C13   C15   1.412161 A    
C14   C16   1.411419 A    
C19   C27   1.489856 S    
C30   C31   1.527719 S    
N1    N3    1.326508 A    
Zn2   N5    2.048108 S    
N2    N4    1.326567 A    
C27   H9    1.084084 S    
C1    C19   1.415272 S    
C2    C20   1.417233 S    
C11   C13   1.412271 A    
O2    Zn2   1.999260 S    
C34   H20   1.110637 S    
C29   C30   1.532816 S    
O5    Zn1   1.983848 S    
C29   H17   1.103226 S    
C6    H2    1.085346 S    
C31   H11   1.111374 S    
N6    C32   1.451833 S    
