data_mof_unit_26515.cif
_audit_creation_date              2012-12-11T14:08:45-0500
_audit_creation_method            fapswitch 2.2
_symmetry_space_group_name_H-M    P1
_symmetry_Int_Tables_number       1
_space_group_crystal_system       triclinic
_cell_length_a                    28.046951
_cell_length_b                    7.185602
_cell_length_c                    17.194334
_cell_angle_alpha                 90.014749
_cell_angle_beta                  101.662172
_cell_angle_gamma                 90.162798
_cell_volume                      3393.69700686

loop_
_atom_site_label
_atom_site_type_symbol
_atom_type_description
_atom_site_fract_x
_atom_site_fract_y
_atom_site_fract_z
_atom_type_partial_charge
O1    O     O_R   0.000700 0.436510 0.857920 -0.531200
O2    O     O_R   0.999300 0.563490 0.142080 -0.533618
O3    O     O_R   0.999300 0.936510 0.642080 -0.531649
O4    O     O_R   0.000700 0.063490 0.357920 -0.533321
O5    O     O_R   0.930080 0.766380 0.721890 -0.514941
O6    O     O_R   0.069920 0.233620 0.278110 -0.516215
O7    O     O_R   0.069920 0.266380 0.778110 -0.515598
O8    O     O_R   0.930080 0.733620 0.221890 -0.516012
C1    C     C_R   0.910700 0.598192 0.705819 0.748266
C2    C     C_R   0.089543 0.402528 0.290214 0.751408
C3    C     C_R   0.089246 0.098594 0.793916 0.749613
C4    C     C_R   0.910453 0.902002 0.209905 0.750700
O9    O     O_R   0.996180 0.766230 0.862310 -0.546114
O10   O     O_R   0.003820 0.233770 0.137690 -0.545947
O11   O     O_R   0.003820 0.266230 0.637690 -0.545864
O12   O     O_R   0.996180 0.733770 0.362310 -0.545852
O13   O     O_R   0.065870 0.936460 0.783500 -0.538092
O14   O     O_R   0.934130 0.063540 0.216500 -0.537667
O15   O     O_R   0.934130 0.436460 0.716500 -0.537941
O16   O     O_R   0.065870 0.563540 0.283500 -0.537620
C5    C     C_R   0.998489 0.596478 0.894512 0.787592
C6    C     C_R   0.001535 0.403529 0.105493 0.774618
C7    C     C_R   0.001520 0.096457 0.605491 0.787696
C8    C     C_R   0.998466 0.903548 0.394507 0.775891
O17   O     O_3   0.022790 0.603020 0.723980 -0.376143
O18   O     O_3   0.977210 0.396980 0.276020 -0.376406
O19   O     O_3   0.977210 0.103020 0.776020 -0.375588
O20   O     O_3   0.022790 0.896980 0.223980 -0.377247
V1    V     V_3+5 0.995770 0.877900 0.754830 1.521629
V2    V     V_3+5 0.004230 0.122100 0.245170 1.518261
V3    V     V_3+5 0.004230 0.377900 0.745170 1.522680
V4    V     V_3+5 0.995770 0.622100 0.254830 1.518984
C9    C     C_2   0.001705 0.082739 0.519560 -0.288426
C10   C     C_2   0.998226 0.917279 0.480421 -0.288733
C11   C     C_2   0.998313 0.582722 0.980459 -0.290177
C12   C     C_2   0.001781 0.417300 0.019568 -0.288707
H1    H     H_    0.004573 0.211758 0.487900 0.150197
H2    H     H_    0.995343 0.788266 0.512078 0.150745
H3    H     H_    0.995458 0.711676 0.012152 0.149503
H4    H     H_    0.004656 0.288352 0.987880 0.151300
C13   C     C_R   0.682159 0.103315 0.088573 0.675315
C14   C     C_R   0.313562 0.924413 0.978178 0.687204
C15   C     C_R   0.318592 0.618982 0.405720 0.679921
C16   C     C_R   0.686899 0.453789 0.509149 0.677135
O21   O     O_2   0.712039 0.213799 0.056430 -0.488636
O22   O     O_2   0.282691 0.813604 0.007943 -0.478289
O23   O     O_2   0.288986 0.739948 0.432789 -0.488334
O24   O     O_2   0.718269 0.364541 0.472125 -0.475946
N1    N     N_R   0.701398 0.969461 0.142488 -0.546637
N2    N     N_R   0.295582 0.047537 0.918678 -0.549543
N3    N     N_R   0.298984 0.473083 0.358293 -0.546041
N4    N     N_R   0.704225 0.548826 0.578286 -0.548872
C17   C     C_R   0.671686 0.857390 0.176542 0.642097
C18   C     C_R   0.326205 0.161001 0.887456 0.645621
C19   C     C_R   0.328533 0.346441 0.331592 0.635367
C20   C     C_R   0.673204 0.641875 0.616684 0.656766
C21   C     C_R   0.783357 0.082796 0.207907 0.348360
C22   C     C_R   0.218998 0.918470 0.838399 0.343581
C23   C     C_R   0.217009 0.578919 0.289003 0.347331
C24   C     C_R   0.780669 0.414495 0.656055 0.344132
C25   C     C_R   0.834052 0.065814 0.221671 -0.225744
C26   C     C_R   0.168938 0.934538 0.808112 -0.221648
C27   C     C_R   0.166238 0.561575 0.275047 -0.229859
C28   C     C_R   0.830742 0.430202 0.687310 -0.219259
C29   C     C_R   0.826170 0.774514 0.148441 0.256149
C30   C     C_R   0.167939 0.230999 0.875783 0.250442
C31   C     C_R   0.173574 0.283139 0.356409 0.253103
C32   C     C_R   0.831997 0.733426 0.625213 0.254389
C33   C     C_R   0.775365 0.793113 0.134302 -0.112725
C34   C     C_R   0.217979 0.213719 0.905925 -0.103122
C35   C     C_R   0.224442 0.302622 0.371159 -0.112139
C36   C     C_R   0.781943 0.716847 0.594629 -0.108462
C37   C     C_R   0.753600 0.947022 0.163078 0.243040
C38   C     C_R   0.243816 0.058445 0.887951 0.243941
C39   C     C_R   0.246608 0.450424 0.338359 0.242063
C40   C     C_R   0.755976 0.558752 0.609537 0.249380
C41   C     C_R   0.600259 0.004854 0.096425 -0.020877
C42   C     C_R   0.396002 0.032968 0.979339 -0.040695
C43   C     C_R   0.400305 0.513198 0.401153 -0.039500
C44   C     C_R   0.604209 0.546113 0.514413 -0.049021
C45   C     C_R   0.631428 0.126038 0.066121 -0.089054
C46   C     C_R   0.364144 0.912167 0.008203 -0.094277
C47   C     C_R   0.369437 0.642510 0.427349 -0.095627
C48   C     C_R   0.636514 0.449538 0.476286 -0.097410
C49   C     C_R   0.611493 0.274403 0.018154 -0.111932
C50   C     C_R   0.383522 0.772833 0.061751 -0.116111
C51   C     C_R   0.389889 0.794783 0.473076 -0.118030
C52   C     C_R   0.618091 0.357198 0.404793 -0.118732
C53   C     C_R   0.620606 0.873874 0.154469 -0.036675
C54   C     C_R   0.376762 0.155852 0.917089 -0.039189
C55   C     C_R   0.379689 0.364107 0.352505 -0.034113
C56   C     C_R   0.622768 0.642858 0.585425 -0.044857
C57   C     C_R   0.856315 0.912949 0.192225 -0.163393
C58   C     C_R   0.142665 0.090389 0.825696 -0.163449
C59   C     C_R   0.143705 0.414737 0.308299 -0.159957
C60   C     C_R   0.857201 0.589457 0.673129 -0.165254
H5    H     H_    0.752548 0.689077 0.099211 0.192708
H6    H     H_    0.237034 0.321386 0.944265 0.194664
H7    H     H_    0.246975 0.203815 0.409538 0.192714
H8    H     H_    0.762979 0.827304 0.558183 0.192216
H9    H     H_    0.635047 0.380635 0.001540 0.199055
H10   H     H_    0.359648 0.668289 0.078773 0.204354
H11   H     H_    0.366739 0.903763 0.488247 0.200793
H12   H     H_    0.642787 0.292903 0.371854 0.214268
C61   C     C_R   0.478397 0.151522 0.980271 0.097691
C62   C     C_R   0.517773 0.893267 0.101199 0.105204
C63   C     C_R   0.521844 0.656953 0.517392 0.071637
C64   C     C_R   0.482763 0.407133 0.394041 0.092547
C65   C     C_R   0.466568 0.891119 0.068868 -0.002009
C66   C     C_R   0.529080 0.156146 0.013864 0.008128
C67   C     C_R   0.534316 0.432897 0.414789 -0.015417
C68   C     C_R   0.471721 0.669734 0.480914 -0.019729
C69   C     C_R   0.447122 0.027066 0.010724 0.070758
C70   C     C_R   0.548825 0.016881 0.069717 0.086536
C71   C     C_R   0.553350 0.545701 0.481855 0.047320
C72   C     C_R   0.451743 0.531050 0.424880 0.053027
C73   C     C_R   0.458408 0.254865 0.911716 -0.097308
C74   C     C_R   0.539177 0.785647 0.167856 -0.047240
C75   C     C_R   0.540920 0.740020 0.591492 -0.096179
C76   C     C_R   0.461069 0.253587 0.348948 -0.045789
C77   C     C_R   0.408545 0.262769 0.882594 -0.094608
C78   C     C_R   0.589538 0.769612 0.191761 -0.069299
C79   C     C_R   0.590514 0.735397 0.624384 -0.102280
C80   C     C_R   0.410574 0.233526 0.327834 -0.091021
O25   O     O_2   0.307835 0.277318 0.827320 -0.475576
O26   O     O_2   0.691399 0.730989 0.231613 -0.479103
O27   O     O_2   0.691123 0.733699 0.684837 -0.476713
O28   O     O_2   0.308579 0.204179 0.284830 -0.479055
C81   C     C_R   0.561246 0.297738 0.996521 0.257366
C82   C     C_R   0.433758 0.752454 0.087310 0.244468
C83   C     C_R   0.440238 0.812163 0.498422 0.228499
C84   C     C_R   0.568065 0.350837 0.373025 0.224687
H13   H     H_    0.150608 0.825162 0.769943 0.186501
H14   H     H_    0.856149 0.172067 0.256568 0.182912
H15   H     H_    0.848931 0.317545 0.723291 0.190291
H16   H     H_    0.144265 0.662141 0.236774 0.178485
H17   H     H_    0.395171 0.348751 0.831099 0.186226
H18   H     H_    0.603993 0.678913 0.241185 0.184939
H19   H     H_    0.603394 0.803604 0.680952 0.187353
H20   H     H_    0.395861 0.112850 0.293283 0.173495
Br1   Br    Br    0.851475 0.563044 0.101757 -0.484988
Br2   Br    Br    0.136640 0.444665 0.910315 -0.501533
Br3   Br    Br    0.147481 0.080583 0.407774 -0.486935
Br4   Br    Br    0.863307 0.951312 0.593754 -0.505814
Br5   Br    Br    0.252578 0.706185 0.808932 -0.407324
Br6   Br    Br    0.755934 0.291949 0.252384 -0.389709
Br7   Br    Br    0.746800 0.195576 0.678722 -0.424500
Br8   Br    Br    0.244655 0.777121 0.237718 -0.387187
H21   H     H_    0.481034 0.322862 0.876631 0.177007
H22   H     H_    0.517667 0.719391 0.205115 0.179280
H23   H     H_    0.517491 0.800979 0.627114 0.183186
H24   H     H_    0.482617 0.140054 0.334061 0.168882
Br9   Br    Br    0.541938 0.547717 0.963289 -0.552620
Br10  Br    Br    0.451662 0.505233 0.126090 -0.520345
Br11  Br    Br    0.462130 0.052794 0.541242 -0.577695
Br12  Br    Br    0.551693 0.264521 0.264827 -0.569158

loop_
_geom_bond_atom_site_label_1
_geom_bond_atom_site_label_2
_ccdc_geom_bond_type
O17   V3    S    
C35   C39   A    
C61   C66   A    
N1    C17   A    
O1    C5    A    
C79   H19   S    
O19   V1    S    
O13   V1    S    
C63   C68   A    
C64   C76   A    
O3    C7    A    
C11   C12   D    
C14   C46   A    
C44   C48   A    
O15   V3    S    
C36   H8    S    
C22   Br5   S    
O4    V2    S    
C42   C54   A    
O18   V4    S    
C41   C53   A    
C32   C60   A    
C62   C70   A    
C26   H13   S    
O9    V1    S    
N3    C39   S    
C18   C54   A    
N2    C38   S    
C74   C78   A    
C11   H3    S    
O4    C8    A    
C25   C57   A    
C31   C35   A    
C53   C78   A    
C21   C37   A    
C27   C59   A    
O1    V3    S    
C15   C47   A    
C66   C81   A    
O2    V4    S    
C14   O22   S    
C20   O27   S    
C77   H17   S    
C74   H22   S    
C73   C77   A    
C34   C38   A    
C19   C55   A    
C49   C81   A    
C76   C80   A    
C1    O15   A    
C2    O16   A    
C7    C9    S    
O2    C6    A    
C33   C37   A    
O14   V2    S    
C24   Br7   S    
C66   C70   A    
C43   C55   A    
C65   C69   A    
C30   C58   A    
C23   Br8   S    
C16   N4    A    
O11   C7    A    
C28   H15   S    
C31   Br3   S    
O12   C8    A    
C21   Br6   S    
C62   C74   A    
C31   C59   A    
C61   C73   A    
O10   V2    S    
C63   C75   A    
C52   H12   S    
C25   H14   S    
O5    V1    S    
C75   H23   S    
C18   O25   S    
C76   H24   S    
O7    V3    S    
O8    V4    S    
C12   H4    S    
C28   C60   A    
C56   C79   A    
C50   C82   A    
N4    C40   S    
C46   C50   A    
C35   H7    S    
C24   C40   A    
C8    C10   S    
C32   C36   A    
C44   C56   A    
O7    C3    A    
O5    C1    A    
C29   Br1   S    
C42   C46   A    
C44   C71   A    
C41   C45   A    
O8    C4    A    
C13   C45   A    
C9    C10   D    
O9    C5    A    
C36   C40   A    
C82   Br10  S    
N2    C18   A    
O11   V3    S    
C1    C60   S    
C78   H18   S    
C51   C83   A    
C22   C26   A    
C14   N2    A    
C51   H11   S    
C3    C58   S    
O6    V2    S    
C55   C80   A    
C26   C58   A    
C17   C53   A    
O10   C6    A    
C54   C77   A    
N1    C37   S    
C4    C57   S    
C42   C69   A    
C52   C84   A    
C41   C70   A    
C50   H10   S    
C23   C39   A    
C68   C72   A    
C49   H9    S    
C22   C38   A    
O16   V4    S    
C61   C69   A    
C3    O13   A    
C10   H2    S    
C80   H20   S    
C48   C52   A    
C16   C48   A    
C47   C51   A    
O6    C2    A    
C32   Br4   S    
C67   C71   A    
C21   C25   A    
C30   Br2   S    
C75   C79   A    
O12   V4    S    
C13   N1    A    
C6    C12   S    
C23   C27   A    
C64   C67   A    
C24   C28   A    
C27   H16   S    
C64   C72   A    
C83   Br11  S    
C5    C11   S    
C81   Br9   S    
O3    V1    S    
C30   C34   A    
N4    C20   A    
C2    C59   S    
C15   N3    A    
C29   C33   A    
O20   V2    S    
C29   C57   A    
C84   Br12  S    
C63   C71   A    
N3    C19   A    
C68   C83   A    
C9    H1    S    
C17   O26   S    
C43   C47   A    
C16   O24   S    
C67   C84   A    
C20   C56   A    
C19   O28   S    
C4    O14   A    
C65   C82   A    
C13   O21   S    
C73   H21   S    
C43   C72   A    
C15   O23   S    
C45   C49   A    
C34   H6    S    
C62   C65   A    
C33   H5    S    
