data_mof_unit_68327.cif
_audit_creation_date              2012-12-11T14:03:37-0500
_audit_creation_method            fapswitch 2.2
_symmetry_space_group_name_H-M    P1
_symmetry_Int_Tables_number       1
_space_group_crystal_system       triclinic
_cell_length_a                    6.932838
_cell_length_b                    11.460296
_cell_length_c                    18.647268
_cell_angle_alpha                 89.997229
_cell_angle_beta                  92.818153
_cell_angle_gamma                 89.966961
_cell_volume                      1479.77769527

loop_
_atom_site_label
_atom_site_type_symbol
_atom_type_description
_atom_site_fract_x
_atom_site_fract_y
_atom_site_fract_z
_atom_type_partial_charge
O1    O     O_R   0.330540 0.606360 0.598870 -0.544167
O2    O     O_R   0.669460 0.106360 0.401130 -0.547361
O3    O     O_R   0.026770 0.620470 0.750430 -0.547017
O4    O     O_R   0.973230 0.120470 0.249570 -0.540038
O5    O     O_R   0.856460 0.393640 0.750930 -0.541154
O6    O     O_R   0.143540 0.893640 0.249070 -0.543183
C1    C     C_R   0.199274 0.648570 0.774623 0.740341
C2    C     C_R   0.800620 0.148156 0.225189 0.701037
O7    O     O_R   0.000920 0.620350 0.599420 -0.543661
O8    O     O_R   0.999080 0.120350 0.400580 -0.541767
O9    O     O_R   0.830430 0.393520 0.598850 -0.536206
O10   O     O_R   0.169570 0.893520 0.401150 -0.535969
C3    C     C_R   0.167987 0.649423 0.575577 0.751371
C4    C     C_R   0.831961 0.149447 0.424395 0.735194
O11   O     O_R   0.356570 0.606480 0.750960 -0.531280
O12   O     O_R   0.643430 0.106480 0.249040 -0.537115
O13   O     O_3   0.176990 0.425580 0.674890 -0.375883
O14   O     O_3   0.823010 0.925580 0.325110 -0.371876
V1    V     V_3+5 0.902170 0.513810 0.674910 1.480558
V2    V     V_3+5 0.097830 0.013810 0.325090 1.474837
O15   O     O_R   0.500800 0.379530 0.599380 -0.540863
O16   O     O_R   0.499200 0.879530 0.400620 -0.538940
C5    C     C_R   0.666970 0.353173 0.574289 0.816110
C6    C     C_R   0.333067 0.853182 0.425726 0.818856
O17   O     O_R   0.526650 0.379650 0.750390 -0.548593
O18   O     O_R   0.473350 0.879650 0.249610 -0.543538
C7    C     C_R   0.698003 0.351396 0.774394 0.689076
C8    C     C_R   0.302129 0.851485 0.225564 0.692180
V3    V     V_3+5 0.402160 0.486190 0.674900 1.471723
V4    V     V_3+5 0.597840 0.986190 0.325100 1.460673
O19   O     O_3   0.677210 0.574420 0.674910 -0.373407
O20   O     O_3   0.322790 0.074420 0.325090 -0.375909
C9    C     C_R   0.727573 0.067857 0.878907 0.011183
C10   C     C_R   0.275908 0.568777 0.120276 0.007534
H1    H     H_    0.690493 0.943559 0.002247 0.125285
H2    H     H_    0.318453 0.445816 0.996968 0.119924
C11   C     C_R   0.710993 0.266978 0.833674 -0.096672
C12   C     C_R   0.289679 0.767511 0.166052 -0.101482
C13   C     C_R   0.789028 0.353206 0.182588 0.108677
C14   C     C_R   0.204506 0.854290 0.816045 0.134001
C15   C     C_R   0.784038 0.436518 0.127338 0.050407
C16   C     C_R   0.218192 0.938400 0.871579 0.007494
C17   C     C_R   0.781940 0.399865 0.054729 0.098620
C18   C     C_R   0.220280 0.901812 0.944295 0.107812
C19   C     C_R   0.748997 0.279078 0.036270 0.011673
C20   C     C_R   0.252208 0.781014 0.963092 0.009146
C21   C     C_R   0.750097 0.196770 0.093820 0.013744
C22   C     C_R   0.252319 0.698747 0.905585 -0.003901
C23   C     C_R   0.725056 0.234999 0.963599 0.137783
C24   C     C_R   0.276191 0.736726 0.035891 0.133017
C25   C     C_R   0.723409 0.112163 0.950458 0.077525
C26   C     C_R   0.279764 0.613773 0.048855 0.082273
C27   C     C_R   0.710637 0.036418 0.008981 -0.211815
C28   C     C_R   0.295520 0.538484 0.990317 -0.191815
C29   C     C_R   0.723984 0.077543 0.078674 -0.164866
C30   C     C_R   0.281591 0.579723 0.920723 -0.166267
C31   C     C_R   0.693778 0.307950 0.903380 -0.251304
C32   C     C_R   0.305881 0.809201 0.096449 -0.238240
C33   C     C_R   0.730613 0.147056 0.820893 0.180527
C34   C     C_R   0.273170 0.647395 0.178576 0.168509
C35   C     C_R   0.780565 0.233749 0.165998 -0.113962
C36   C     C_R   0.218779 0.735149 0.833411 -0.094373
H3    H     H_    0.650333 0.397154 0.908568 0.118165
H4    H     H_    0.349247 0.898402 0.091928 0.117358
H5    H     H_    0.717140 0.013228 0.120978 0.125929
H6    H     H_    0.290191 0.515447 0.878484 0.120944
C37   C     C_2   0.821825 0.248287 0.474953 -0.218980
C38   C     C_2   0.178064 0.748273 0.525010 -0.213034
C39   C     C_2   0.672142 0.259795 0.520378 -0.005241
C40   C     C_2   0.327916 0.759802 0.479648 -0.005762
N1    N     N_3   0.751214 0.105052 0.749107 -0.613901
H7    H     H_    0.630241 0.131005 0.717336 0.228635
H8    H     H_    0.873617 0.143697 0.728687 0.216183
N2    N     N_3   0.256813 0.604656 0.250440 -0.604667
H9    H     H_    0.379276 0.630555 0.281357 0.234183
H10   H     H_    0.135596 0.642816 0.272062 0.217030
N3    N     N_3   0.519321 0.175117 0.523230 -0.659866
H11   H     H_    0.577670 0.091388 0.529739 0.249879
H12   H     H_    0.430033 0.180305 0.476542 0.255889
N4    N     N_3   0.480901 0.675117 0.476848 -0.659396
H13   H     H_    0.422717 0.591392 0.470319 0.247171
H14   H     H_    0.570079 0.680291 0.523562 0.257424
C41   C     C_2   0.736532 0.939799 0.864402 0.384585
H15   H     H_    0.803146 0.880528 0.903494 0.049418
O21   O     O_2   0.669757 0.898515 0.808162 -0.506582
C42   C     C_2   0.266192 0.440508 0.134229 0.390743
H16   H     H_    0.201160 0.381730 0.094531 0.046025
O22   O     O_2   0.329856 0.398463 0.190709 -0.510525
N5    N     N_3   0.804952 0.391089 0.256150 -0.664178
H17   H     H_    0.687766 0.358070 0.282953 0.257401
H18   H     H_    0.932338 0.357262 0.280266 0.247132
N6    N     N_3   0.171149 0.886638 0.741434 -0.629262
H19   H     H_    0.042515 0.847155 0.722618 0.243382
H20   H     H_    0.143581 0.975276 0.734520 0.229302
N7    N     N_3   0.848115 0.483540 0.004193 -0.644755
H21   H     H_    0.936116 0.445086 0.966979 0.243051
H22   H     H_    0.732111 0.530399 0.980764 0.264098
N8    N     N_3   0.164818 0.987589 0.995381 -0.626245
H23   H     H_    0.074306 0.952812 0.033023 0.241608
H24   H     H_    0.285651 0.031587 0.017397 0.253491
C43   C     C_2   0.790331 0.562991 0.147100 0.428472
H25   H     H_    0.819506 0.589353 0.202401 0.089990
O23   O     O_2   0.758463 0.639709 0.102660 -0.536347
C44   C     C_2   0.235716 0.065099 0.853527 0.396510
H26   H     H_    0.303950 0.091538 0.805057 0.056120
O24   O     O_2   0.179085 0.141917 0.892674 -0.522827
C45   C     C_2   0.971631 0.339975 0.467041 0.359786
H27   H     H_    0.119097 0.315172 0.457275 0.062367
O25   O     O_2   0.929148 0.443417 0.466432 -0.534103
C46   C     C_2   0.028079 0.839980 0.532901 0.373087
H28   H     H_    0.880665 0.815187 0.542755 0.059707
O26   O     O_2   0.070360 0.943435 0.533420 -0.533857

loop_
_geom_bond_atom_site_label_1
_geom_bond_atom_site_label_2
_ccdc_geom_bond_type
C43   H25   S    
H1    C27   S    
O13   V3    S    
C5    C39   S    
C39   N3    S    
N7    H21   S    
O4    C2    A    
V1    O19   S    
C44   O24   D    
C6    C40   S    
C13   C15   A    
N3    H11   S    
O9    V1    S    
N2    H10   S    
O3    C1    A    
C42   O22   D    
O12   V4    S    
C14   C36   A    
O17   V3    S    
C10   C42   S    
C19   C21   A    
O9    C5    A    
O7    C3    A    
C46   H28   S    
O5    C7    A    
C22   C36   A    
O7    V1    S    
O6    C8    A    
O8    V2    S    
C23   C25   A    
C24   C26   A    
C4    C37   S    
O3    V1    S    
O14   V4    S    
C8    C12   S    
N5    H18   S    
C2    C35   S    
C26   C28   A    
N3    H12   S    
C9    C33   A    
C2    O12   A    
C12   C32   A    
C10   C34   A    
C15   C17   A    
C16   C18   A    
O1    V3    S    
C44   H26   S    
C29   H5    S    
C18   C20   A    
O11   V3    S    
C20   C22   A    
C27   C29   A    
C32   H4    S    
C13   C35   A    
C28   C30   A    
N2    H9    S    
C40   N4    S    
C24   C32   A    
N4    H14   S    
O8    C4    A    
N1    H8    S    
C42   H16   S    
N4    H13   S    
C1    O11   A    
O15   V3    S    
C9    C25   A    
C25   C27   A    
C1    C36   S    
C17   C19   A    
C17   N7    S    
C41   H15   S    
C19   C23   A    
C45   H27   S    
O10   V2    S    
N6    H20   S    
C38   C46   S    
C14   N6    S    
C9    C41   S    
C11   C33   A    
C12   C34   A    
C41   O21   D    
O18   V4    S    
N8    H24   S    
O15   C5    A    
O16   C6    A    
O1    C3    A    
C21   C29   A    
V2    O20   S    
C22   C30   A    
O10   C6    A    
O16   V4    S    
O18   C8    A    
C31   H3    S    
C14   C16   A    
C16   C44   S    
C21   C35   A    
C23   C31   A    
N7    H22   S    
O5    V1    S    
O17   C7    A    
O6    V2    S    
C20   C24   A    
C10   C26   A    
C43   O23   D    
O2    V4    S    
N1    H7    S    
V3    O19   S    
V4    O20   S    
C37   C45   S    
C45   O25   D    
C7    C11   S    
C30   H6    S    
C34   N2    S    
N6    H19   S    
O13   V1    S    
C15   C43   S    
O14   V2    S    
O2    C4    A    
C46   O26   D    
H2    C28   S    
C18   N8    S    
O4    V2    S    
C38   C40   D    
N8    H23   S    
C37   C39   D    
N5    H17   S    
C13   N5    S    
C11   C31   A    
C33   N1    S    
C3    C38   S    
