data_mof_unit_34952.cif
_audit_creation_date              2012-12-11T16:26:10-0500
_audit_creation_method            fapswitch 2.2
_symmetry_space_group_name_H-M    P1
_symmetry_Int_Tables_number       1
_space_group_crystal_system       triclinic
_cell_length_a                    13.967361
_cell_length_b                    13.967547
_cell_length_c                    31.925342
_cell_angle_alpha                 89.955601
_cell_angle_beta                  89.95595
_cell_angle_gamma                 119.604556
_cell_volume                      5415.2309144

loop_
_atom_site_label
_atom_site_type_symbol
_atom_type_description
_atom_site_fract_x
_atom_site_fract_y
_atom_site_fract_z
_atom_type_partial_charge
C1    C     C_R   0.568201 0.443535 0.810696 0.532311
C2    C     C_R   0.876235 0.432174 0.689450 0.554916
C3    C     C_R   0.556464 0.124543 0.810755 0.536454
C4    C     C_R   0.568023 0.444126 0.689485 0.546304
C5    C     C_R   0.831638 0.404887 0.814975 0.556598
C6    C     C_R   0.555863 0.123179 0.689605 0.547600
C7    C     C_R   0.443536 0.568201 0.310695 0.532298
C8    C     C_R   0.432176 0.876236 0.189451 0.554905
C9    C     C_R   0.124543 0.556465 0.310754 0.536437
C10   C     C_R   0.444127 0.568023 0.189485 0.546301
C11   C     C_R   0.404875 0.831615 0.314974 0.556615
C12   C     C_R   0.123177 0.555865 0.189606 0.547592
C13   C     C_1   0.932214 0.484945 0.027587 0.065629
C14   C     C_1   0.471257 0.909921 0.490969 0.068102
C15   C     C_1   0.483148 0.480402 0.019544 0.073581
C16   C     C_1   0.014409 0.530669 0.482463 0.067172
C17   C     C_1   0.526415 0.005658 0.019873 0.064994
C18   C     C_1   0.475900 0.487439 0.482158 0.078173
C19   C     C_1   0.484953 0.932138 0.527593 0.065623
C20   C     C_1   0.910007 0.471252 0.990962 0.068122
C21   C     C_1   0.480428 0.483162 0.519543 0.073602
C22   C     C_1   0.530622 0.014394 0.982462 0.067208
C23   C     C_1   0.005668 0.526459 0.519873 0.064961
C24   C     C_1   0.487423 0.475872 0.982159 0.078139
C25   C     C_R   0.856564 0.425373 0.860060 -0.020403
C26   C     C_R   0.535020 0.059162 0.650663 -0.016688
C27   C     C_R   0.531339 0.457520 0.852270 -0.018947
C28   C     C_R   0.931591 0.471010 0.648694 -0.017557
C29   C     C_R   0.541741 0.073686 0.852391 -0.016238
C30   C     C_R   0.530175 0.461351 0.648613 -0.017942
C31   C     C_R   0.425352 0.856506 0.360062 -0.020411
C32   C     C_R   0.059171 0.535044 0.150664 -0.016658
C33   C     C_R   0.457520 0.531339 0.352269 -0.018946
C34   C     C_R   0.471017 0.931586 0.148695 -0.017564
C35   C     C_R   0.073691 0.541749 0.352392 -0.016237
C36   C     C_R   0.461353 0.530173 0.148614 -0.017947
C37   C     C_R   0.844835 0.508188 0.880567 -0.101188
C38   C     C_R   0.622139 0.057548 0.629186 -0.101303
C39   C     C_R   0.451389 0.364405 0.873957 -0.098807
C40   C     C_R   0.932298 0.561332 0.628841 -0.101042
C41   C     C_R   0.630522 0.070810 0.871944 -0.107174
C42   C     C_R   0.441611 0.372664 0.628208 -0.099633
C43   C     C_R   0.508145 0.844730 0.380569 -0.101192
C44   C     C_R   0.057863 0.622242 0.129131 -0.101274
C45   C     C_R   0.364394 0.451428 0.373964 -0.098802
C46   C     C_R   0.561232 0.932130 0.128818 -0.101050
C47   C     C_R   0.070825 0.630537 0.371941 -0.107175
C48   C     C_R   0.372674 0.441587 0.128214 -0.099626
C49   C     C_R   0.861115 0.523545 0.923754 0.177934
C50   C     C_R   0.605657 0.011047 0.589245 0.176059
C51   C     C_R   0.433412 0.370324 0.916563 0.174765
C52   C     C_R   0.961656 0.583949 0.586727 0.172501
C53   C     C_R   0.626495 0.047227 0.914614 0.170360
C54   C     C_R   0.420972 0.380466 0.585957 0.174488
C55   C     C_R   0.523504 0.860995 0.423757 0.177923
C56   C     C_R   0.011394 0.605762 0.089186 0.176079
C57   C     C_R   0.370322 0.433457 0.416570 0.174768
C58   C     C_R   0.583835 0.961484 0.086705 0.172487
C59   C     C_R   0.047252 0.626526 0.414611 0.170349
C60   C     C_R   0.380472 0.420940 0.085963 0.174490
C61   C     C_R   0.888470 0.455042 0.946912 0.041053
C62   C     C_R   0.500994 0.964851 0.570699 0.039385
C63   C     C_R   0.494211 0.470658 0.937652 0.045810
C64   C     C_R   0.991929 0.516626 0.564330 0.037810
C65   C     C_R   0.532656 0.025514 0.937910 0.041630
C66   C     C_R   0.488614 0.478122 0.563996 0.037818
C67   C     C_R   0.455030 0.888379 0.446918 0.041046
C68   C     C_R   0.964912 0.501018 0.070693 0.039415
C69   C     C_R   0.470677 0.494220 0.437651 0.045839
C70   C     C_R   0.516609 0.991921 0.064329 0.037819
C71   C     C_R   0.025532 0.532692 0.437912 0.041631
C72   C     C_R   0.478115 0.488597 0.063998 0.037819
C73   C     C_R   0.899175 0.371874 0.926814 -0.122907
C74   C     C_R   0.412852 0.961101 0.592850 -0.129129
C75   C     C_R   0.568144 0.565385 0.915682 -0.113162
C76   C     C_R   0.998998 0.431634 0.584670 -0.129271
C77   C     C_R   0.441377 0.021067 0.918080 -0.122489
C78   C     C_R   0.571670 0.569240 0.584858 -0.124515
C79   C     C_R   0.371876 0.899121 0.426821 -0.122905
C80   C     C_R   0.960847 0.412807 0.092903 -0.129136
C81   C     C_R   0.565415 0.568111 0.415674 -0.113130
C82   C     C_R   0.431731 0.999153 0.084691 -0.129218
C83   C     C_R   0.021075 0.441405 0.418084 -0.122497
C84   C     C_R   0.569227 0.571676 0.084854 -0.124526
C85   C     C_R   0.882850 0.356652 0.883721 -0.121693
C86   C     C_R   0.429571 0.007828 0.632569 -0.119848
C87   C     C_R   0.587145 0.558911 0.873186 -0.124649
C88   C     C_R   0.969100 0.408859 0.626662 -0.123071
C89   C     C_R   0.445620 0.044751 0.875540 -0.119731
C90   C     C_R   0.592373 0.561121 0.626985 -0.121801
C91   C     C_R   0.356652 0.882810 0.383728 -0.121685
C92   C     C_R   0.007555 0.429527 0.132627 -0.119869
C93   C     C_R   0.558932 0.587108 0.373178 -0.124649
C94   C     C_R   0.408965 0.969254 0.126684 -0.123087
C95   C     C_R   0.044754 0.445633 0.375544 -0.119736
C96   C     C_R   0.561113 0.592386 0.126980 -0.121821
Cr1   Cr    Cr6+3 0.504240 0.249200 0.750000 1.032573
Cr2   Cr    Cr6+3 0.744960 0.495760 0.750000 1.038588
Cr3   Cr    Cr6+3 0.750800 0.255040 0.750000 1.034115
Cr4   Cr    Cr6+3 0.249200 0.504240 0.250000 1.032568
Cr5   Cr    Cr6+3 0.495760 0.744960 0.250000 1.038564
Cr6   Cr    Cr6+3 0.255040 0.750800 0.250000 1.034105
H1    H     H_    0.821971 0.560482 0.863210 0.163509
H2    H     H_    0.704117 0.096671 0.642502 0.158730
H3    H     H_    0.407605 0.285099 0.858608 0.161321
H4    H     H_    0.903902 0.610591 0.645195 0.160330
H5    H     H_    0.705434 0.092685 0.854738 0.152669
H6    H     H_    0.392370 0.295013 0.644245 0.161945
H7    H     H_    0.560424 0.821843 0.363210 0.163518
H8    H     H_    0.097215 0.704273 0.142403 0.158766
H9    H     H_    0.285070 0.407673 0.358622 0.161321
H10   H     H_    0.610409 0.903602 0.145153 0.160345
H11   H     H_    0.092701 0.705444 0.354732 0.152675
H12   H     H_    0.295031 0.392334 0.144255 0.161971
H13   H     H_    0.006885 0.360637 0.148499 0.160014
H14   H     H_    0.290611 0.890024 0.369061 0.164269
H15   H     H_    0.630914 0.660983 0.141868 0.163062
H16   H     H_    0.046492 0.376015 0.361438 0.162836
H17   H     H_    0.339121 0.969860 0.141164 0.160632
H18   H     H_    0.631849 0.649193 0.357279 0.161377
H19   H     H_    0.360740 0.007403 0.648391 0.160117
H20   H     H_    0.890027 0.290601 0.869052 0.164270
H21   H     H_    0.660954 0.630928 0.641877 0.163091
H22   H     H_    0.376007 0.046497 0.861431 0.162849
H23   H     H_    0.969576 0.338930 0.641122 0.160664
H24   H     H_    0.649260 0.631816 0.857293 0.161398
H25   H     H_    0.925540 0.331844 0.078787 0.158374
H26   H     H_    0.318781 0.920374 0.444520 0.176842
H27   H     H_    0.644956 0.623916 0.068047 0.173707
H28   H     H_    0.003825 0.368509 0.435906 0.169001
H29   H     H_    0.379656 0.022796 0.067557 0.162852
H30   H     H_    0.643273 0.614842 0.431824 0.177021
H31   H     H_    0.331955 0.926024 0.578692 0.158498
H32   H     H_    0.920409 0.318765 0.944510 0.176846
H33   H     H_    0.623899 0.644978 0.568055 0.173767
H34   H     H_    0.368478 0.003821 0.935899 0.169038
H35   H     H_    0.022511 0.379484 0.567519 0.162820
H36   H     H_    0.614902 0.643222 0.931839 0.177036
O1    O     O_R   0.480350 0.140770 0.796330 -0.510159
O2    O     O_R   0.660420 0.519650 0.703670 -0.508656
O3    O     O_R   0.859230 0.339580 0.796330 -0.504482
O4    O     O_R   0.480350 0.140770 0.703670 -0.507429
O5    O     O_R   0.660420 0.519650 0.796330 -0.518517
O6    O     O_R   0.859230 0.339580 0.703670 -0.504972
O7    O     O_R   0.140770 0.480350 0.296330 -0.510171
O8    O     O_R   0.519650 0.660420 0.203670 -0.508682
O9    O     O_R   0.339580 0.859230 0.296330 -0.504482
O10   O     O_R   0.140770 0.480350 0.203670 -0.507386
O11   O     O_R   0.519650 0.660420 0.296330 -0.518530
O12   O     O_R   0.339580 0.859230 0.203670 -0.504977
O13   O     O_R   0.514930 0.348530 0.793250 -0.501494
O14   O     O_R   0.833600 0.485070 0.706750 -0.493674
O15   O     O_R   0.651470 0.166400 0.793250 -0.516952
O16   O     O_R   0.514930 0.348530 0.706750 -0.496222
O17   O     O_R   0.833600 0.485070 0.793250 -0.492326
O18   O     O_R   0.651470 0.166400 0.706750 -0.497725
O19   O     O_R   0.348530 0.514930 0.293250 -0.501494
O20   O     O_R   0.485070 0.833600 0.206750 -0.493688
O21   O     O_R   0.166400 0.651470 0.293250 -0.516965
O22   O     O_R   0.348530 0.514930 0.206750 -0.496206
O23   O     O_R   0.485070 0.833600 0.293250 -0.492322
O24   O     O_R   0.166400 0.651470 0.206750 -0.497740
O25   O     O_3   0.666667 0.333333 0.750000 -0.257306
O26   O     O_3   0.333333 0.666667 0.250000 -0.257316
Br1   Br    Br    0.019067 0.729512 0.060002 -0.407284
Br2   Br    Br    0.638625 0.845278 0.449905 -0.441567
Br3   Br    Br    0.253549 0.305142 0.058795 -0.405614
Br4   Br    Br    0.052084 0.752971 0.440286 -0.435154
Br5   Br    Br    0.701661 0.950891 0.060247 -0.411647
Br6   Br    Br    0.237886 0.331394 0.445288 -0.435181
Br7   Br    Br    0.729310 0.018266 0.560142 -0.407301
Br8   Br    Br    0.845461 0.638687 0.949904 -0.441516
Br9   Br    Br    0.305207 0.253532 0.558782 -0.405696
Br10  Br    Br    0.752925 0.052037 0.940293 -0.435112
Br11  Br    Br    0.951300 0.701938 0.560298 -0.411537
Br12  Br    Br    0.331290 0.237906 0.945271 -0.435099

loop_
_geom_bond_atom_site_label_1
_geom_bond_atom_site_label_2
_ccdc_geom_bond_type
C68   C80   A    
C39   C51   A    
C79   H26   S    
C82   C94   A    
C46   H10   S    
Cr2   O5    S    
C18   C21   T    
C33   C45   A    
C90   H21   S    
C4    O16   A    
C11   O23   A    
C30   C90   A    
C8    O20   A    
C29   C89   A    
Cr2   O25   S    
Cr2   O14   S    
C76   H35   S    
C78   C90   A    
C15   C72   S    
C45   C57   A    
C31   C43   A    
C9    O21   A    
C54   Br9   S    
C48   H12   S    
C21   C66   S    
C28   C40   A    
C19   C62   S    
C74   H31   S    
C84   H27   S    
C3    O15   A    
C2    O6    A    
C91   H14   S    
C39   H3    S    
C84   C96   A    
Cr5   O11   S    
C20   C61   S    
C3    C29   S    
C44   C56   A    
C38   H2    S    
C25   C37   A    
C7    O11   A    
Cr4   O19   S    
C27   C39   A    
Cr1   O25   S    
C56   Br1   S    
C28   C88   A    
C62   C74   A    
C14   C67   S    
C1    O13   A    
C50   Br7   S    
C34   C46   A    
C93   H18   S    
C6    O4    A    
C53   C65   A    
C78   H33   S    
C76   C88   A    
C79   C91   A    
Cr6   O24   S    
C1    C27   S    
C18   C69   S    
C11   C31   S    
C17   C70   S    
C12   C32   S    
C7    C33   S    
C16   C71   S    
C53   Br10  S    
C48   C60   A    
C71   C83   A    
C95   H16   S    
C2    O14   A    
C66   C78   A    
Cr5   O8    S    
C60   Br3   S    
C49   C61   A    
C38   C50   A    
C96   H15   S    
C58   Br5   S    
C67   C79   A    
C83   H28   S    
C52   C64   A    
C37   H1    S    
C26   C38   A    
C81   H30   S    
C61   C73   A    
C40   C52   A    
C47   C59   A    
C11   O9    A    
C4    C30   S    
Cr2   O2    S    
Cr3   O6    S    
C80   C92   A    
C8    O12   A    
C22   C65   S    
C88   H23   S    
C1    O5    A    
Cr6   O9    S    
C4    O2    A    
C65   C77   A    
C81   C93   A    
C94   H17   S    
Cr4   O22   S    
C5    O3    A    
Cr1   O13   S    
Cr4   O7    S    
C26   C86   A    
C83   C95   A    
Cr3   O18   S    
C86   H19   S    
C25   C85   A    
C64   C76   A    
C51   C63   A    
C85   H20   S    
Cr4   O26   S    
C8    C34   S    
Cr1   O16   S    
C74   C86   A    
C27   C87   A    
C52   Br11  S    
C41   C53   A    
C37   C49   A    
C72   C84   A    
C10   O8    A    
C5    C25   S    
C75   C87   A    
C15   C24   T    
C77   H34   S    
Cr6   O12   S    
Cr5   O20   S    
C24   C63   S    
C31   C91   A    
C50   C62   A    
Cr3   O25   S    
C3    O1    A    
C10   O22   A    
C40   H4    S    
C57   Br6   S    
C73   C85   A    
C43   C55   A    
C47   H11   S    
Cr2   O17   S    
C23   C64   S    
C41   H5    S    
C13   C20   T    
C29   C41   A    
C77   C89   A    
C14   C19   T    
Cr3   O3    S    
Cr5   O26   S    
C58   C70   A    
C34   C94   A    
C75   H36   S    
C33   C93   A    
Cr6   O21   S    
C49   Br8   S    
C55   C67   A    
C45   H9    S    
C5    O17   A    
C54   C66   A    
C80   H25   S    
C35   C95   A    
C16   C23   T    
C17   C22   T    
C89   H22   S    
Cr5   O23   S    
C82   H29   S    
C56   C68   A    
C42   C54   A    
C12   O10   A    
C6    C26   S    
C63   C75   A    
Cr4   O10   S    
Cr3   O15   S    
C9    O7    A    
C10   C36   S    
C36   C48   A    
C51   Br12  S    
C70   C82   A    
C92   H13   S    
C6    O18   A    
Cr1   O4    S    
C69   C81   A    
C32   C92   A    
C12   O24   A    
C73   H32   S    
C32   C44   A    
Cr6   O26   S    
C7    O19   A    
C9    C35   S    
C60   C72   A    
C30   C42   A    
C2    C28   S    
C43   H7    S    
C55   Br2   S    
C57   C69   A    
C35   C47   A    
C42   H6    S    
Cr1   O1    S    
C87   H24   S    
C46   C58   A    
C59   Br4   S    
C59   C71   A    
C36   C96   A    
C13   C68   S    
C44   H8    S    
