data_mof_unit_46448.cif
_audit_creation_date              2012-12-10T17:02:59-0500
_audit_creation_method            fapswitch 2.2
_symmetry_space_group_name_H-M    P1
_symmetry_Int_Tables_number       1
_space_group_crystal_system       triclinic
_cell_length_a                    9.8378
_cell_length_b                    11.010049
_cell_length_c                    13.554182
_cell_angle_alpha                 94.028495
_cell_angle_beta                  82.649583
_cell_angle_gamma                 111.217224
_cell_volume                      1356.89803778

loop_
_atom_site_label
_atom_site_type_symbol
_atom_type_description
_atom_site_fract_x
_atom_site_fract_y
_atom_site_fract_z
_atom_type_partial_charge
C1    C     C_R   0.557859 0.745720 0.502707 0.879401
C2    C     C_R   0.439113 0.500917 0.973575 0.056265
C3    C     C_R   0.484579 0.498291 0.869809 0.013023
C4    C     C_R   0.549588 0.530906 0.039893 0.023374
C5    C     C_R   0.699597 0.596558 0.003807 0.022366
C6    C     C_R   0.735440 0.609165 0.901145 0.078227
C7    C     C_R   0.635647 0.526280 0.840070 0.133042
C8    C     C_R   0.516429 0.494173 0.139090 -0.148213
C9    C     C_R   0.768078 0.608309 0.170900 -0.206969
C10   C     C_R   0.379766 0.471483 0.799538 -0.080142
C11   C     C_2   0.588263 0.885258 0.502996 -0.367636
C12   C     C_R   0.423217 0.484219 0.690465 0.820923
C13   C     C_2   0.510908 0.936099 0.454666 0.213310
C14   C     C_2   0.419943 0.116183 0.474198 -0.295230
C15   C     C_2   0.531072 0.073232 0.473848 -0.191875
C16   C     C_2   0.919967 0.485353 0.496554 0.066323
C17   C     C_2   0.079020 0.510950 0.506974 0.035355
C18   C     C_R   0.444889 0.254444 0.490154 0.856007
C19   C     C_R   0.576938 0.513914 0.310566 0.823095
C20   C     C_R   0.808523 0.636378 0.070535 0.198949
C21   C     C_R   0.622882 0.536499 0.204948 -0.104109
C22   C     C_R   0.231421 0.441618 0.834540 -0.206898
C23   C     C_R   0.186637 0.444520 0.935660 -0.143556
C24   C     C_R   0.288079 0.477087 0.005534 0.179352
Cu1   Cu    Cu3+1 0.362000 0.479240 0.482530 1.024783
Cu2   Cu    Cu3+1 0.638000 0.520760 0.517470 0.984691
H1    H     H_    0.850980 0.640401 0.222116 0.190224
H2    H     H_    0.311255 0.050172 0.459978 0.191607
H3    H     H_    0.669929 0.947424 0.549543 0.145170
H4    H     H_    0.134113 0.584154 0.560570 0.149771
H5    H     H_    0.861677 0.405094 0.449220 0.150373
H6    H     H_    0.409220 0.427371 0.165836 0.200937
H7    H     H_    0.149295 0.420138 0.783291 0.167612
H8    H     H_    0.071820 0.425924 0.960072 0.161323
H9    H     H_    0.638081 0.139002 0.492116 0.176386
N1    N     N_2   0.845330 0.551960 0.543750 -0.141292
N2    N     N_2   0.154690 0.448120 0.456210 -0.102293
O1    O     O_R   0.426290 0.668220 0.490680 -0.559036
O2    O     O_R   0.659360 0.703290 0.520190 -0.578340
O3    O     O_R   0.326580 0.473880 0.629020 -0.603516
O4    O     O_R   0.559660 0.508940 0.658530 -0.544291
O5    O     O_R   0.340640 0.296710 0.479810 -0.548362
O6    O     O_R   0.573710 0.331780 0.509320 -0.590282
O7    O     O_R   0.440340 0.491060 0.341470 -0.543380
O8    O     O_R   0.673420 0.526120 0.370980 -0.586435
I1    I     I_    0.369914 0.831848 0.344112 -0.275879
I2    I     I_    0.067122 0.302168 0.350967 -0.301648
N3    N     N_3   0.924156 0.667265 0.591774 -0.467371
H10   H     H_    0.850771 0.713545 0.618216 0.285874
H11   H     H_    0.956960 0.642441 0.655458 0.204847
I3    I     I_    0.866648 0.791686 0.838536 -0.343385
I4    I     I_    0.038607 0.720487 0.029540 -0.338726
N4    N     N_3   0.237417 0.496093 0.107240 -0.575041
H12   H     H_    0.150310 0.411423 0.129963 0.241259
H13   H     H_    0.197666 0.572436 0.111672 0.269343
N5    N     N_3   0.678622 0.429043 0.782331 -0.539026
H14   H     H_    0.786817 0.471617 0.750214 0.225985
H15   H     H_    0.677272 0.359022 0.831124 0.213738

loop_
_geom_bond_atom_site_label_1
_geom_bond_atom_site_label_2
_ccdc_geom_bond_type
Cu1   O5    S    
C12   O3    A    
C2    C4    A    
C23   C24   A    
C19   O8    A    
N1    N3    S    
C12   O4    A    
Cu1   O1    S    
N2    I2    S    
C14   C18   S    
C9    C20   A    
C14   C15   D    
C13   C15   S    
C19   O7    A    
C4    C8    A    
C23   H8    S    
Cu1   N2    S    
N3    H11   S    
C2    C3    A    
Cu1   Cu2   S    
C20   I4    S    
C3    C10   A    
C17   N2    D    
N4    H12   S    
C16   N1    D    
C16   H5    S    
C17   H4    S    
C11   C13   D    
C9    C21   A    
C6    C7    A    
C10   C12   S    
C7    N5    S    
C1    O1    A    
Cu1   O7    S    
C15   H9    S    
N3    H10   S    
C19   C21   S    
N5    H15   S    
Cu2   O6    S    
C8    C21   A    
C3    C7    A    
N4    H13   S    
Cu1   O3    S    
C2    C24   A    
C5    C6    A    
C6    I3    S    
Cu2   O2    S    
C11   H3    S    
C1    O2    A    
C8    H6    S    
N5    H14   S    
C9    H1    S    
Cu2   N1    S    
C5    C20   A    
C22   H7    S    
C13   I1    S    
C16   C17   S    
Cu2   O8    S    
C14   H2    S    
C24   N4    S    
C18   O6    A    
C22   C23   A    
C10   C22   A    
C18   O5    A    
Cu2   O4    S    
C4    C5    A    
C1    C11   S    
