data_mof_unit_12200.cif
_audit_creation_date              2012-10-26T18:26:07-0400
_audit_creation_method            fapswitch 2.2
_symmetry_space_group_name_H-M    P1
_symmetry_Int_Tables_number       1
_space_group_crystal_system       triclinic
_cell_length_a                    13.819942
_cell_length_b                    8.678714
_cell_length_c                    7.53737
_cell_angle_alpha                 103.516044
_cell_angle_beta                  89.114156
_cell_angle_gamma                 94.039974
_cell_volume                      876.804955884

loop_
_atom_site_label
_atom_site_type_symbol
_atom_type_description
_atom_site_fract_x
_atom_site_fract_y
_atom_site_fract_z
_atom_type_partial_charge
C1    C     C_R   0.484834 0.199815 0.455947 0.547338
C2    C     C_1   0.869458 0.481201 0.433673 -0.031326
C3    C     C_2   0.455263 0.030433 0.433474 -0.000029
C4    C     C_2   0.461703 0.961256 0.576795 -0.022941
C5    C     C_3   0.981761 0.626376 0.751603 -0.261921
C6    C     C_3   0.053227 0.688741 0.909520 -0.434475
C7    C     C_3   0.019755 0.383997 0.247802 -0.266129
C8    C     C_3   0.949164 0.326271 0.087848 -0.429883
C9    C     C_3   0.404323 0.943330 0.255376 -0.257571
C10   C     C_3   0.313779 0.022968 0.218114 -0.460029
C11   C     C_3   0.413456 0.030047 0.758004 -0.261361
C12   C     C_R   0.490938 0.798346 0.547945 0.541183
C13   C     C_3   0.306090 0.051311 0.729932 -0.416333
C14   C     C_R   0.319018 0.503665 0.531354 0.519554
C15   C     C_R   0.681046 0.496573 0.468669 0.557740
C16   C     C_1   0.783228 0.488867 0.446938 -0.006739
C17   C     C_1   0.217217 0.514374 0.553444 -0.018280
C18   C     C_2   0.973376 0.472003 0.424221 0.019573
C19   C     C_2   0.027709 0.537354 0.575377 0.017422
C20   C     C_1   0.131294 0.525046 0.566672 -0.037316
Cl1   Cl    Cl    0.355423 0.404929 0.972505 -0.577097
Cl2   Cl    Cl    0.627523 0.653273 0.061336 -0.489316
Cu1   Cu    Cu3+1 0.510540 0.517220 0.682700 1.102104
Cu2   Cu    Cu3+1 0.489460 0.482780 0.317300 1.088196
H1    H     H_    0.090823 0.589359 0.941017 0.172899
H2    H     H_    0.054256 0.279341 0.273518 0.148917
H3    H     H_    0.264648 0.040674 0.337854 0.136506
H4    H     H_    0.332388 0.138701 0.183749 0.211674
H5    H     H_    0.273570 0.944747 0.100781 0.134370
H6    H     H_    0.456370 0.935817 0.140715 0.180662
H7    H     H_    0.375862 0.821515 0.257855 0.197528
H8    H     H_    0.298291 0.145786 0.655199 0.184447
H9    H     H_    0.269438 0.938158 0.651999 0.130370
H10   H     H_    0.269007 0.086054 0.863209 0.168540
H11   H     H_    0.415384 0.948384 0.850530 0.156472
H12   H     H_    0.107752 0.777241 0.874458 0.151794
H13   H     H_    0.452380 0.141200 0.831989 0.217073
H14   H     H_    0.013288 0.747272 0.033135 0.145857
H15   H     H_    0.945763 0.729077 0.724282 0.156153
H16   H     H_    0.925229 0.545974 0.796056 0.156882
H17   H     H_    0.894099 0.236608 0.118623 0.168037
H18   H     H_    0.912212 0.427630 0.059885 0.169625
H19   H     H_    0.989658 0.270489 0.963696 0.143107
H20   H     H_    0.077535 0.464018 0.206078 0.158964
N1    N     N_2   0.473570 0.456830 0.042740 0.057366
N2    N     N_2   0.526430 0.543170 0.957260 0.079030
O1    O     O_R   0.506850 0.286020 0.618680 -0.503424
O2    O     O_R   0.493150 0.713980 0.381320 -0.483360
O3    O     O_R   0.489050 0.256940 0.310110 -0.507627
O4    O     O_R   0.510950 0.743060 0.689890 -0.494098
O5    O     O_R   0.372320 0.516630 0.676100 -0.457026
O6    O     O_R   0.627680 0.483370 0.323900 -0.447748
O7    O     O_R   0.354510 0.487550 0.367530 -0.483593
O8    O     O_R   0.645490 0.512450 0.632470 -0.471760

loop_
_geom_bond_atom_site_label_1
_geom_bond_atom_site_label_2
_ccdc_geom_bond_type
C10   H3    S    
Cu2   O6    S    
C12   O4    A    
Cu1   Cu2   S    
C6    H14   S    
C13   H9    S    
C3    C9    S    
C4    C12   S    
C2    C16   T    
C9    C10   S    
C13   H8    S    
Cu1   O5    S    
C14   O5    A    
C14   C17   S    
C8    H19   S    
C12   O2    A    
C7    C18   S    
C14   O7    A    
C19   C20   S    
C11   H11   S    
C13   H10   S    
Cu1   N2    S    
C15   O6    A    
C4    C11   S    
C11   C13   S    
C10   H5    S    
C7    H2    S    
C9    H6    S    
C5    C19   S    
Cu2   N1    S    
Cl2   N2    S    
C8    H18   S    
Cl1   N1    S    
C5    H15   S    
C5    C6    S    
C6    H1    S    
Cu1   O1    S    
C9    H7    S    
C15   C16   S    
Cu2   O2    S    
C15   O8    A    
N1    N2    D    
C7    C8    S    
C17   C20   T    
C8    H17   S    
Cu1   O8    S    
C18   C19   D    
C5    H16   S    
C10   H4    S    
Cu2   O3    S    
C11   H13   S    
C1    O1    A    
Cu1   O4    S    
Cu2   O7    S    
C7    H20   S    
C1    O3    A    
C3    C4    D    
C6    H12   S    
C2    C18   S    
C1    C3    S    
