data_mof_unit_9540.cif
_audit_creation_date              2012-10-26T21:02:35-0400
_audit_creation_method            fapswitch 2.2
_symmetry_space_group_name_H-M    P1
_symmetry_Int_Tables_number       1
_space_group_crystal_system       triclinic
_cell_length_a                    12.300466
_cell_length_b                    13.069897
_cell_length_c                    15.079856
_cell_angle_alpha                 77.603
_cell_angle_beta                  100.9823
_cell_angle_gamma                 116.361498
_cell_volume                      2108.98682839

loop_
_atom_site_label
_atom_site_type_symbol
_atom_type_description
_atom_site_fract_x
_atom_site_fract_y
_atom_site_fract_z
_atom_type_partial_charge
C1    C     C_R   0.855078 0.285773 0.505660 0.528077
C2    C     C_R   0.059704 0.450528 0.833452 -0.140889
C3    C     C_R   0.001965 0.508730 0.767229 -0.024185
C4    C     C_R   0.000964 0.503054 0.670877 0.547480
C5    C     C_R   0.946591 0.570689 0.793880 -0.024610
C6    C     C_R   0.267158 0.035679 0.407320 0.007254
C7    C     C_R   0.227562 0.837285 0.471135 -0.014102
C8    C     C_R   0.816577 0.074321 0.537089 -0.021929
C9    C     C_R   0.735630 0.958450 0.542104 -0.135041
C10   C     C_R   0.611943 0.926253 0.517119 -0.125390
C11   C     C_R   0.565049 0.009836 0.482045 0.030375
C12   C     C_R   0.945096 0.563959 0.074718 0.016760
C13   C     C_R   0.648624 0.126568 0.464254 -0.011858
C14   C     C_R   0.437792 0.980576 0.462719 0.003445
C15   C     C_R   0.394903 0.065138 0.415811 0.017319
C16   C     C_R   0.145056 0.714200 0.487297 0.551084
C17   C     C_R   0.481775 0.174635 0.379966 0.042189
C18   C     C_R   0.606037 0.203576 0.405244 -0.120816
C19   C     C_R   0.352243 0.869220 0.491864 -0.130256
C20   C     C_R   0.184961 0.921332 0.431839 -0.131662
C21   C     C_R   0.773650 0.161327 0.501060 -0.017250
C22   C     C_R   0.352469 0.338640 0.656431 0.040650
C23   C     C_R   0.121514 0.391760 0.084208 -0.120710
C24   C     C_R   0.758331 0.644799 0.375217 0.071862
C25   C     C_R   0.661344 0.676327 0.348745 -0.133769
C26   C     C_R   0.558713 0.621941 0.396348 -0.104949
C27   C     C_R   0.551721 0.534701 0.471681 0.028306
C28   C     C_R   0.000973 0.500482 0.329004 0.544317
C29   C     C_R   0.653845 0.505924 0.496420 0.212519
C30   C     C_R   0.448303 0.475967 0.523722 -0.022289
C31   C     C_R   0.451178 0.393274 0.601847 0.011388
C32   C     C_R   0.550898 0.364796 0.622272 -0.148055
C33   C     C_R   0.649173 0.419906 0.571423 -0.089803
C34   C     C_R   0.120240 0.392492 0.991487 -0.121216
C35   C     C_R   0.341220 0.495428 0.501275 0.042214
C36   C     C_R   0.250270 0.362403 0.628930 0.069292
C37   C     C_R   0.944361 0.560764 0.167340 -0.125027
C38   C     C_R   0.003257 0.502804 0.232456 -0.011842
C39   C     C_R   0.063527 0.447526 0.205034 -0.131191
C40   C     C_R   0.063618 0.448627 0.112340 0.014039
C41   C     C_R   0.004227 0.507268 0.046716 0.065615
C42   C     C_2   0.448940 0.257141 0.308904 0.572346
C43   C     C_1   0.216957 0.120469 0.381819 0.249247
C44   C     C_1   0.943128 0.098468 0.567324 0.235932
C45   C     C_R   0.061708 0.450696 0.925873 0.011482
C46   C     C_2   0.352917 0.260324 0.743825 0.544131
C47   C     C_1   0.894801 0.639028 0.726154 0.224989
C48   C     C_R   0.003769 0.509014 0.953182 0.052218
C49   C     C_R   0.945641 0.569093 0.887448 0.005815
C50   C     C_R   0.887976 0.625968 0.917284 -0.113944
C51   C     C_R   0.887458 0.622921 0.009890 -0.123040
Cu1   Cu    Cu3+1 0.098270 0.475420 0.521130 0.960588
Cu2   Cu    Cu3+1 0.901730 0.524580 0.478870 0.953414
H1    H     H_    0.898817 0.604500 0.188721 0.126900
H2    H     H_    0.837735 0.687670 0.338045 0.118844
H3    H     H_    0.487124 0.650824 0.373226 0.097724
H4    H     H_    0.665859 0.743410 0.291266 0.108668
H5    H     H_    0.719973 0.391693 0.594246 0.182100
H6    H     H_    0.167215 0.346341 0.133883 0.132446
H7    H     H_    0.165051 0.347516 0.971045 0.128799
H8    H     H_    0.102453 0.403602 0.813008 0.134517
H9    H     H_    0.842016 0.672559 0.869535 0.137174
H10   H     H_    0.841885 0.666871 0.030817 0.118822
H11   H     H_    0.087613 0.898103 0.420794 0.133413
H12   H     H_    0.380399 0.804743 0.531951 0.130302
H13   H     H_    0.351355 0.281970 0.189291 0.337658
H14   H     H_    0.256015 0.118219 0.827778 0.347836
H15   H     H_    0.556368 0.834594 0.522598 0.108546
H16   H     H_    0.768128 0.891623 0.567407 0.147561
H17   H     H_    0.669595 0.284463 0.371962 0.175509
H18   H     H_    0.174015 0.322689 0.669427 0.162564
H19   H     H_    0.553958 0.297492 0.677268 0.166853
H20   H     H_    0.108664 0.402343 0.255694 0.153191
H21   H     H_    0.330798 0.555512 0.442858 0.124970
N1    N     N_R   0.246280 0.438190 0.553160 -0.254375
N2    N     N_R   0.754320 0.561190 0.447410 -0.226083
N3    N     N_1   0.176295 0.188002 0.361899 -0.282334
N4    N     N_1   0.044207 0.116297 0.591308 -0.243624
N5    N     N_1   0.853525 0.693543 0.672314 -0.298653
O1    O     O_R   0.972510 0.318130 0.526570 -0.480575
O2    O     O_R   0.364982 0.217389 0.233605 -0.688421
O3    O     O_2   0.444849 0.282521 0.798329 -0.520984
O4    O     O_R   0.245359 0.163987 0.765949 -0.687864
O5    O     O_R   0.806530 0.359650 0.490890 -0.532097
O6    O     O_R   0.082980 0.479210 0.647590 -0.511117
O7    O     O_R   0.917000 0.520730 0.611900 -0.507136
O8    O     O_R   0.193470 0.640350 0.509110 -0.511914
O9    O     O_R   0.027490 0.681870 0.473430 -0.501473
O10   O     O_R   0.083000 0.479270 0.388100 -0.501805
O11   O     O_R   0.917020 0.520790 0.352410 -0.513019
O12   O     O_2   0.499050 0.360381 0.314230 -0.523448

loop_
_geom_bond_atom_site_label_1
_geom_bond_atom_site_label_2
_ccdc_geom_bond_type
C18   H17   S    
C35   H21   S    
C1    C21   S    
C33   H5    S    
C27   C29   A    
C47   N5    T    
Cu1   N1    S    
C32   H19   S    
C29   N2    A    
C24   H2    S    
H14   O4    S    
C5    C47   S    
C35   N1    A    
C26   C27   A    
C37   C38   A    
C13   C18   A    
Cu2   O5    S    
Cu1   O6    S    
C9    H16   S    
C30   C31   A    
C11   C14   A    
C4    O7    A    
C23   C40   A    
C29   C33   A    
C42   O12   D    
C12   C37   A    
C17   C42   S    
C6    C15   A    
C46   O3    D    
C8    C9    A    
C16   O8    A    
Cu2   O7    S    
C9    C10   A    
C2    H8    S    
C27   C30   A    
C34   H7    S    
C5    C49   A    
Cu1   O10   S    
C42   O2    S    
C25   H4    S    
C50   C51   A    
C2    C45   A    
C22   C31   A    
C51   H10   S    
C24   C25   A    
C39   C40   A    
C24   N2    A    
C4    O6    A    
C25   C26   A    
C1    O5    A    
C20   H11   S    
C23   H6    S    
C12   C41   A    
C8    C21   A    
C36   N1    A    
C31   C32   A    
C28   C38   S    
C23   C34   A    
C17   C18   A    
C13   C21   A    
C34   C45   A    
C28   O10   A    
C37   H1    S    
C30   C35   A    
C48   C49   A    
C22   C46   S    
C49   C50   A    
C7    C19   A    
C6    C43   S    
C50   H9    S    
Cu2   N2    S    
C3    C4    S    
C12   C51   A    
C22   C36   A    
Cu1   Cu2   S    
C45   C48   A    
C15   C17   A    
C7    C16   S    
C14   C19   A    
Cu1   O8    S    
C8    C44   S    
C3    C5    A    
C26   H3    S    
C28   O11   A    
C36   H18   S    
C10   H15   S    
C43   N3    T    
C6    C20   A    
C32   C33   A    
C44   N4    T    
C2    C3    A    
H13   O2    S    
C11   C13   A    
C38   C39   A    
C41   C48   A    
C19   H12   S    
Cu2   O9    S    
C39   H20   S    
C10   C11   A    
C46   O4    S    
C7    C20   A    
Cu2   O11   S    
C16   O9    A    
C1    O1    A    
C14   C15   A    
C40   C41   A    
Cu1   O1    S    
