data_mof_unit_58715.cif
_audit_creation_date              2012-12-11T14:50:47-0500
_audit_creation_method            fapswitch 2.2
_symmetry_space_group_name_H-M    P1
_symmetry_Int_Tables_number       1
_space_group_crystal_system       triclinic
_cell_length_a                    11.050683
_cell_length_b                    11.091637
_cell_length_c                    18.869237
_cell_angle_alpha                 89.33218
_cell_angle_beta                  89.126856
_cell_angle_gamma                 59.76681
_cell_volume                      1997.97198974

loop_
_atom_site_label
_atom_site_type_symbol
_atom_type_description
_atom_site_fract_x
_atom_site_fract_y
_atom_site_fract_z
_atom_type_partial_charge
C1    C     C_R   0.231767 0.646836 0.608325 0.654660
C2    C     C_R   0.573210 0.157337 0.785243 -0.158504
C3    C     C_R   0.567607 0.157797 0.713145 -0.142875
C4    C     C_R   0.654947 0.620646 0.600925 0.641746
C5    C     C_R   0.669339 0.164817 0.672850 -0.046048
C6    C     C_R   0.218762 0.542273 0.725808 0.138704
C7    C     C_R   0.217130 0.557103 0.800418 0.148405
C8    C     C_R   0.150630 0.689474 0.829521 0.001497
C9    C     C_R   0.097898 0.806306 0.785984 -0.126841
C10   C     C_R   0.112721 0.795391 0.713408 0.229814
C11   C     C_R   0.174981 0.662797 0.681531 0.112310
C12   C     C_3   0.807245 0.533192 0.790049 0.164415
C13   C     C_R   0.806090 0.614457 0.295775 0.251066
C14   C     C_R   0.823375 0.632390 0.224107 -0.093679
C15   C     C_R   0.707361 0.711590 0.181047 -0.027608
C16   C     C_R   0.629195 0.225658 0.601874 0.543540
C17   C     C_R   0.572792 0.781475 0.211249 -0.108439
C18   C     C_R   0.554054 0.762423 0.282834 -0.163680
C19   C     C_R   0.669685 0.673795 0.325003 0.028148
C20   C     C_R   0.548848 0.157096 0.289903 -0.145195
C21   C     C_R   0.541131 0.155388 0.217428 0.194729
C22   C     C_R   0.646144 0.159407 0.175695 -0.010566
C23   C     C_3   0.728231 0.693593 0.806614 -0.042064
C24   C     C_R   0.748524 0.178662 0.208025 -0.149024
C25   C     C_R   0.752671 0.186250 0.280963 0.189155
C26   C     C_R   0.649460 0.178616 0.322587 -0.015742
C27   C     C_R   0.078389 0.793318 0.304388 -0.109398
C28   C     C_R   0.225410 0.647610 0.400970 0.555229
C29   C     C_R   0.049411 0.807510 0.233162 -0.115666
C30   C     C_R   0.113412 0.690407 0.188480 0.007871
C31   C     C_R   0.198288 0.557316 0.215701 -0.125212
C32   C     C_R   0.227382 0.542822 0.287291 -0.068173
C33   C     C_R   0.170152 0.661639 0.331154 0.056835
C34   C     C_3   0.683901 0.648322 0.674639 0.058194
C35   C     C_R   0.703033 0.099303 0.895282 0.551069
C36   C     C_R   0.755757 0.711163 0.882645 0.568495
C37   C     C_R   0.111597 0.711149 0.904154 0.567374
C38   C     C_R   0.673675 0.106154 0.103926 0.553898
C39   C     C_R   0.731645 0.717359 0.105022 0.547828
C40   C     C_R   0.644795 0.625572 0.393584 0.570292
C41   C     C_R   0.084729 0.713585 0.114259 0.534437
C42   C     C_R   0.618112 0.229894 0.394894 0.554454
C43   C     C_3   0.565574 0.759935 0.794678 0.289732
C44   C     C_3   0.541715 0.741834 0.715771 0.086303
C45   C     C_3   0.767236 0.728674 0.674020 0.252119
C46   C     C_3   0.786158 0.761483 0.752859 -0.251375
C47   C     C_3   0.766940 0.504097 0.717124 0.329668
C48   C     C_R   0.786609 0.152839 0.706779 -0.073819
C49   C     C_R   0.799682 0.140431 0.780858 0.178781
C50   C     C_R   0.690983 0.141871 0.820723 -0.003239
Cl1   Cl    Cl    0.465297 0.945044 0.809668 -0.579090
Cl2   Cl    Cl    0.995015 0.454593 0.801448 -0.496985
Cl3   Cl    Cl    0.924463 0.362610 0.674733 -0.386364
Cl4   Cl    Cl    0.932675 0.626719 0.630521 -0.554307
Cl5   Cl    Cl    0.926551 0.167994 0.821846 -0.487923
Cl6   Cl    Cl    0.085392 0.946465 0.668192 -0.490878
Cl7   Cl    Cl    0.958610 0.513308 0.345796 -0.505533
Cl8   Cl    Cl    0.395009 0.150319 0.184014 -0.579907
Cl9   Cl    Cl    0.891368 0.202162 0.315808 -0.517986
Cl10  Cl    Cl    0.418819 0.687912 0.709264 -0.631749
Cr1   Cr    Cr6+3 0.392930 0.397900 0.502230 1.109970
Cr2   Cr    Cr6+3 0.398240 0.708600 0.501260 1.124969
Cr3   Cr    Cr6+3 0.708800 0.393470 0.496460 1.184926
Cr4   Cr    Cr6+3 0.937620 0.938540 0.007640 1.085995
Cr5   Cr    Cr6+3 0.625150 0.937450 0.994520 1.132202
Cr6   Cr    Cr6+3 0.937990 0.625080 0.001190 1.103897
H1    H     H_    0.897886 0.723917 0.763348 0.167179
H2    H     H_    0.830340 0.181049 0.176683 0.186405
H3    H     H_    0.033716 0.884792 0.337883 0.179729
H4    H     H_    0.979205 0.910762 0.212508 0.157001
H5    H     H_    0.245517 0.466883 0.181509 0.181585
H6    H     H_    0.300064 0.439807 0.307579 0.167733
H7    H     H_    0.484399 0.843942 0.688474 0.212857
H8    H     H_    0.732561 0.875304 0.761918 0.137197
H9    H     H_    0.779139 0.479398 0.831454 0.185191
H10   H     H_    0.277231 0.335163 0.733080 0.257278
H11   H     H_    0.192995 0.412853 0.661252 0.325005
H12   H     H_    0.856857 0.172788 0.676256 0.261760
H13   H     H_    0.399893 0.398494 0.835510 0.232348
H14   H     H_    0.261846 0.368121 0.844530 0.293263
H15   H     H_    0.399657 0.753458 0.846502 0.317055
H16   H     H_    0.541979 0.593903 0.834852 0.238131
H17   H     H_    0.760011 0.899739 0.625906 0.272807
H18   H     H_    0.604829 0.931671 0.656926 0.213108
H19   H     H_    0.685226 0.391110 0.771563 0.247501
H20   H     H_    0.653485 0.414122 0.680855 0.281721
H21   H     H_    0.483252 0.167204 0.813373 0.213637
H22   H     H_    0.477827 0.161352 0.689104 0.193642
H23   H     H_    0.050431 0.907040 0.809387 0.229178
H24   H     H_    0.927937 0.580954 0.201419 0.168529
H25   H     H_    0.481725 0.844496 0.179009 0.201466
H26   H     H_    0.448213 0.809655 0.303866 0.168348
H27   H     H_    0.468157 0.151252 0.320539 0.197655
N1    N     N_3   0.269764 0.406972 0.694951 -0.559059
N2    N     N_3   0.293810 0.441684 0.847606 -0.589636
N3    N     N_3   0.509262 0.697679 0.845845 -0.522066
N4    N     N_3   0.694966 0.856906 0.631375 -0.585020
N5    N     N_3   0.669287 0.453022 0.727352 -0.627433
O1    O     O_R   0.507430 0.255570 0.581420 -0.492682
O2    O     O_R   0.837200 0.593290 0.915250 -0.458164
O3    O     O_R   0.065330 0.635370 0.931590 -0.463830
O4    O     O_R   0.280190 0.527390 0.578910 -0.475707
O5    O     O_R   0.068300 0.828790 0.091860 -0.502483
O6    O     O_R   0.798730 0.057480 0.079370 -0.525937
O7    O     O_R   0.584680 0.080480 0.076790 -0.444394
O8    O     O_R   0.626790 0.809640 0.067050 -0.473856
O9    O     O_R   0.816010 0.596460 0.076500 -0.486453
O10   O     O_R   0.045680 0.638310 0.081070 -0.519648
O11   O     O_3   0.833590 0.833690 0.001120 -0.351764
O12   O     O_R   0.524460 0.695920 0.424060 -0.527260
O13   O     O_R   0.260310 0.739740 0.584580 -0.404988
O14   O     O_R   0.532250 0.695150 0.573830 -0.473489
O15   O     O_R   0.744930 0.503430 0.576380 -0.429435
O16   O     O_R   0.699250 0.276390 0.571950 -0.501316
O17   O     O_R   0.499020 0.256400 0.419850 -0.533714
O18   O     O_R   0.272400 0.528160 0.429140 -0.485306
O19   O     O_R   0.251910 0.740570 0.423020 -0.513439
O20   O     O_R   0.736530 0.504260 0.414810 -0.407877
O21   O     O_R   0.691460 0.277160 0.422180 -0.440345
O22   O     O_3   0.499990 0.499990 0.499980 -0.317927
O23   O     O_R   0.089490 0.825610 0.930610 -0.495497
O24   O     O_R   0.818370 0.054540 0.929880 -0.457115
O25   O     O_R   0.605870 0.077310 0.915530 -0.501353
O26   O     O_R   0.646440 0.806700 0.917570 -0.414971

loop_
_geom_bond_atom_site_label_1
_geom_bond_atom_site_label_2
_ccdc_geom_bond_type
C39   O8    A    
C40   O20   A    
C20   H27   S    
C41   O10   A    
C27   C29   A    
C17   H25   S    
Cr6   O9    S    
C2    C50   A    
C7    C8    A    
C32   H6    S    
C45   C46   S    
C27   C33   A    
C39   O9    A    
C12   C23   S    
C47   N5    S    
H18   N4    S    
C36   O26   A    
C28   O19   A    
C30   C31   A    
C42   O21   A    
C13   Cl7   S    
C28   C33   S    
C48   H12   S    
Cr4   O23   S    
C22   C38   S    
H11   N1    S    
C23   C43   S    
C15   C17   A    
C18   C19   A    
Cr5   O26   S    
Cr6   O2    S    
C14   H24   S    
Cr2   O19   S    
C38   O6    A    
H19   N5    S    
C28   O18   A    
H10   N1    S    
Cr3   O16   S    
Cr2   O13   S    
C8    C9    A    
C6    N1    S    
C1    C11   S    
Cr1   O17   S    
C30   C41   S    
C10   Cl6   S    
C9    C10   A    
Cr2   O22   S    
C27   H3    S    
C47   Cl3   S    
C31   H5    S    
C4    O14   A    
C23   C46   S    
C13   C14   A    
Cr1   O22   S    
Cr6   O3    S    
Cr1   O1    S    
C35   C50   S    
C12   C47   S    
H20   N5    S    
Cr5   O7    S    
C12   Cl2   S    
C43   N3    S    
C5    C48   A    
C4    C34   S    
H16   N3    S    
C13   C19   A    
C4    O15   A    
C34   C44   S    
C24   C25   A    
C10   C11   A    
C9    H23   S    
C6    C11   A    
H15   N3    S    
C40   O12   A    
C25   C26   A    
C49   Cl5   S    
C41   O5    A    
C43   C44   S    
H13   N2    S    
C29   C30   A    
Cr3   O21   S    
C31   C32   A    
Cr2   O12   S    
Cr5   O11   S    
Cr1   O18   S    
C17   C18   A    
C2    H21   S    
C36   O2    A    
C34   C45   S    
H14   N2    S    
C15   C39   S    
C37   O23   A    
C48   C49   A    
C45   Cl4   S    
C23   C36   S    
C22   C24   A    
C8    C37   S    
Cr5   O8    S    
C46   H8    S    
C26   C42   S    
C29   H4    S    
Cr4   O6    S    
C3    H22   S    
C35   O24   A    
Cr6   O10   S    
C3    C5    A    
C16   O16   A    
Cr3   O20   S    
C16   O1    A    
C6    C7    A    
C7    N2    S    
C18   H26   S    
C32   C33   A    
C38   O7    A    
C35   O25   A    
C2    C3    A    
C21   Cl8   S    
C5    C16   S    
C45   N4    S    
C1    O13   A    
C37   O3    A    
Cr3   O22   S    
C43   Cl1   S    
Cr4   O11   S    
C20   C26   A    
C44   Cl10  S    
Cr4   O24   S    
Cr1   O4    S    
Cr5   O25   S    
Cr6   O11   S    
C44   H7    S    
Cr4   O5    S    
C19   C40   S    
C24   H2    S    
Cr3   O15   S    
C42   O17   A    
C46   H1    S    
Cr2   O14   S    
C20   C21   A    
C49   C50   A    
H17   N4    S    
C12   H9    S    
C14   C15   A    
C34   C47   S    
C25   Cl9   S    
C21   C22   A    
C1    O4    A    
