data_mof_unit_40682.cif
_audit_creation_date              2012-12-10T17:32:21-0500
_audit_creation_method            fapswitch 2.2
_symmetry_space_group_name_H-M    P1
_symmetry_Int_Tables_number       1
_space_group_crystal_system       triclinic
_cell_length_a                    15.518701
_cell_length_b                    15.489477
_cell_length_c                    15.639434
_cell_angle_alpha                 91.935216
_cell_angle_beta                  72.071058
_cell_angle_gamma                 111.678564
_cell_volume                      3310.19617923

loop_
_atom_site_label
_atom_site_type_symbol
_atom_type_description
_atom_site_fract_x
_atom_site_fract_y
_atom_site_fract_z
_atom_type_partial_charge
C1    C     C_R   0.462912 0.258520 0.463390 0.858048
C2    C     C_R   0.497174 0.520912 0.126173 -0.140110
C3    C     C_R   0.652874 0.646044 0.114923 0.449300
C4    C     C_R   0.536412 0.741864 0.534957 0.815885
C5    C     C_R   0.424394 0.430550 0.841805 -0.197234
C6    C     C_R   0.463409 0.052950 0.334550 -0.326009
C7    C     C_R   0.451432 0.162662 0.446686 -0.104143
C8    C     C_R   0.544486 0.860355 0.644647 -0.327759
C9    C     C_R   0.533201 0.942809 0.676242 0.532888
C10   C     C_R   0.514478 0.998200 0.621381 -0.252908
C11   C     C_R   0.514485 0.977702 0.532452 0.030915
C12   C     C_R   0.347901 0.315319 0.972896 -0.073937
C13   C     C_R   0.534916 0.898653 0.498883 0.088164
C14   C     C_R   0.492334 0.031628 0.476399 0.134272
C15   C     C_R   0.491262 0.005147 0.388711 0.120254
C16   C     C_R   0.756143 0.551531 0.463858 0.778535
C17   C     C_R   0.521744 0.933545 0.354233 -0.226513
C18   C     C_R   0.545797 0.882666 0.407660 -0.208862
C19   C     C_R   0.474004 0.112599 0.503106 -0.356098
C20   C     C_R   0.441147 0.130489 0.364115 0.479241
C21   C     C_R   0.543265 0.836859 0.557507 -0.113407
C22   C     C_R   0.013880 0.693695 0.445579 -0.161416
C23   C     C_R   0.403732 0.377452 0.018992 -0.284134
C24   C     C_R   0.858923 0.574462 0.451744 0.023125
C25   C     C_R   0.077703 0.331507 0.564436 -0.171601
C26   C     C_R   0.985863 0.302167 0.554306 -0.152658
C27   C     C_R   0.953839 0.366303 0.527536 -0.141694
C28   C     C_R   0.243029 0.450384 0.537723 0.797571
C29   C     C_R   0.010798 0.463292 0.516180 0.076957
C30   C     C_R   0.101275 0.494002 0.534828 -0.050617
C31   C     C_R   0.980424 0.530593 0.487526 0.019942
C32   C     C_R   0.043236 0.626615 0.473414 0.010438
C33   C     C_R   0.131068 0.655517 0.493976 0.447644
C34   C     C_R   0.462000 0.470389 0.983406 0.093044
C35   C     C_R   0.152088 0.591072 0.535879 -0.127037
C36   C     C_R   0.888227 0.506185 0.474974 -0.210765
C37   C     C_R   0.922138 0.667762 0.435692 -0.194687
C38   C     C_R   0.138138 0.426367 0.550724 -0.048048
C39   C     C_R   0.552087 0.551912 0.259727 0.879059
C40   C     C_R   0.447685 0.451026 0.742959 0.839549
C41   C     C_R   0.663006 0.671552 0.026566 -0.295791
C42   C     C_R   0.569598 0.570791 0.164488 -0.146296
C43   C     C_R   0.360566 0.339279 0.882739 0.446021
C44   C     C_3   0.706510 0.779225 0.182168 0.080145
C45   C     C_R   0.471352 0.497936 0.894454 -0.001647
C46   C     C_3   0.766295 0.824206 0.244064 -0.815028
C47   C     C_3   0.592159 0.943181 0.796799 0.104485
C48   C     C_3   0.610171 0.000850 0.874722 -0.797995
C49   C     C_3   0.252777 0.771428 0.389537 0.040477
C50   C     C_3   0.330347 0.728141 0.365423 -0.778059
C51   C     C_1   0.664197 0.738788 0.854945 0.130682
C52   C     C_1   0.218200 0.627255 0.588372 0.292802
C53   C     C_1   0.398332 0.470741 0.185861 0.179056
C54   C     C_3   0.336333 0.196835 0.822433 0.096443
C55   C     C_3   0.348453 0.171516 0.726074 -0.751588
C56   C     C_R   0.516499 0.535178 0.032350 0.050580
C57   C     C_1   0.278437 0.226117 0.019516 0.178904
C58   C     C_3   0.322748 0.132952 0.309282 0.058319
C59   C     C_3   0.294987 0.192886 0.256137 -0.768260
C60   C     C_R   0.593636 0.618486 0.985571 0.030449
C61   C     C_R   0.596218 0.648592 0.900883 0.008735
C62   C     C_R   0.529193 0.591995 0.860748 -0.204574
H1    H     H_    0.527014 0.916647 0.285441 0.140033
H2    H     H_    0.103648 0.279037 0.578012 0.160710
H3    H     H_    0.884440 0.337077 0.515604 0.125850
H4    H     H_    0.940957 0.228438 0.562894 0.143738
H5    H     H_    0.725208 0.732786 0.990680 0.172040
H6    H     H_    0.402465 0.350576 0.082282 0.172610
H7    H     H_    0.524395 0.623517 0.802886 0.180866
H8    H     H_    0.628112 0.764609 0.220278 0.128201
H9    H     H_    0.730443 0.829566 0.122503 0.150748
H10   H     H_    0.845144 0.840494 0.208373 0.268089
H11   H     H_    0.755922 0.889885 0.264897 0.207307
H12   H     H_    0.461841 0.032034 0.268006 0.151830
H13   H     H_    0.742160 0.776074 0.305306 0.236014
H14   H     H_    0.664370 0.957411 0.744130 0.148299
H15   H     H_    0.557779 0.868396 0.823065 0.155422
H16   H     H_    0.539867 0.987505 0.929315 0.256090
H17   H     H_    0.659412 0.981661 0.902101 0.214426
H18   H     H_    0.644959 0.076266 0.851001 0.254329
H19   H     H_    0.291080 0.848450 0.378661 0.178033
H20   H     H_    0.209230 0.751459 0.342165 0.132998
H21   H     H_    0.296364 0.651903 0.361343 0.250226
H22   H     H_    0.385093 0.759829 0.298710 0.197003
H23   H     H_    0.484741 0.142986 0.563666 0.142762
H24   H     H_    0.367598 0.740492 0.417300 0.294692
H25   H     H_    0.276979 0.136446 0.867824 0.174966
H26   H     H_    0.406125 0.207833 0.835958 0.116423
H27   H     H_    0.414608 0.226014 0.680180 0.244213
H28   H     H_    0.357379 0.103493 0.719245 0.195477
H29   H     H_    0.283284 0.166053 0.707320 0.275844
H30   H     H_    0.271001 0.118142 0.379626 0.136656
H31   H     H_    0.314786 0.066252 0.277386 0.143425
H32   H     H_    0.344937 0.208594 0.185502 0.255760
H33   H     H_    0.300374 0.259110 0.287702 0.256864
H34   H     H_    0.548824 0.811557 0.689491 0.156893
H35   H     H_    0.218712 0.155374 0.255920 0.216142
H36   H     H_    0.499679 0.056899 0.651268 0.152865
H37   H     H_    0.572016 0.829899 0.376579 0.161435
H38   H     H_    0.898460 0.721144 0.419822 0.135678
H39   H     H_    0.059299 0.767303 0.436337 0.166372
H40   H     H_    0.834331 0.436046 0.489416 0.118260
N1    N     N_1   0.718816 0.810810 0.818099 -0.229277
N2    N     N_1   0.270739 0.656476 0.630441 -0.210431
N3    N     N_1   0.319561 0.431703 0.233586 -0.213458
N4    N     N_1   0.222724 0.154751 0.057071 -0.217160
O1    O     O_3   0.500000 0.500000 0.500000 -0.492656
O2    O     O_R   0.588830 0.499590 0.285390 -0.612028
O3    O     O_R   0.395900 0.395880 0.699370 -0.583362
O4    O     O_R   0.493280 0.582590 0.315890 -0.662075
O5    O     O_R   0.521980 0.521940 0.699340 -0.661383
O6    O     O_3   0.722155 0.696906 0.154629 -0.602845
O7    O     O_3   0.528277 0.967397 0.763625 -0.617252
O8    O     O_3   0.193212 0.748676 0.481266 -0.618688
O9    O     O_3   0.308766 0.275244 0.834546 -0.585124
O10   O     O_3   0.420166 0.181362 0.307990 -0.605537
O11   O     O_R   0.708210 0.582550 0.530770 -0.634300
O12   O     O_R   0.270260 0.395900 0.573760 -0.640969
O13   O     O_R   0.537060 0.322180 0.411040 -0.611410
O14   O     O_R   0.484470 0.699370 0.484430 -0.653286
O15   O     O_R   0.404710 0.279110 0.530840 -0.666965
O16   O     O_R   0.573760 0.699350 0.573690 -0.647741
O17   O     O_R   0.714470 0.499570 0.411000 -0.634273
O18   O     O_R   0.307050 0.521980 0.484470 -0.636931
Zn1   Zn    Zn3+2 0.574690 0.574670 0.574650 0.962552
Zn2   Zn    Zn3+2 0.583640 0.456100 0.403530 1.015438
Zn3   Zn    Zn3+2 0.447120 0.574690 0.447120 0.959210
Zn4   Zn    Zn3+2 0.394550 0.394550 0.574700 0.987310

loop_
_geom_bond_atom_site_label_1
_geom_bond_atom_site_label_2
_ccdc_geom_bond_type
C49   H20   S    
C3    C42   A    
C34   C56   A    
C27   C29   A    
C51   C61   S    
O14   Zn3   S    
C50   H22   S    
C41   H5    S    
C12   C23   A    
C33   O8    S    
C24   C36   A    
C22   H39   S    
C22   C32   A    
C13   C18   A    
C48   H17   S    
C58   H31   S    
C47   H14   S    
C12   C43   A    
C31   C36   A    
C54   H25   S    
C11   C14   A    
C51   N1    T    
C55   H28   S    
C45   C62   A    
C30   C38   A    
C44   H9    S    
C36   H40   S    
C1    O13   A    
C48   H16   S    
C10   H36   S    
C55   H29   S    
C43   O9    S    
C6    C15   A    
C39   O4    A    
C3    C41   A    
C47   C48   S    
C8    C9    A    
C8    H34   S    
O5    Zn1   S    
C44   H8    S    
C59   H32   S    
C39   C42   S    
C9    C10   A    
C46   H10   S    
O4    Zn3   S    
C49   O8    S    
C5    C43   A    
C16   C24   S    
C58   O10   S    
O12   Zn4   S    
C46   H13   S    
C44   C46   S    
C50   H21   S    
C8    C21   A    
C40   O5    A    
C39   O2    A    
C6    H12   S    
C13   C21   A    
C26   H4    S    
O1    Zn1   S    
O15   Zn4   S    
C24   C37   A    
C20   O10   S    
O17   Zn2   S    
C58   C59   S    
C22   C37   A    
C5    C45   A    
C56   C60   A    
C62   H7    S    
C60   C61   A    
C25   H2    S    
C23   H6    S    
C29   C30   A    
C27   H3    S    
C25   C38   A    
O3    Zn4   S    
C31   C32   A    
C28   C38   S    
C3    O6    S    
C23   C34   A    
C54   O9    S    
C17   C18   A    
C26   C27   A    
C4    O16   A    
C34   C45   A    
C59   H33   S    
O18   Zn3   S    
C12   C57   S    
C30   C35   A    
C7    C20   A    
C7    C19   A    
C59   H35   S    
C18   H37   S    
C47   H15   S    
C44   O6    S    
C47   O7    S    
C54   C55   S    
C52   N2    T    
C1    C7    S    
C14   C19   A    
C16   O17   A    
C41   C60   A    
C19   H23   S    
C2    C53   S    
O1    Zn4   S    
C28   O18   A    
C15   C17   A    
C40   O3    A    
O1    Zn2   S    
C6    C20   A    
C9    O7    S    
C32   C33   A    
C48   H18   S    
O16   Zn1   S    
C25   C26   A    
O1    Zn3   S    
C55   H27   S    
C2    C56   A    
C16   O11   A    
C17   H1    S    
C54   H26   S    
C4    C21   S    
C11   C13   A    
C58   H30   S    
C2    C42   A    
C33   C35   A    
C57   N4    T    
C49   H19   S    
C46   H11   S    
C61   C62   A    
C1    O15   A    
C10   C11   A    
C50   H24   S    
O13   Zn2   S    
C53   N3    T    
C29   C31   A    
C49   C50   S    
C5    C40   S    
C35   C52   S    
C14   C15   A    
C4    O14   A    
C28   O12   A    
O2    Zn2   S    
O11   Zn1   S    
C37   H38   S    
