data_mof_unit_36033.cif
_audit_creation_date              2012-12-10T18:59:13-0500
_audit_creation_method            fapswitch 2.2
_symmetry_space_group_name_H-M    P1
_symmetry_Int_Tables_number       1
_space_group_crystal_system       triclinic
_cell_length_a                    10.773344
_cell_length_b                    10.814475
_cell_length_c                    9.550933
_cell_angle_alpha                 89.909697
_cell_angle_beta                  89.807467
_cell_angle_gamma                 89.957332
_cell_volume                      1112.75270005

loop_
_atom_site_label
_atom_site_type_symbol
_atom_type_description
_atom_site_fract_x
_atom_site_fract_y
_atom_site_fract_z
_atom_type_partial_charge
C1    C     C_R   0.502923 0.262361 0.500014 0.811555
C2    C     C_R   0.064703 0.610779 0.555880 0.098283
C3    C     C_R   0.129055 0.507981 0.500617 -0.134629
C4    C     C_R   0.065832 0.408289 0.442457 -0.277504
C5    C     C_R   0.937161 0.406934 0.440118 0.237172
C6    C     C_R   0.871195 0.506651 0.498195 -0.145140
C7    C     C_R   0.518637 0.063585 0.625512 0.129591
C8    C     C_R   0.516568 0.129345 0.499782 -0.094799
C9    C     C_R   0.532773 0.064689 0.373436 -0.214817
C10   C     C_R   0.532181 0.935806 0.373458 -0.215392
C11   C     C_R   0.515900 0.870822 0.499828 -0.095853
C12   C     C_R   0.262674 0.502280 0.500245 0.805328
C13   C     C_R   0.518623 0.936316 0.625698 0.109645
C14   C     C_3   0.433678 0.930357 0.749614 -0.466017
C15   C     C_3   0.433672 0.070701 0.749058 -0.469775
C16   C     C_R   0.605186 0.528770 0.073125 0.246672
C17   C     C_R   0.400265 0.458716 0.074745 -0.079981
C18   C     C_R   0.400216 0.458820 0.926061 -0.085035
C19   C     C_R   0.605420 0.528202 0.925959 0.267888
C20   C     C_3   0.677780 0.645487 0.919194 -0.506997
C21   C     C_3   0.676438 0.646730 0.078296 -0.504233
C22   C     C_R   0.502531 0.737710 0.499923 0.773111
C23   C     C_R   0.737341 0.501030 0.499583 0.840153
C24   C     C_R   0.127652 0.715135 0.609236 -0.165887
C25   C     C_R   0.061680 0.816578 0.660412 -0.143101
C26   C     C_R   0.932571 0.816485 0.658225 -0.132740
C27   C     C_R   0.868706 0.714949 0.605010 -0.183348
C28   C     C_R   0.933630 0.610375 0.554142 0.039060
Cu1   Cu    Cu3+1 0.499990 0.499980 0.640670 0.934469
Cu2   Cu    Cu3+1 0.500010 0.500020 0.359330 0.942891
H1    H     H_    0.116896 0.330370 0.399867 0.143216
H2    H     H_    0.479617 0.890549 0.843364 0.193815
H3    H     H_    0.341818 0.111542 0.722913 0.191795
H4    H     H_    0.480033 0.111350 0.842044 0.199037
H5    H     H_    0.318803 0.426570 0.130136 0.145284
H6    H     H_    0.318721 0.426851 0.871325 0.146157
H7    H     H_    0.772102 0.630842 0.874808 0.207569
H8    H     H_    0.624814 0.722765 0.871405 0.209355
H9    H     H_    0.769994 0.633974 0.124910 0.198490
H10   H     H_    0.621434 0.724244 0.122833 0.208065
H11   H     H_    0.227856 0.719889 0.610289 0.132223
H12   H     H_    0.110810 0.896087 0.700777 0.126215
H13   H     H_    0.881627 0.895778 0.696931 0.132858
H14   H     H_    0.768501 0.719997 0.603008 0.135247
H15   H     H_    0.539286 0.112945 0.274219 0.165007
H16   H     H_    0.537953 0.887945 0.274240 0.158025
H17   H     H_    0.341887 0.889721 0.724288 0.192269
N1    N     N_R   0.500790 0.500930 0.147930 -0.184266
N2    N     N_R   0.500790 0.500890 0.852020 -0.185371
O1    O     O_R   0.500000 0.319640 0.618810 -0.578777
O2    O     O_R   0.500010 0.319680 0.381230 -0.581102
O3    O     O_R   0.319640 0.499980 0.618820 -0.591017
O4    O     O_R   0.319650 0.500020 0.381230 -0.581720
O5    O     O_R   0.499990 0.680320 0.618770 -0.587093
O6    O     O_R   0.500000 0.680360 0.381190 -0.581467
O7    O     O_R   0.680350 0.499980 0.618770 -0.591023
O8    O     O_R   0.680360 0.500020 0.381180 -0.568865
N3    N     N_2   0.873811 0.302341 0.385137 -0.430427
H18   H     H_    0.907894 0.219552 0.422697 0.245254
C29   C     C_3   0.863911 0.301855 0.234126 -0.660956
H19   H     H_    0.957133 0.290435 0.185601 0.208790
H20   H     H_    0.821662 0.389273 0.196047 0.243067
H21   H     H_    0.803926 0.223791 0.201077 0.219775

loop_
_geom_bond_atom_site_label_1
_geom_bond_atom_site_label_2
_ccdc_geom_bond_type
C25   H12   S    
C10   H16   S    
Cu2   O2    S    
C15   H4    S    
C9    H15   S    
C14   H17   S    
C20   H7    S    
Cu1   O7    S    
C1    C8    S    
C20   H8    S    
C9    C10   A    
C19   N2    A    
C11   C22   S    
C12   O4    A    
C21   H9    S    
C17   N1    A    
C7    C13   A    
C10   C11   A    
C16   N1    A    
C7    C15   S    
C2    C3    A    
N3    H18   S    
C22   O6    A    
C7    C8    A    
C22   O5    A    
Cu1   N2    S    
C13   C14   S    
C20   C21   S    
C24   H11   S    
C1    O2    A    
C23   O7    A    
C26   C27   A    
C16   C21   S    
C21   H10   S    
C18   H6    S    
C5    N3    S    
C29   H21   S    
C6    C23   S    
C27   H14   S    
Cu2   N1    S    
C12   O3    A    
C26   H13   S    
C17   C18   A    
Cu1   O1    S    
C16   C19   A    
C2    C24   A    
C5    C6    A    
Cu2   O4    S    
C4    H1    S    
Cu1   O5    S    
Cu1   Cu2   S    
C3    C4    A    
Cu2   O8    S    
C11   C13   A    
C24   C25   A    
C29   H20   S    
C1    O1    A    
C27   C28   A    
C23   O8    A    
C14   C15   S    
C29   H19   S    
C2    C28   A    
C3    C12   S    
C17   H5    S    
C25   C26   A    
C4    C5    A    
N3    C29   S    
Cu2   O6    S    
C15   H3    S    
C6    C28   A    
C19   C20   S    
C18   N2    A    
C14   H2    S    
C8    C9    A    
Cu1   O3    S    
