data_mof_unit_62891.cif
_audit_creation_date              2013-03-05T16:07:40-0500
_audit_creation_method            fapswitch 2.2
_symmetry_space_group_name_H-M    P1
_symmetry_Int_Tables_number       1
_space_group_crystal_system       triclinic
_cell_length_a                    35.967006
_cell_length_b                    25.963264
_cell_length_c                    22.169472
_cell_angle_alpha                 89.984384
_cell_angle_beta                  144.432117
_cell_angle_gamma                 90.101116
_cell_volume                      12041.813043

loop_
_atom_site_label
_atom_site_type_symbol
_atom_site_description
_atom_site_fract_x
_atom_site_fract_y
_atom_site_fract_z
_atom_type_partial_charge
Zn1   Zn    Zn3+2 0.824550 0.706220 0.087530 1.085832
Zn2   Zn    Zn3+2 0.824550 0.293780 0.087530 1.081617
Zn3   Zn    Zn3+2 0.324550 0.206220 0.087530 1.081235
Zn4   Zn    Zn3+2 0.324550 0.793780 0.087530 1.079877
Zn5   Zn    Zn3+2 0.762980 0.793760 0.087560 1.040628
Zn6   Zn    Zn3+2 0.762980 0.206240 0.087560 1.039037
Zn7   Zn    Zn3+2 0.262980 0.293760 0.087560 1.053050
Zn8   Zn    Zn3+2 0.262980 0.706240 0.087560 1.053345
Zn9   Zn    Zn3+2 0.737010 0.793770 0.912460 1.014898
Zn10  Zn    Zn3+2 0.737010 0.206230 0.912460 1.009599
Zn11  Zn    Zn3+2 0.237010 0.293770 0.912460 1.004926
Zn12  Zn    Zn3+2 0.237010 0.706230 0.912460 1.002242
Zn13  Zn    Zn3+2 0.675440 0.706230 0.912460 1.098465
Zn14  Zn    Zn3+2 0.675440 0.293770 0.912460 1.074423
Zn15  Zn    Zn3+2 0.175440 0.206230 0.912460 1.097547
Zn16  Zn    Zn3+2 0.175440 0.793770 0.912460 1.077398
O1    O     O_3   0.749990 0.749990 0.000000 -0.525060
O2    O     O_3   0.749990 0.250010 0.000000 -0.524961
O3    O     O_3   0.249990 0.249990 0.000000 -0.525402
O4    O     O_3   0.249990 0.750010 0.000000 -0.525324
O5    O     O_R   0.637170 0.719360 0.938750 -0.603347
O6    O     O_R   0.637170 0.280640 0.938750 -0.596568
O7    O     O_R   0.137170 0.219360 0.938750 -0.607038
O8    O     O_R   0.137170 0.780640 0.938750 -0.597704
O9    O     O_R   0.862810 0.719350 0.061240 -0.611416
O10   O     O_R   0.862810 0.280650 0.061240 -0.613775
O11   O     O_R   0.362810 0.219350 0.061240 -0.611564
O12   O     O_R   0.362810 0.780650 0.061240 -0.613199
O13   O     O_R   0.845300 0.780620 0.233710 -0.624897
O14   O     O_R   0.845300 0.219380 0.233710 -0.617635
O15   O     O_R   0.345300 0.280620 0.233710 -0.616847
O16   O     O_R   0.345300 0.719380 0.233710 -0.611392
O17   O     O_R   0.654690 0.780640 0.766300 -0.638121
O18   O     O_R   0.654690 0.219360 0.766300 -0.634109
O19   O     O_R   0.154690 0.280640 0.766300 -0.641833
O20   O     O_R   0.154690 0.719360 0.766300 -0.640068
O21   O     O_R   0.759080 0.866840 0.061290 -0.643292
O22   O     O_R   0.759080 0.133160 0.061290 -0.638715
O23   O     O_R   0.259080 0.366840 0.061290 -0.641513
O24   O     O_R   0.259080 0.633160 0.061290 -0.638591
O25   O     O_R   0.697810 0.633140 0.938720 -0.560273
O26   O     O_R   0.697810 0.366860 0.938720 -0.574776
O27   O     O_R   0.197810 0.133140 0.938720 -0.560155
O28   O     O_R   0.197810 0.866860 0.938720 -0.575906
O29   O     O_R   0.740900 0.866850 0.938740 -0.633373
O30   O     O_R   0.740900 0.133150 0.938740 -0.634060
O31   O     O_R   0.240900 0.366850 0.938740 -0.631524
O32   O     O_R   0.240900 0.633150 0.938740 -0.635009
O33   O     O_R   0.802180 0.633140 0.061250 -0.602070
O34   O     O_R   0.802180 0.366860 0.061250 -0.572143
O35   O     O_R   0.302180 0.133140 0.061250 -0.601701
O36   O     O_R   0.302180 0.866860 0.061250 -0.572193
O37   O     O_R   0.888390 0.719350 0.233690 -0.629258
O38   O     O_R   0.888390 0.280650 0.233690 -0.631977
O39   O     O_R   0.388390 0.219350 0.233690 -0.632833
O40   O     O_R   0.388390 0.780650 0.233690 -0.634362
O41   O     O_R   0.611600 0.719370 0.766300 -0.621976
O42   O     O_R   0.611600 0.280630 0.766300 -0.638135
O43   O     O_R   0.111600 0.219370 0.766300 -0.621251
O44   O     O_R   0.111600 0.780630 0.766300 -0.636512
O45   O     O_R   0.698440 0.780630 0.061300 -0.619141
O46   O     O_R   0.698440 0.219370 0.061300 -0.618153
O47   O     O_R   0.198440 0.280630 0.061300 -0.612942
O48   O     O_R   0.198440 0.719370 0.061300 -0.613621
O49   O     O_R   0.801540 0.780630 0.938710 -0.629156
O50   O     O_R   0.801540 0.219370 0.938710 -0.627987
O51   O     O_R   0.301540 0.280630 0.938710 -0.632439
O52   O     O_R   0.301540 0.719370 0.938710 -0.630930
C1    C     C_R   0.650335 0.749902 0.999945 0.848237
C2    C     C_R   0.650402 0.250064 0.000037 0.836714
C3    C     C_R   0.150329 0.249909 0.999933 0.851586
C4    C     C_R   0.150401 0.750063 0.000034 0.845467
C5    C     C_R   0.849622 0.749976 0.000033 0.824338
C6    C     C_R   0.849684 0.250061 0.000118 0.824099
C7    C     C_R   0.349619 0.249973 0.000028 0.815493
C8    C     C_R   0.349677 0.750070 0.000103 0.820768
C9    C     C_R   0.890912 0.749329 0.282633 0.837556
C10   C     C_R   0.891152 0.250461 0.282773 0.834242
C11   C     C_R   0.390911 0.249327 0.282634 0.842548
C12   C     C_R   0.391172 0.750431 0.282773 0.836497
C13   C     C_R   0.608773 0.749667 0.717449 0.790049
C14   C     C_R   0.608474 0.249836 0.717415 0.771944
C15   C     C_R   0.108752 0.249701 0.717450 0.788775
C16   C     C_R   0.108479 0.749842 0.717415 0.769758
C17   C     C_R   0.749625 0.891263 0.999647 0.784245
C18   C     C_R   0.749745 0.108746 0.999765 0.785395
C19   C     C_R   0.250250 0.391258 0.000279 0.785472
C20   C     C_R   0.250304 0.608739 0.000323 0.787269
C21   C     C_R   0.749361 0.608803 0.998326 0.881326
C22   C     C_R   0.749591 0.391209 0.997235 0.901836
C23   C     C_R   0.249358 0.108801 0.998335 0.882423
C24   C     C_R   0.249599 0.891209 0.997313 0.901802
C25   C     C_3   0.706622 0.530583 0.886988 -0.238657
C26   C     C_3   0.713356 0.470694 0.892310 -0.259018
C27   C     C_3   0.206329 0.030546 0.886857 -0.237627
C28   C     C_3   0.213083 0.970666 0.892200 -0.257493
H1    H     H_    0.731450 0.545109 0.879100 0.168944
H2    H     H_    0.748808 0.464878 0.902850 0.204662
H3    H     H_    0.230936 0.045079 0.878559 0.168548
H4    H     H_    0.248381 0.964872 0.902398 0.205068
C29   C     C_3   0.722133 0.530339 0.027747 -0.026585
C30   C     C_3   0.716002 0.468109 0.016138 -0.015794
C31   C     C_3   0.222452 0.030360 0.028355 -0.026841
C32   C     C_3   0.216282 0.968119 0.016732 -0.015701
C33   C     C_3   0.818305 0.530611 0.080291 0.006209
C34   C     C_3   0.819985 0.471162 0.089534 0.017868
C35   C     C_3   0.318251 0.030610 0.079987 0.006196
C36   C     C_3   0.319975 0.971165 0.089320 0.018264
C37   C     C_3   0.747169 0.551334 0.995865 -0.272824
C38   C     C_3   0.748846 0.448742 0.997440 -0.238317
C39   C     C_3   0.247159 0.051331 0.995916 -0.272839
C40   C     C_3   0.248852 0.948738 0.997545 -0.238791
H5    H     H_    0.848448 0.546195 0.156893 0.162143
H6    H     H_    0.841467 0.463252 0.162527 0.184000
H7    H     H_    0.348582 0.046209 0.156693 0.162360
H8    H     H_    0.341653 0.963273 0.162495 0.184362
C41   C     C_3   0.482128 0.212872 0.939744 -0.248062
C42   C     C_3   0.486468 0.790073 0.948170 -0.246280
C43   C     C_3   0.979074 0.715534 0.933658 -0.243397
C44   C     C_3   0.979305 0.284508 0.933953 -0.243031
C45   C     C_3   0.939953 0.762395 0.905512 -0.174552
C46   C     C_3   0.939816 0.237704 0.905416 -0.174973
C47   C     C_3   0.439106 0.258393 0.903823 -0.174038
C48   C     C_3   0.438466 0.746704 0.902665 -0.174873
H9    H     H_    0.890230 0.772443 0.827076 0.188393
H10   H     H_    0.889986 0.227720 0.826917 0.188637
H11   H     H_    0.388665 0.265159 0.823957 0.187579
H12   H     H_    0.387481 0.744113 0.821816 0.187771
H13   H     H_    0.467178 0.181571 0.888924 0.195907
H14   H     H_    0.475147 0.823791 0.904383 0.197141
H15   H     H_    0.961580 0.686438 0.877770 0.199085
H16   H     H_    0.962017 0.313615 0.878326 0.199521
C49   C     C_1   0.889542 0.750165 0.000547 -0.083280
C50   C     C_1   0.889668 0.249951 0.000775 -0.079505
C51   C     C_1   0.389532 0.250156 0.000526 -0.088138
C52   C     C_1   0.389643 0.749974 0.000725 -0.084867
C53   C     C_1   0.610942 0.250359 0.000405 -0.032509
C54   C     C_1   0.610795 0.749538 0.000145 -0.031377
C55   C     C_1   0.110943 0.750356 0.000406 -0.027723
C56   C     C_1   0.110794 0.249552 0.000140 -0.025992
C57   C     C_3   0.002008 0.703771 0.029332 -0.169422
C58   C     C_3   0.002434 0.296258 0.029842 -0.168879
C59   C     C_3   0.505888 0.205104 0.037063 -0.169245
C60   C     C_3   0.510897 0.792838 0.046709 -0.169561
C61   C     C_3   0.963949 0.750842 0.001595 0.068666
C62   C     C_3   0.964006 0.249244 0.001710 0.067988
C63   C     C_3   0.463908 0.250852 0.001514 0.070256
C64   C     C_3   0.463911 0.749224 0.001523 0.068943
C65   C     C_3   0.560227 0.243793 0.096580 0.306096
C66   C     C_3   0.560700 0.751251 0.097428 0.305277
C67   C     C_3   0.059488 0.739866 0.095109 0.304068
C68   C     C_3   0.059586 0.260083 0.095151 0.304640
C69   C     C_3   0.537661 0.251080 0.001678 -0.035735
C70   C     C_3   0.537509 0.748837 0.001394 -0.036418
C71   C     C_3   0.037704 0.751050 0.001764 -0.037018
C72   C     C_3   0.037611 0.248908 0.001594 -0.037285
C73   C     C_3   0.022314 0.786681 0.070309 -0.255398
C74   C     C_3   0.022045 0.213323 0.069959 -0.254789
C75   C     C_3   0.519148 0.289407 0.064003 -0.258493
C76   C     C_3   0.514621 0.707618 0.055226 -0.255567
C77   C     C_3   0.495390 0.295532 0.967216 0.298207
C78   C     C_3   0.490376 0.706459 0.957574 0.298728
C79   C     C_3   0.999243 0.796785 0.974890 0.296285
C80   C     C_3   0.998793 0.203231 0.974343 0.296450
C81   C     C_1   0.923153 0.750442 0.001014 0.041112
C82   C     C_1   0.923274 0.249684 0.001243 0.041995
C83   C     C_1   0.423132 0.250436 0.000972 0.037819
C84   C     C_1   0.423224 0.749702 0.001141 0.039311
C85   C     C_1   0.577834 0.250675 0.000925 0.113958
C86   C     C_1   0.577666 0.749212 0.000617 0.115491
C87   C     C_1   0.077848 0.750663 0.000952 0.117021
C88   C     C_1   0.077696 0.249246 0.000675 0.118030
H17   H     H_    0.040191 0.815881 0.126396 0.202048
H18   H     H_    0.039714 0.184110 0.125783 0.202177
H19   H     H_    0.534473 0.320819 0.115003 0.200203
H20   H     H_    0.526303 0.673778 0.099166 0.202203
H21   H     H_    0.003620 0.665328 0.053328 0.193630
H22   H     H_    0.004409 0.334703 0.054279 0.193876
H23   H     H_    0.510694 0.167791 0.067422 0.192402
H24   H     H_    0.519833 0.828397 0.085020 0.192646
C89   C     C_3   0.501092 0.709684 0.559342 -0.368735
C90   C     C_3   0.498988 0.286844 0.559279 -0.368526
C91   C     C_3   0.001083 0.209725 0.559354 -0.369596
C92   C     C_3   0.999090 0.786987 0.559282 -0.367317
H25   H     H_    0.522159 0.670367 0.585292 0.218844
H26   H     H_    0.518402 0.326687 0.585103 0.192429
H27   H     H_    0.022178 0.170419 0.585309 0.216591
H28   H     H_    0.018600 0.826802 0.585065 0.188271
H29   H     H_    0.487794 0.717449 0.589562 0.207163
H30   H     H_    0.486104 0.276772 0.589571 0.207183
H31   H     H_    0.987781 0.217455 0.589576 0.206353
H32   H     H_    0.986205 0.777067 0.589617 0.209077
C93   C     C_3   0.440742 0.711314 0.440449 -0.346145
C94   C     C_3   0.438738 0.285351 0.440422 -0.344517
C95   C     C_3   0.940733 0.211348 0.440465 -0.350951
C96   C     C_3   0.938818 0.785467 0.440430 -0.350270
H33   H     H_    0.398801 0.719749 0.414061 0.244788
H34   H     H_    0.397060 0.274361 0.413675 0.238413
H35   H     H_    0.898787 0.219751 0.414078 0.245119
H36   H     H_    0.897143 0.774563 0.413739 0.240069
H37   H     H_    0.432447 0.672260 0.410178 0.206629
H38   H     H_    0.429119 0.324966 0.410742 0.205224
H39   H     H_    0.932463 0.172302 0.410208 0.192100
H40   H     H_    0.929237 0.825057 0.410706 0.193028
H41   H     H_    0.594283 0.700083 0.591611 0.182385
H42   H     H_    0.591835 0.302738 0.591719 0.176752
H43   H     H_    0.094290 0.200244 0.591622 0.181120
H44   H     H_    0.091978 0.802538 0.591738 0.174729
H45   H     H_    0.501074 0.694170 0.415658 0.183554
H46   H     H_    0.498780 0.308037 0.415931 0.194653
H47   H     H_    0.001099 0.194318 0.415681 0.182173
H48   H     H_    0.998916 0.807881 0.415966 0.185664
C97   C     C_3   0.568490 0.737483 0.559759 -0.348217
C98   C     C_3   0.567438 0.264578 0.559702 -0.356930
C99   C     C_3   0.068461 0.237625 0.559766 -0.347249
C100  C     C_3   0.067483 0.764420 0.559704 -0.355030
C101  C     C_3   0.519213 0.803903 0.563903 -0.456583
C102  C     C_3   0.520479 0.194159 0.563048 -0.438800
C103  C     C_3   0.019129 0.303976 0.563913 -0.461368
C104  C     C_3   0.020363 0.694208 0.563035 -0.460305
C105  C     C_3   0.550584 0.750040 0.602308 0.087770
C106  C     C_3   0.550033 0.248963 0.602101 0.087303
C107  C     C_3   0.050545 0.250117 0.602315 0.092696
C108  C     C_3   0.050041 0.748971 0.602099 0.098168
H49   H     H_    0.555264 0.834199 0.600847 0.219448
H50   H     H_    0.557448 0.165361 0.599154 0.215469
H51   H     H_    0.055146 0.334316 0.600849 0.203797
H52   H     H_    0.057272 0.665330 0.599156 0.201291
H53   H     H_    0.505056 0.811180 0.592880 0.193345
H54   H     H_    0.507058 0.184399 0.592588 0.200945
H55   H     H_    0.004994 0.311240 0.592931 0.196120
H56   H     H_    0.006900 0.684572 0.592543 0.201059
C109  C     C_3   0.448257 0.751791 0.398603 -0.002668
C110  C     C_3   0.447700 0.247414 0.398325 -0.008653
C111  C     C_3   0.948216 0.251854 0.398608 0.001122
C112  C     C_3   0.947702 0.747418 0.398324 -0.005937
C113  C     C_3   0.507815 0.734551 0.440308 -0.444166
C114  C     C_3   0.506763 0.267334 0.440393 -0.437837
C115  C     C_3   0.007798 0.234689 0.440330 -0.445414
C116  C     C_3   0.006809 0.767191 0.440398 -0.435393
C117  C     C_3   0.459857 0.807398 0.442681 0.181113
C118  C     C_3   0.460746 0.191015 0.441464 0.168099
C119  C     C_3   0.959738 0.307446 0.442654 0.185182
C120  C     C_3   0.960635 0.691053 0.441451 0.176354
H57   H     H_    0.601186 0.767580 0.584729 0.227881
H58   H     H_    0.601220 0.236142 0.584583 0.226686
H59   H     H_    0.101126 0.267758 0.584727 0.227862
H60   H     H_    0.101189 0.735886 0.584565 0.227551
H61   H     H_    0.514165 0.757924 0.407158 0.228532
H62   H     H_    0.513897 0.245439 0.407322 0.225201
H63   H     H_    0.014131 0.258107 0.407191 0.229636
H64   H     H_    0.013892 0.745215 0.407309 0.228383
C121  C     C_3   0.808137 0.969765 0.039872 -0.263222
C122  C     C_3   0.805010 0.030090 0.031408 -0.257547
C123  C     C_3   0.194203 0.469914 0.966671 -0.260432
C124  C     C_3   0.190985 0.530229 0.957837 -0.269648
H65   H     H_    0.802407 0.955174 0.985262 0.156484
H66   H     H_    0.790541 0.038708 0.964921 0.156391
H67   H     H_    0.207910 0.461424 0.032385 0.153310
H68   H     H_    0.195539 0.544946 0.010954 0.152550
H69   H     H_    0.792441 0.953847 0.147501 0.227492
H70   H     H_    0.805675 0.040361 0.157080 0.249335
H71   H     H_    0.195586 0.459857 0.843867 0.254300
H72   H     H_    0.209732 0.546289 0.854448 0.231809
C125  C     C_3   0.752145 0.970571 0.068444 -0.326877
C126  C     C_3   0.758388 0.029419 0.076115 -0.317983
C127  C     C_3   0.242667 0.470601 0.925169 -0.311532
C128  C     C_3   0.249274 0.529436 0.933422 -0.322159
C129  C     C_3   0.686923 0.969906 0.885561 -0.266243
C130  C     C_3   0.684802 0.030296 0.887097 -0.275019
C131  C     C_3   0.314700 0.469743 0.113215 -0.275850
C132  C     C_3   0.312296 0.530104 0.114663 -0.263983
C133  C     C_3   0.749243 0.948969 0.999066 -0.028346
C134  C     C_3   0.749622 0.051058 0.999425 -0.026059
C135  C     C_3   0.250334 0.448952 0.000534 -0.027106
C136  C     C_3   0.250682 0.551037 0.000882 -0.030441
H73   H     H_    0.691881 0.960923 0.843151 0.166396
H74   H     H_    0.681820 0.044576 0.835813 0.166034
H75   H     H_    0.317068 0.455287 0.163647 0.162079
H76   H     H_    0.306109 0.538859 0.155383 0.162682
H77   H     H_    0.708717 0.959563 0.036787 0.234718
H78   H     H_    0.723084 0.046222 0.061229 0.217844
H79   H     H_    0.278310 0.453643 0.940956 0.220895
H80   H     H_    0.293425 0.540270 0.967040 0.238344
C137  C     C_2   0.640970 0.554453 0.787412 1.059423
O53   O     O_2   0.638461 0.598221 0.763678 -0.652006
O54   O     O_R   0.584044 0.526745 0.718533 -0.692308
H81   H     H_    0.544962 0.547527 0.655336 0.356668
C138  C     C_2   0.657195 0.442412 0.788834 0.979707
O55   O     O_2   0.648585 0.447808 0.723202 -0.619313
O56   O     O_R   0.614708 0.411725 0.765405 -0.680370
H82   H     H_    0.578984 0.397438 0.692362 0.337865
C139  C     C_2   0.140576 0.054349 0.787448 1.057657
O57   O     O_2   0.137895 0.098079 0.763396 -0.652811
O58   O     O_R   0.083724 0.026604 0.719009 -0.695403
H83   H     H_    0.044548 0.047336 0.655851 0.353410
C140  C     C_2   0.156810 0.942316 0.788849 0.978266
O59   O     O_2   0.148272 0.947267 0.723246 -0.625261
O60   O     O_R   0.114105 0.912093 0.765476 -0.679571
H84   H     H_    0.078284 0.897741 0.692473 0.335980
N1    N     N_R   0.625947 0.235533 0.202724 0.231355
O61   O     O_R   0.638537 0.229640 0.276354 -0.330773
O62   O     O_R   0.672237 0.234177 0.224710 -0.336260
N2    N     N_R   0.627061 0.753974 0.204728 0.232257
O63   O     O_R   0.640167 0.756092 0.279301 -0.331730
O64   O     O_R   0.673391 0.754132 0.226772 -0.332971
N3    N     N_R   0.124315 0.727241 0.199477 0.232063
O65   O     O_R   0.136277 0.718327 0.271858 -0.324539
O66   O     O_R   0.170444 0.724971 0.221144 -0.336320
N4    N     N_R   0.124548 0.272626 0.199606 0.232208
O67   O     O_R   0.136666 0.281534 0.272169 -0.327063
O68   O     O_R   0.170641 0.274834 0.221167 -0.336595
N5    N     N_R   0.404511 0.825187 0.405747 0.196687
O69   O     O_R   0.348865 0.802793 0.329407 -0.397733
O70   O     O_R   0.409399 0.867437 0.443574 -0.331704
N6    N     N_R   0.405929 0.170957 0.404502 0.208986
O71   O     O_R   0.412342 0.128304 0.443305 -0.329988
O72   O     O_R   0.348796 0.190160 0.323826 -0.356161
N7    N     N_R   0.904360 0.325135 0.405705 0.196902
O73   O     O_R   0.848714 0.302756 0.329217 -0.395789
O74   O     O_R   0.909184 0.367346 0.443527 -0.332791
N8    N     N_R   0.905771 0.671120 0.404463 0.210610
O75   O     O_R   0.912089 0.628494 0.443211 -0.336890
O76   O     O_R   0.848681 0.690401 0.323818 -0.351998
C141  C     C_2   0.472901 0.848042 0.411257 0.946913
O77   O     O_2   0.523439 0.848358 0.450169 -0.618631
O78   O     O_R   0.427320 0.885880 0.338831 -0.707021
H85   H     H_    0.441932 0.911024 0.325965 0.380066
C142  C     C_2   0.474020 0.152427 0.408302 0.950764
O79   O     O_2   0.524702 0.153417 0.447652 -0.620707
O80   O     O_R   0.428053 0.115339 0.332695 -0.735110
H86   H     H_    0.442684 0.091795 0.318289 0.369743
C143  C     C_2   0.972687 0.348146 0.411153 0.939918
O81   O     O_2   0.023204 0.348537 0.450005 -0.619191
O82   O     O_R   0.927036 0.385950 0.338719 -0.708243
H87   H     H_    0.941607 0.411160 0.325857 0.379951
C144  C     C_2   0.973851 0.652358 0.408311 0.942261
O83   O     O_2   0.024540 0.653240 0.447676 -0.618984
O84   O     O_R   0.927832 0.615284 0.332733 -0.736765
H88   H     H_    0.942450 0.591642 0.318401 0.370018
C145  C     C_2   0.871936 0.948303 0.145566 0.946472
O85   O     O_2   0.903244 0.921056 0.153004 -0.615468
O86   O     O_R   0.895113 0.959226 0.233881 -0.772131
H89   H     H_    0.937859 0.942352 0.298619 0.352147
C146  C     C_2   0.868855 0.057814 0.123279 0.943450
O87   O     O_2   0.895595 0.075768 0.114192 -0.600634
O88   O     O_R   0.896677 0.063827 0.216869 -0.778907
H90   H     H_    0.938634 0.083411 0.270689 0.344702
C147  C     C_2   0.130548 0.442077 0.874166 0.942071
O89   O     O_2   0.103038 0.424268 0.881899 -0.607731
O90   O     O_R   0.103778 0.435783 0.781551 -0.765964
H91   H     H_    0.061869 0.416100 0.727200 0.359665
C148  C     C_2   0.127664 0.551523 0.851302 0.950394
O91   O     O_2   0.095496 0.578844 0.841917 -0.615124
O92   O     O_R   0.105901 0.540385 0.764417 -0.760221
H92   H     H_    0.063389 0.557255 0.698952 0.367268
C149  C     C_2   0.625587 0.942306 0.822912 0.948364
O93   O     O_2   0.609551 0.939240 0.854642 -0.590268
O94   O     O_R   0.587741 0.919476 0.728330 -0.783932
H93   H     H_    0.548363 0.901933 0.693476 0.357378
C150  C     C_2   0.625813 0.052468 0.839804 0.950832
O95   O     O_2   0.614856 0.044292 0.878654 -0.583224
O96   O     O_R   0.583894 0.082911 0.750767 -0.793625
H94   H     H_    0.546499 0.095911 0.726140 0.357766
C151  C     C_2   0.374157 0.447835 0.161678 0.947379
O97   O     O_2   0.385870 0.456379 0.124049 -0.575835
O98   O     O_R   0.415612 0.417178 0.250335 -0.808805
H95   H     H_    0.453340 0.404350 0.275728 0.347546
C152  C     C_2   0.373920 0.557993 0.179186 0.942156
O99   O     O_2   0.391475 0.560996 0.149888 -0.586576
O100  O     O_R   0.410060 0.581411 0.272362 -0.801060
H96   H     H_    0.449546 0.599441 0.308295 0.339885
N9    N     N_R   0.659624 0.551292 0.966237 0.268001
O101  O     O_R   0.618493 0.573312 0.876553 -0.282229
O102  O     O_R   0.641655 0.542337 0.997840 -0.233327
N10   N     N_R   0.647660 0.450987 0.927581 0.278543
O103  O     O_R   0.603482 0.474348 0.838918 -0.219278
O104  O     O_R   0.629415 0.412615 0.937476 -0.272648
N11   N     N_R   0.160077 0.051349 0.967315 0.267782
O105  O     O_R   0.118810 0.073446 0.877659 -0.284376
O106  O     O_R   0.142380 0.042392 0.999356 -0.229593
N12   N     N_R   0.147957 0.950971 0.928495 0.278560
O107  O     O_R   0.103531 0.974505 0.840016 -0.220050
O108  O     O_R   0.129985 0.912400 0.938571 -0.273963
N13   N     N_R   0.850008 0.549019 0.066187 0.261489
O109  O     O_R   0.899929 0.578836 0.136515 -0.309408
O110  O     O_R   0.836230 0.530292 0.995119 -0.339333
N14   N     N_R   0.864970 0.447676 0.105309 0.283871
O111  O     O_R   0.926083 0.453326 0.194797 -0.313926
O112  O     O_R   0.846154 0.423945 0.031858 -0.347061
N15   N     N_R   0.349667 0.048999 0.065354 0.261369
O113  O     O_R   0.399591 0.078838 0.135445 -0.311029
O114  O     O_R   0.335626 0.030248 0.994013 -0.340473
N16   N     N_R   0.364765 0.947661 0.104679 0.283703
O115  O     O_R   0.425918 0.953261 0.194016 -0.315823
O116  O     O_R   0.345733 0.923917 0.031026 -0.347707
C153  C     C_2   0.770681 0.550921 0.139502 0.887371
O117  O     O_2   0.762683 0.593861 0.150509 -0.507408
O118  O     O_R   0.825093 0.523201 0.228470 -0.805445
H97   H     H_    0.852003 0.541956 0.295064 0.418398
C154  C     C_2   0.746183 0.443325 0.112688 0.951976
O119  O     O_2   0.725853 0.455366 0.135703 -0.477925
O120  O     O_R   0.793678 0.405767 0.171598 -0.780174
H98   H     H_    0.807246 0.392745 0.230597 0.417960
C155  C     C_2   0.271259 0.050937 0.140219 0.886912
O121  O     O_2   0.263423 0.093903 0.151424 -0.507580
O122  O     O_R   0.325713 0.023183 0.229046 -0.804231
H99   H     H_    0.352779 0.041927 0.295733 0.419770
C156  C     C_2   0.246703 0.943354 0.113483 0.952061
O123  O     O_2   0.226583 0.955406 0.136849 -0.476410
O124  O     O_R   0.294157 0.905782 0.172165 -0.780370
H100  H     H_    0.307873 0.892757 0.231311 0.418138
N17   N     N_R   0.488439 0.345276 0.928338 0.236053
O125  O     O_R   0.450458 0.379701 0.901049 -0.305378
O126  O     O_R   0.520063 0.355716 0.921057 -0.296511
N18   N     N_R   0.477913 0.658969 0.908096 0.236907
O127  O     O_R   0.436150 0.626203 0.873535 -0.305280
O128  O     O_R   0.508360 0.648871 0.898550 -0.301201
N19   N     N_R   0.996547 0.847970 0.944486 0.236350
O129  O     O_R   0.961532 0.883420 0.923106 -0.303572
O130  O     O_R   0.029030 0.858661 0.938917 -0.295494
N20   N     N_R   0.995616 0.152043 0.943361 0.236662
O131  O     O_R   0.960322 0.116650 0.921687 -0.301884
O132  O     O_R   0.027954 0.141290 0.937581 -0.297399

loop_
_geom_bond_atom_site_label_1
_geom_bond_atom_site_label_2
_geom_bond_distance
_ccdc_geom_bond_type
N8    O76   1.301579 A    
C99   H59   1.112636 S    
C120  C144  1.531428 S    
Zn5   O21   1.956121 S    
C140  O60   1.394499 S    
C58   C62   1.543168 S    
O56   H82   1.012162 S    
O23   C19   1.278144 A    
C144  O83   1.223675 D    
C122  C134  1.572731 S    
C125  H77   1.108673 S    
C143  O81   1.223602 D    
H71   C127  1.107799 S    
C127  C135  1.560141 S    
C29   C30   1.622355 S    
Zn10  O50   1.908359 S    
H46   C114  1.113903 S    
C77   N17   1.457176 S    
O42   C14   1.276045 A    
C27   H3    1.105968 S    
C95   H39   1.113949 S    
C131  C132  1.571476 S    
C93   H37   1.114034 S    
O46   C2    1.285146 A    
C64   C76   1.544171 S    
C130  C134  1.574319 S    
C98   C106  1.547904 S    
Zn4   O12   1.912096 S    
O34   C22   1.275960 A    
C4    C55   1.425922 S    
C68   C72   1.530808 S    
Zn11  O51   1.909766 S    
C75   C77   1.541743 S    
Zn3   O3    1.947347 S    
C90   C94   1.533291 S    
C67   C71   1.530797 S    
C96   H40   1.114012 S    
Zn16  O28   1.954627 S    
O28   C24   1.271459 A    
C122  C146  1.525003 S    
C57   C61   1.543240 S    
C15   C107  1.484862 S    
H42   C98   1.113303 S    
C131  H75   1.114929 S    
N17   O126  1.300306 A    
Zn4   O40   1.945780 S    
Zn15  O43   1.945826 S    
C94   C110  1.560807 S    
O11   C7    1.285345 A    
C148  O92   1.397570 S    
C101  C105  1.547826 S    
N4    O68   1.300261 A    
C31   C155  1.559566 S    
C89   C105  1.552197 S    
N1    O61   1.300214 A    
C69   C77   1.530747 S    
N6    O71   1.302749 A    
C100  C108  1.547868 S    
O16   C12   1.277277 A    
C61   C73   1.544213 S    
O92   H92   1.013879 S    
Zn16  O4    1.946962 S    
Zn12  O4    1.949795 S    
C118  C142  1.531426 S    
Zn13  O5    1.912445 S    
Zn2   O10   1.912096 S    
C42   C48   1.557751 S    
C111  C119  1.596494 S    
C63   C83   1.456881 S    
Zn6   O14   1.941928 S    
O47   C3    1.283438 A    
C65   N1    1.457104 S    
C41   C69   1.546277 S    
C43   C57   1.557776 S    
H47   C115  1.113802 S    
C99   C115  1.542144 S    
C129  C149  1.523009 S    
C35   N15   1.484680 S    
C29   C153  1.559562 S    
C11   C110  1.493431 S    
C78   N18   1.457151 S    
C14   C106  1.487311 S    
C100  H60   1.112767 S    
C120  N8    1.482653 S    
N18   O127  1.300205 A    
O24   C20   1.278335 A    
C153  O118  1.400984 S    
C137  O54   1.396563 S    
C151  O97   1.222269 D    
C128  H80   1.108763 S    
Zn6   O46   1.909914 S    
Zn10  O2    1.949795 S    
C6    C50   1.426303 S    
Zn11  O19   1.941976 S    
C28   C140  1.529474 S    
C46   C62   1.543346 S    
C149  O93   1.222150 D    
N16   O115  1.301378 A    
O82   H87   1.013024 S    
Zn4   O4    1.942434 S    
C140  O59   1.224546 D    
C92   H28   1.110396 S    
C59   C65   1.538895 S    
O94   H93   1.013866 S    
Zn7   O23   1.956121 S    
C124  C136  1.573362 S    
Zn8   O24   1.955949 S    
C156  O123  1.225004 D    
C155  O121  1.225039 D    
C102  H50   1.113292 S    
O31   C19   1.276439 A    
N13   O110  1.301434 A    
O25   C21   1.265284 A    
N7    O74   1.302846 A    
C147  O89   1.223289 D    
O120  H98   1.012520 S    
C131  C151  1.522209 S    
O90   H91   1.013891 S    
C36   H8    1.106430 S    
C154  O119  1.225004 D    
C30   N10   1.496606 S    
Zn12  O52   1.908359 S    
C70   C86   1.458362 S    
O22   C18   1.276592 A    
C31   C39   1.625135 S    
C98   C114  1.540630 S    
H45   C113  1.113748 S    
C90   H26   1.110342 S    
C121  C122  1.570693 S    
C47   C77   1.538957 S    
N5    O70   1.302860 A    
Zn13  O41   1.945826 S    
O118  H97   1.013696 S    
O50   C6    1.283512 A    
C46   C80   1.538950 S    
Zn16  O44   1.944714 S    
C141  O78   1.397610 S    
Zn1   O37   1.944669 S    
O10   C6    1.283844 A    
C65   C69   1.530792 S    
Zn2   O34   1.956804 S    
Zn3   O39   1.944669 S    
C60   H24   1.110104 S    
N14   O111  1.301378 A    
C43   H15   1.110069 S    
C35   C36   1.551776 S    
Zn6   O22   1.955949 S    
C59   H23   1.110107 S    
C41   H13   1.110068 S    
C126  H78   1.109846 S    
N2    O64   1.300265 A    
C117  N5    1.482461 S    
C132  H76   1.115005 S    
C114  H62   1.110552 S    
C36   N16   1.481407 S    
C142  O80   1.398949 S    
C19   C135  1.497915 S    
N10   O104  1.305022 A    
C95   H35   1.109610 S    
C145  O86   1.397472 S    
Zn5   O45   1.908508 S    
C100  C116  1.540614 S    
C98   H58   1.112767 S    
C97   C105  1.549230 S    
C32   C40   1.618423 S    
C99   C107  1.549184 S    
C71   C79   1.530752 S    
C103  C107  1.548181 S    
C72   C88   1.458366 S    
O5    C1    1.283646 A    
O26   C22   1.271560 A    
C76   C78   1.541698 S    
C45   H9    1.110105 S    
C139  O57   1.224385 D    
C47   H11   1.110106 S    
C31   N11   1.492061 S    
C128  C136  1.559145 S    
Zn9   O49   1.909766 S    
C92   H32   1.113491 S    
C138  O55   1.224564 D    
C129  H73   1.114988 S    
C97   H57   1.112626 S    
Zn7   O47   1.908508 S    
C110  C118  1.597061 S    
C125  C133  1.558929 S    
Zn8   O48   1.909914 S    
N20   O131  1.300206 A    
C43   C71   1.546273 S    
O51   C7    1.285221 A    
C147  O90   1.397493 S    
N12   O107  1.295347 A    
C25   H1    1.105916 S    
C31   C32   1.622636 S    
O8    C4    1.285126 A    
Zn9   O1    1.950138 S    
C1    C54   1.425741 S    
N15   O114  1.301425 A    
C33   C37   1.597654 S    
C35   C39   1.597655 S    
C70   C78   1.530676 S    
C103  H55   1.113749 S    
C124  C148  1.524356 S    
C104  C120  1.570456 S    
C74   H18   1.110138 S    
C66   N2    1.457112 S    
C3    C56   1.425721 S    
C62   C74   1.544162 S    
O52   C8    1.283527 A    
C90   H30   1.113491 S    
C28   H4    1.104198 S    
Zn1   O1    1.947347 S    
O40   C12   1.277605 A    
Zn13  O1    1.942050 S    
Zn14  O6    1.911522 S    
Zn3   O11   1.911174 S    
C29   N9    1.492114 S    
C153  O117  1.225037 D    
C25   C137  1.535324 S    
C94   H34   1.110264 S    
C124  H68   1.116131 S    
C17   C133  1.498264 S    
C42   C70   1.546258 S    
O9    C5    1.285351 A    
C102  C118  1.570442 S    
O41   C13   1.273848 A    
C121  H65   1.116142 S    
O13   C9    1.279549 A    
C91   C107  1.552172 S    
C51   C83   1.200473 T    
C33   N13   1.484724 S    
O18   C14   1.279507 A    
O6    C2    1.285122 A    
C101  H49   1.113485 S    
C152  O100  1.398545 S    
Zn9   O29   1.956061 S    
N17   O125  1.300205 A    
C151  O98   1.398407 S    
Zn11  O31   1.956061 S    
Zn12  O32   1.956232 S    
C132  C152  1.523157 S    
Zn13  O25   1.957075 S    
C148  O91   1.223232 D    
N11   O105  1.298359 A    
C61   C81   1.456887 S    
Zn15  O3    1.942050 S    
C150  O96   1.398539 S    
Zn11  O3    1.950138 S    
C66   C76   1.541681 S    
C57   H21   1.110105 S    
C67   C73   1.541694 S    
N19   O130  1.300308 A    
O43   C15   1.273895 A    
N9    O102  1.303328 A    
C7    C51   1.426561 S    
Zn5   O1    1.949795 S    
C26   H2    1.104162 S    
C29   C37   1.625115 S    
O100  H96   1.013903 S    
C94   H38   1.114034 S    
C44   C72   1.546238 S    
C118  N6    1.482623 S    
C104  H52   1.113308 S    
N6    O72   1.301578 A    
C110  C114  1.556685 S    
C58   C68   1.538863 S    
C102  H54   1.113485 S    
O35   C23   1.280414 A    
C89   H29   1.113556 S    
C130  C150  1.522244 S    
C79   N19   1.457186 S    
N19   O129  1.300206 A    
C91   C95   1.534002 S    
O96   H94   1.013847 S    
O32   C20   1.276363 A    
C146  O88   1.397345 S    
C89   C93   1.534057 S    
C60   C64   1.543170 S    
C48   H12   1.110108 S    
C143  O82   1.397627 S    
N8    O75   1.302742 A    
H41   C97   1.113182 S    
C149  O94   1.398341 S    
C129  C130  1.571639 S    
Zn9   O17   1.941976 S    
C26   C138  1.529387 S    
C95   C111  1.563428 S    
C93   C109  1.563472 S    
C144  O84   1.398941 S    
C48   C78   1.538907 S    
N1    O62   1.300269 A    
Zn14  O42   1.944714 S    
C68   C74   1.541673 S    
C90   C106  1.552274 S    
C123  C147  1.525213 S    
N3    O65   1.300218 A    
O7    C3    1.283658 A    
C32   N12   1.496623 S    
C16   C108  1.487323 S    
O58   H83   1.014039 S    
Zn3   O35   1.954356 S    
C24   C40   1.494015 S    
C96   C112  1.560836 S    
C92   C96   1.533254 S    
C68   N4    1.457109 S    
C26   C38   1.596310 S    
C9    C112  1.493416 S    
C36   C40   1.597035 S    
C123  C135  1.572773 S    
N18   O128  1.300304 A    
O37   C9    1.277292 A    
O60   H84   1.012169 S    
H69   C125  1.109151 S    
C137  O53   1.224386 D    
C42   H14   1.110066 S    
C91   H27   1.113727 S    
O39   C11   1.277297 A    
O84   H88   1.013514 S    
C127  H79   1.109854 S    
C127  C128  1.533457 S    
H43   C99   1.113184 S    
C34   N14   1.481457 S    
H48   C116  1.113837 S    
N16   O116  1.302110 A    
Zn4   O36   1.956804 S    
C116  H64   1.110558 S    
Zn2   O38   1.945780 S    
C64   C84   1.456615 S    
C30   C38   1.618322 S    
O12   C8    1.283831 A    
C18   C134  1.497752 S    
O88   H90   1.013827 S    
N13   O109  1.302109 A    
C33   H5    1.107525 S    
N4    O67   1.300220 A    
O19   C15   1.277819 A    
C111  C115  1.557238 S    
C12   C109  1.494437 S    
C13   C105  1.484913 S    
C33   C34   1.551791 S    
C97   C113  1.542340 S    
C129  C133  1.574568 S    
C109  C113  1.557274 S    
C55   C87   1.200234 T    
C130  H74   1.114946 S    
C155  O122  1.400979 S    
O78   H85   1.013064 S    
O80   H86   1.013524 S    
C121  C133  1.573418 S    
N5    O69   1.301499 A    
C126  C134  1.559998 S    
C41   C47   1.557778 S    
C141  O77   1.223604 D    
C101  C117  1.566836 S    
Zn15  O27   1.957075 S    
N7    O73   1.301502 A    
C2    C53   1.425925 S    
N14   O112  1.302113 A    
C69   C85   1.458583 S    
O124  H100  1.012469 S    
N20   O132  1.300310 A    
C103  H51   1.113617 S    
C73   H17   1.110134 S    
C54   C86   1.200111 T    
O38   C10   1.277601 A    
C45   C79   1.538976 S    
O86   H89   1.013790 S    
C25   C26   1.563675 S    
Zn2   O2    1.942434 S    
C142  O79   1.223674 D    
Zn14  O2    1.946962 S    
C27   C28   1.563498 S    
C96   H36   1.110269 S    
C63   C75   1.544216 S    
C8    C52   1.426306 S    
N15   O113  1.302108 A    
C58   H22   1.110102 S    
C145  O85   1.223245 D    
C59   C63   1.543242 S    
C28   C40   1.596044 S    
Zn8   O4    1.950140 S    
C34   H6    1.106405 S    
C27   C139  1.535279 S    
O21   C17   1.276559 A    
C41   C59   1.557784 S    
C131  C135  1.574542 S    
C49   C81   1.200473 T    
C119  C143  1.532397 S    
N11   O106  1.303356 A    
C122  H66   1.116140 S    
C21   C37   1.492691 S    
O49   C5    1.285216 A    
C23   C39   1.492739 S    
C101  H53   1.113660 S    
O54   H81   1.014046 S    
C10   C111  1.494524 S    
Zn10  O30   1.956232 S    
C60   C66   1.538904 S    
O122  H99   1.013678 S    
Zn12  O20   1.943500 S    
C125  C126  1.533152 S    
C73   C79   1.541761 S    
C53   C85   1.200234 T    
C132  C136  1.574363 S    
Zn14  O26   1.954627 S    
Zn15  O7    1.912445 S    
C62   C82   1.456632 S    
C56   C88   1.200111 T    
C75   H19   1.110133 S    
Zn1   O9    1.911174 S    
C76   H20   1.110135 S    
C113  H61   1.110303 S    
C121  C145  1.524131 S    
C67   N3    1.457100 S    
C154  O120  1.396533 S    
C44   C46   1.557769 S    
C50   C82   1.200326 T    
C102  C106  1.549918 S    
Zn5   O13   1.943453 S    
Zn6   O2    1.950140 S    
C123  H67   1.116127 S    
Zn7   O15   1.943453 S    
C104  H56   1.113463 S    
C115  H63   1.110317 S    
Zn8   O16   1.941928 S    
C44   C58   1.557773 S    
C89   H25   1.113728 S    
C52   C84   1.200319 T    
O27   C23   1.265210 A    
C112  C116  1.556733 S    
N3    O66   1.300263 A    
C46   H10   1.110106 S    
O29   C17   1.278222 A    
O98   H95   1.013859 S    
H72   C128  1.109214 S    
Zn10  O18   1.943500 S    
C65   C75   1.541699 S    
C35   H7    1.107580 S    
C43   C45   1.557789 S    
C109  C117  1.596448 S    
N2    O63   1.300207 A    
C47   C63   1.543351 S    
C30   C154  1.547790 S    
C66   C70   1.530789 S    
C45   C61   1.543360 S    
C156  O124  1.396442 S    
C22   C38   1.494104 S    
C42   C60   1.557788 S    
C123  C124  1.570881 S    
C104  C108  1.549976 S    
N10   O103  1.295343 A    
C57   C67   1.538880 S    
C152  O99   1.222159 D    
C34   C38   1.597119 S    
O45   C1    1.283457 A    
C92   C108  1.552239 S    
N12   O108  1.305035 A    
C48   C64   1.543321 S    
C44   H16   1.110070 S    
O33   C21   1.280306 A    
C91   H31   1.113558 S    
H70   C126  1.107833 S    
O15   C11   1.279550 A    
C74   C80   1.541736 S    
C32   C156  1.547569 S    
C150  O95   1.222257 D    
Zn7   O3    1.949795 S    
C119  N7    1.482513 S    
C112  C120  1.596959 S    
C20   C136  1.498177 S    
C139  O58   1.396524 S    
C27   C39   1.585885 S    
N9    O101  1.298362 A    
O44   C16   1.276067 A    
O17   C13   1.277896 A    
O20   C16   1.279492 A    
C93   H33   1.109593 S    
C80   N20   1.457176 S    
C138  O56   1.394446 S    
C103  C119  1.567245 S    
O48   C4    1.285141 A    
Zn16  O8    1.911522 S    
O36   C24   1.275964 A    
O14   C10   1.277311 A    
C71   C87   1.458585 S    
C72   C80   1.530689 S    
H44   C100  1.113302 S    
C5    C49   1.426556 S    
C25   C37   1.585715 S    
C117  C141  1.532519 S    
C146  O87   1.223313 D    
Zn1   O33   1.954356 S    
O30   C18   1.277894 A    
