data_mof_unit_49966.cif
_audit_creation_date              2012-12-10T20:37:32-0500
_audit_creation_method            fapswitch 2.2
_symmetry_space_group_name_H-M    P1
_symmetry_Int_Tables_number       1
_space_group_crystal_system       triclinic
_cell_length_a                    15.757827
_cell_length_b                    10.732029
_cell_length_c                    9.926163
_cell_angle_alpha                 90.614508
_cell_angle_beta                  90.272241
_cell_angle_gamma                 91.266585
_cell_volume                      1678.12017396

loop_
_atom_site_label
_atom_site_type_symbol
_atom_type_description
_atom_site_fract_x
_atom_site_fract_y
_atom_site_fract_z
_atom_type_partial_charge
C1    C     C_R   0.505862 0.260432 0.498752 0.874488
C2    C     C_R   0.518320 0.128192 0.495390 -0.146257
C3    C     C_R   0.554933 0.065629 0.382440 0.012827
C4    C     C_R   0.337883 0.498540 0.500124 0.919115
C5    C     C_R   0.555177 0.934344 0.383034 -0.044943
C6    C     C_R   0.528683 0.870895 0.500348 -0.235806
C7    C     C_R   0.510349 0.936914 0.616711 0.093397
C8    C     C_3   0.562024 0.948156 0.744540 -0.097744
C9    C     C_3   0.539523 0.084078 0.747012 -0.466005
C10   C     C_R   0.429443 0.460605 0.069691 0.208858
C11   C     C_R   0.566129 0.548064 0.075527 -0.158632
C12   C     C_3   0.082130 0.487472 0.509336 0.109384
C13   C     C_R   0.566750 0.549892 0.932801 0.105489
C14   C     C_R   0.429721 0.463108 0.927784 0.163764
C15   C     C_3   0.382689 0.343579 0.910782 -0.325421
C16   C     C_R   0.509724 0.739054 0.500271 0.900264
C17   C     C_3   0.387738 0.332090 0.065159 -0.261145
C18   C     C_R   0.661780 0.503080 0.499731 0.875150
C19   C     C_3   0.963512 0.399031 0.564067 -0.075601
C20   C     C_3   0.023526 0.388031 0.441720 -0.245045
C21   C     C_1   0.248672 0.492637 0.502427 -0.155059
C22   C     C_1   0.750365 0.507184 0.496661 -0.087838
C23   C     C_3   0.975274 0.601959 0.560499 -0.072302
C24   C     C_3   0.023200 0.497210 0.632017 -0.109993
C25   C     C_3   0.658399 0.930790 0.725746 -0.375106
C26   C     C_3   0.707324 0.964755 0.855877 -0.411237
C27   C     C_3   0.802009 0.942979 0.840866 -0.755218
C28   C     C_3   0.644909 0.608347 0.872957 -0.378448
C29   C     C_3   0.718306 0.516154 0.873776 -0.335207
C30   C     C_3   0.801325 0.579081 0.831162 -0.793365
C31   C     C_2   0.297843 0.367929 0.846998 0.992852
C32   C     C_3   0.301767 0.318481 0.139716 -0.289306
C33   C     C_3   0.307080 0.224423 0.254919 -0.373745
C34   C     C_3   0.916092 0.503835 0.493756 -0.031247
C35   C     C_3   0.219603 0.192754 0.311639 -0.818733
C36   C     C_2   0.922365 0.288787 0.631953 0.928628
C37   C     C_2   0.951307 0.493721 0.227160 0.943784
C38   C     C_2   0.946688 0.726321 0.610941 0.917957
C39   C     C_2   0.048005 0.487076 0.777565 0.902491
C40   C     C_3   0.604690 0.135699 0.273157 -0.389213
C41   C     C_3   0.687754 0.190956 0.331603 -0.335285
C42   C     C_3   0.737840 0.263170 0.225786 -0.806179
C43   C     C_2   0.585893 0.864453 0.263924 0.926917
C44   C     C_3   0.035275 0.593108 0.437894 -0.213580
C45   C     C_3   0.975445 0.493913 0.372794 0.000946
C46   C     C_1   0.173300 0.488118 0.507425 -0.007933
C47   C     C_1   0.825416 0.508364 0.492473 0.100795
C48   C     C_R   0.498149 0.063108 0.612297 0.089862
H1    H     H_    0.042454 0.299114 0.393782 0.169393
H2    H     H_    0.829107 0.002211 0.760380 0.257255
H3    H     H_    0.835191 0.966103 0.937148 0.271230
H4    H     H_    0.698483 0.064401 0.882558 0.227803
H5    H     H_    0.682912 0.907925 0.940487 0.232511
H6    H     H_    0.670366 0.832972 0.696456 0.197125
H7    H     H_    0.682505 0.990231 0.642317 0.219441
H8    H     H_    0.792443 0.630010 0.735827 0.247796
H9    H     H_    0.823496 0.646041 0.910406 0.278252
H10   H     H_    0.850663 0.508014 0.816611 0.261858
H11   H     H_    0.726892 0.479003 0.976808 0.209284
H12   H     H_    0.492936 0.104113 0.827152 0.188349
H13   H     H_    0.704103 0.434842 0.806936 0.260200
H14   H     H_    0.631410 0.648078 0.774108 0.234826
H15   H     H_    0.664368 0.690696 0.935354 0.175780
H16   H     H_    0.213583 0.498638 0.798133 0.354572
H17   H     H_    0.188083 0.278968 0.344277 0.264219
H18   H     H_    0.179564 0.144248 0.234096 0.271961
H19   H     H_    0.226084 0.130748 0.399761 0.271864
H20   H     H_    0.335623 0.136604 0.218116 0.237914
H21   H     H_    0.347461 0.263336 0.337187 0.249896
H22   H     H_    0.281045 0.410142 0.179303 0.230862
H23   H     H_    0.594149 0.151503 0.743665 0.201910
H24   H     H_    0.251587 0.282558 0.069804 0.222907
H25   H     H_    0.814141 0.206671 0.698629 0.330219
H26   H     H_    0.859018 0.504448 0.088489 0.347518
H27   H     H_    0.885393 0.884206 0.568033 0.345513
H28   H     H_    0.090777 0.376807 0.925438 0.376606
H29   H     H_    0.752147 0.202006 0.138164 0.248909
H30   H     H_    0.701266 0.344128 0.190933 0.269714
H31   H     H_    0.798681 0.297483 0.270773 0.274601
H32   H     H_    0.674679 0.253902 0.417898 0.224569
H33   H     H_    0.727431 0.114194 0.369347 0.232560
H34   H     H_    0.619897 0.584520 0.132865 0.203378
H35   H     H_    0.622605 0.074576 0.187951 0.205274
H36   H     H_    0.566491 0.206825 0.222829 0.225106
H37   H     H_    0.567563 0.818773 0.068282 0.315689
H38   H     H_    0.419778 0.273728 0.855299 0.150952
H39   H     H_    0.434042 0.260000 0.094082 0.169798
H40   H     H_    0.066104 0.672878 0.385401 0.177240
H41   H     H_    0.533634 0.893653 0.828361 0.185196
H42   H     H_    0.812965 0.844281 0.814858 0.275366
N1    N     N_R   0.499430 0.499140 0.142800 -0.132041
N2    N     N_R   0.499430 0.499180 0.857150 -0.135208
O1    O     O_R   0.500010 0.316790 0.614690 -0.622297
O2    O     O_R   0.260742 0.484162 0.864821 -0.781154
O3    O     O_2   0.966091 0.203801 0.671396 -0.556836
O4    O     O_R   0.834450 0.283856 0.649652 -0.857665
O5    O     O_2   0.005883 0.479307 0.141749 -0.604359
O6    O     O_R   0.867025 0.510561 0.189461 -0.810288
O7    O     O_2   0.964767 0.762297 0.724785 -0.569172
O8    O     O_R   0.900215 0.801559 0.524935 -0.789008
O9    O     O_2   0.042981 0.576841 0.853458 -0.530471
O10   O     O_R   0.076049 0.373245 0.825940 -0.737003
O11   O     O_2   0.648434 0.799630 0.273560 -0.634210
O12   O     O_R   0.500000 0.316760 0.385350 -0.640982
O13   O     O_R   0.542161 0.872319 0.141576 -0.820882
O14   O     O_R   0.376780 0.500010 0.614650 -0.593503
O15   O     O_R   0.376770 0.499970 0.385310 -0.619190
O16   O     O_R   0.500000 0.683240 0.614650 -0.627855
O17   O     O_R   0.499990 0.683210 0.385310 -0.586449
O18   O     O_R   0.623230 0.500030 0.614690 -0.645582
O19   O     O_R   0.623220 0.499990 0.385350 -0.600448
O20   O     O_2   0.263722 0.288162 0.775133 -0.593885
Zn1   Zn    Zn3+2 0.500010 0.500020 0.653130 0.950921
Zn2   Zn    Zn3+2 0.499990 0.499980 0.346870 0.970776

loop_
_geom_bond_atom_site_label_1
_geom_bond_atom_site_label_2
_ccdc_geom_bond_type
C41   C42   S    
C40   H36   S    
C19   C20   S    
C41   H32   S    
C37   O5    D    
C7    C8    S    
C32   H24   S    
C26   C27   S    
C29   C30   S    
C28   C29   S    
C19   C36   S    
C5    C6    A    
C35   H17   S    
C10   C17   S    
C30   H9    S    
C24   C39   S    
C27   H42   S    
C1    C2    S    
C43   O13   S    
C29   H11   S    
C8    C9    S    
C31   O20   D    
C13   C28   S    
N2    Zn1   S    
C20   C45   S    
C27   H2    S    
C33   H21   S    
C22   C47   T    
C5    C43   S    
C42   H31   S    
C17   H39   S    
C8    C25   S    
C40   H35   S    
H37   O13   S    
C37   O6    S    
C27   H3    S    
C16   O17   A    
C39   O9    D    
C11   H34   S    
H28   O10   S    
C4    O15   A    
C29   H13   S    
O14   Zn1   S    
C18   O18   A    
C18   O19   A    
C38   O8    S    
C10   C14   A    
C32   H22   S    
C35   H18   S    
C2    C48   A    
C25   C26   S    
C4    O14   A    
C23   C44   S    
O16   Zn1   S    
O15   Zn2   S    
C20   H1    S    
C26   H4    S    
C36   O4    S    
C1    O12   A    
C35   H19   S    
C23   C24   S    
C23   C34   S    
C41   H33   S    
C12   C20   S    
C34   C45   S    
O1    Zn1   S    
C25   H6    S    
O18   Zn1   S    
C14   N2    A    
O17   Zn2   S    
C9    C48   S    
C15   H38   S    
O12   Zn2   S    
C12   C46   S    
C40   C41   S    
C10   N1    A    
C42   H30   S    
C13   N2    A    
C37   C45   S    
C23   C38   S    
C26   H5    S    
C44   C45   S    
C39   O10   S    
C21   C46   T    
C15   C17   S    
H26   O6    S    
C18   C22   S    
C9    H23   S    
C38   O7    D    
C3    C5    A    
C19   C34   S    
C3    C40   S    
C15   C31   S    
C6    C7    A    
C8    H41   S    
C31   O2    S    
C12   C24   S    
N1    Zn2   S    
C9    H12   S    
C7    C48   A    
C2    C3    A    
H16   O2    S    
C12   C44   S    
C32   C33   S    
C4    C21   S    
C11   C13   A    
C36   O3    D    
C30   H8    S    
C30   H10   S    
H27   O8    S    
C33   C35   S    
C25   H7    S    
C19   C24   S    
O19   Zn2   S    
C43   O11   D    
C16   O16   A    
C6    C16   S    
C28   H15   S    
C11   N1    A    
C42   H29   S    
C1    O1    A    
C17   C32   S    
C14   C15   S    
C34   C47   S    
H25   O4    S    
C44   H40   S    
C33   H20   S    
C28   H14   S    
