data_mof_unit_9259.cif
_audit_creation_date              2012-12-10T17:19:54-0500
_audit_creation_method            fapswitch 2.2
_symmetry_space_group_name_H-M    P1
_symmetry_Int_Tables_number       1
_space_group_crystal_system       triclinic
_cell_length_a                    9.606012
_cell_length_b                    10.802664
_cell_length_c                    15.442733
_cell_angle_alpha                 85.551467
_cell_angle_beta                  74.248187
_cell_angle_gamma                 90.27697
_cell_volume                      1537.11495876

loop_
_atom_site_label
_atom_site_type_symbol
_atom_type_description
_atom_site_fract_x
_atom_site_fract_y
_atom_site_fract_z
_atom_type_partial_charge
C1    C     C_R   0.996864 0.262165 0.505569 0.877576
C2    C     C_R   0.685039 0.520797 0.911091 0.037173
C3    C     C_R   0.777781 0.469210 0.961115 -0.011714
C4    C     C_R   0.541176 0.551865 0.957116 0.128920
C5    C     C_R   0.485874 0.514951 0.050842 0.052239
C6    C     C_R   0.582271 0.464584 0.098208 -0.262930
C7    C     C_R   0.725773 0.445769 0.054560 -0.164871
C8    C     C_R   0.451898 0.620767 0.912959 -0.255075
C9    C     C_R   0.309106 0.643547 0.957235 -0.266941
C10   C     C_R   0.249067 0.596420 0.046147 0.174082
C11   C     C_R   0.337132 0.533236 0.094528 0.072401
C12   C     C_R   0.918704 0.501571 0.672312 0.901773
C13   C     C_R   0.102055 0.614104 0.087876 -0.125931
C14   C     C_R   0.042832 0.575347 0.178767 -0.193222
C15   C     C_R   0.273327 0.492430 0.185520 -0.230616
C16   C     C_R   0.066768 0.108932 0.656826 0.557276
C17   C     C_R   0.135935 0.040166 0.712868 -0.204986
C18   C     C_R   0.164728 0.915810 0.700841 -0.250157
C19   C     C_R   0.119889 0.857926 0.635099 -0.189848
C20   C     C_R   0.056489 0.926839 0.574549 0.044346
C21   C     C_R   0.041833 0.056570 0.580726 -0.026509
C22   C     C_R   0.988946 0.127148 0.515638 -0.102637
C23   C     C_R   0.998702 0.736770 0.504579 0.748791
C24   C     C_R   0.925904 0.067877 0.458191 -0.217056
C25   C     C_R   0.924767 0.940268 0.459671 -0.199425
C26   C     C_R   0.996639 0.869797 0.512584 -0.048139
C27   C     C_R   0.700099 0.659974 0.371755 -0.327762
C28   C     C_R   0.656562 0.732638 0.304611 0.382689
C29   C     C_R   0.509718 0.735850 0.308270 0.410373
C30   C     C_R   0.410478 0.665226 0.376728 -0.273698
C31   C     C_R   0.452320 0.581349 0.439262 0.047780
C32   C     C_R   0.601946 0.580291 0.438236 0.151325
C33   C     C_R   0.548839 0.421872 0.557427 -0.182496
C34   C     C_R   0.082032 0.502099 0.327735 0.772932
C35   C     C_R   0.400150 0.420240 0.556952 0.499928
C36   C     C_R   0.876685 0.499918 0.771839 -0.234016
C37   C     C_R   0.130036 0.518683 0.228728 -0.059973
C38   C     C_R   0.920277 0.437687 0.916978 0.362848
C39   C     C_R   0.972008 0.458282 0.822449 0.424693
C40   C     C_R   0.736258 0.532687 0.816298 -0.376452
Cu1   Cu    Cu3+1 0.140660 0.499990 0.500010 1.007182
Cu2   Cu    Cu3+1 0.859340 0.500010 0.499990 0.937513
H1    H     H_    0.795054 0.408748 0.094663 0.191175
H2    H     H_    0.033852 0.660905 0.050776 0.144914
H3    H     H_    0.878001 0.120645 0.411502 0.152976
H4    H     H_    0.158082 0.081150 0.769694 0.147782
H5    H     H_    0.213275 0.861910 0.746557 0.150603
H6    H     H_    0.132216 0.758794 0.634859 0.172177
H7    H     H_    0.870300 0.895788 0.417721 0.139142
H8    H     H_    0.584871 0.358336 0.604091 0.134582
H9    H     H_    0.811707 0.667143 0.368388 0.219627
H10   H     H_    0.332997 0.441600 0.225619 0.151667
H11   H     H_    0.301360 0.677292 0.375740 0.237381
H12   H     H_    0.931122 0.594417 0.210707 0.186179
H13   H     H_    0.244349 0.696838 0.920946 0.134727
H14   H     H_    0.665996 0.561431 0.775082 0.185705
H15   H     H_    0.552277 0.442587 0.170134 0.145826
H16   H     H_    0.490723 0.661337 0.844450 0.144806
N1    N     N_R   0.648320 0.501210 0.499140 -0.181500
N2    N     N_R   0.352470 0.501290 0.499110 -0.189837
O1    O     O_R   0.118810 0.319640 0.500010 -0.515173
O2    O     O_R   0.881240 0.319660 0.500000 -0.587900
O3    O     O_R   0.055570 0.499980 0.629840 -0.486302
O4    O     O_R   0.818000 0.500010 0.629830 -0.599120
O5    O     O_R   0.118760 0.680340 0.500000 -0.614561
O6    O     O_R   0.881190 0.680360 0.499990 -0.593745
O7    O     O_R   0.182000 0.499990 0.370170 -0.601126
O8    O     O_R   0.944430 0.500020 0.370160 -0.596776
O9    O     O_3   0.001462 0.217524 0.685771 -0.542367
C41   C     C_3   0.861882 0.185011 0.742902 -0.361368
H17   H     H_    0.869136 0.138556 0.808335 0.157828
H18   H     H_    0.798885 0.125123 0.710645 0.150180
H19   H     H_    0.798809 0.269695 0.757702 0.186858
O10   O     O_3   0.756533 0.787187 0.228553 -0.593170
C42   C     C_3   0.837872 0.881766 0.251243 -0.338961
H20   H     H_    0.928167 0.841301 0.275123 0.160025
H21   H     H_    0.769293 0.941756 0.300509 0.167847
H22   H     H_    0.887609 0.942569 0.189123 0.190665
O11   O     O_3   0.456568 0.817615 0.251787 -0.580321
C43   C     C_3   0.511756 0.793413 0.160354 -0.198237
H23   H     H_    0.557261 0.699529 0.150435 0.159687
H24   H     H_    0.596006 0.864793 0.125561 0.196932
H25   H     H_    0.422641 0.801058 0.127328 0.160938
O12   O     O_3   0.301891 0.336753 0.613925 -0.646370
H26   H     H_    0.352316 0.284400 0.650901 0.294202
O13   O     O_3   0.009754 0.387091 0.966438 -0.585004
C44   C     C_3   0.003819 0.256657 0.965968 -0.319735
H27   H     H_    0.050152 0.226840 0.896910 0.197317
H28   H     H_    0.891268 0.218615 0.994279 0.147928
H29   H     H_    0.069916 0.216083 0.009275 0.186773
O14   O     O_3   0.109221 0.421565 0.778471 -0.510824
C45   C     C_3   0.213301 0.504462 0.792430 -0.229115
H30   H     H_    0.237721 0.476383 0.857083 0.211280
H31   H     H_    0.180618 0.603314 0.789616 0.105802
H32   H     H_    0.315271 0.497995 0.738375 0.170591

loop_
_geom_bond_atom_site_label_1
_geom_bond_atom_site_label_2
_ccdc_geom_bond_type
C44   H27   S    
C16   C21   A    
C34   C37   S    
Cu1   Cu2   S    
C19   C20   A    
Cu1   O1    S    
C4    C8    A    
C28   O10   S    
C18   H5    S    
Cu1   O7    S    
C38   O13   S    
C5    C6    A    
C24   H3    S    
C23   O6    A    
C28   C29   A    
C5    C11   A    
C3    C7    A    
C30   C31   A    
C12   O4    A    
C18   C19   A    
C23   C26   S    
C15   C37   A    
C8    H16   S    
C11   C15   A    
O12   H26   S    
C3    C38   A    
C8    C9    A    
C40   H14   S    
C41   H17   S    
C9    H13   S    
C7    H1    S    
C12   C36   S    
C9    C10   A    
Cu2   O2    S    
C1    C22   S    
C33   N1    A    
C21   C22   A    
C1    O2    A    
Cu2   O8    S    
C6    H15   S    
C43   H25   S    
C39   O14   S    
C27   H9    S    
C30   H11   S    
O10   C42   S    
C36   C40   A    
C17   H4    S    
C43   H24   S    
C34   O8    A    
O14   C45   S    
C12   O3    A    
O13   C44   S    
C16   C17   A    
Cu1   O5    S    
C33   H8    S    
C45   H32   S    
C35   N2    A    
C31   N2    A    
Cu2   N1    S    
C2    C4    A    
C42   H20   S    
C29   C30   A    
C31   C32   A    
C29   O11   S    
C41   H19   S    
C45   H31   S    
C17   C18   A    
C15   H10   S    
C24   C25   A    
C42   H21   S    
C14   H12   S    
C44   H28   S    
C22   C24   A    
Cu1   O3    S    
Cu2   O4    S    
C27   C32   A    
C19   H6    S    
C36   C39   A    
C16   O9    S    
Cu1   N2    S    
C43   H23   S    
C10   C13   A    
C1    O1    A    
C34   O7    A    
C35   O12   S    
C6    C7    A    
C23   O5    A    
C2    C3    A    
C25   C26   A    
C14   C37   A    
C38   C39   A    
C20   C26   A    
C45   H30   S    
C33   C35   A    
O9    C41   S    
C42   H22   S    
C25   H7    S    
C10   C11   A    
O11   C43   S    
C2    C40   A    
C4    C5    A    
C20   C21   A    
C44   H29   S    
C27   C28   A    
Cu2   O6    S    
C41   H18   S    
C32   N1    A    
C13   C14   A    
C13   H2    S    
