data_mof_unit_38609.cif
_audit_creation_date              2012-12-11T14:57:51-0500
_audit_creation_method            fapswitch 2.2
_symmetry_space_group_name_H-M    P1
_symmetry_Int_Tables_number       1
_space_group_crystal_system       triclinic
_cell_length_a                    6.944937
_cell_length_b                    16.617308
_cell_length_c                    17.159326
_cell_angle_alpha                 100.247401
_cell_angle_beta                  90.410432
_cell_angle_gamma                 90.82375
_cell_volume                      1948.40728751

loop_
_atom_site_label
_atom_site_type_symbol
_atom_type_description
_atom_site_fract_x
_atom_site_fract_y
_atom_site_fract_z
_atom_type_partial_charge
O1    O     O_R   0.506180 0.438940 0.579430 -0.522457
O2    O     O_R   0.170520 0.406230 0.413590 -0.499711
O3    O     O_R   0.005180 0.561060 0.420570 -0.524663
C1    C     C_R   0.338046 0.378959 0.388683 0.745472
O4    O     O_R   0.176140 0.429310 0.578370 -0.501300
O5    O     O_R   0.010830 0.584300 0.586530 -0.530502
C2    C     C_R   0.345229 0.413596 0.605017 0.747028
O6    O     O_R   0.500520 0.415700 0.413470 -0.544259
O7    O     O_3   0.340830 0.550820 0.502480 -0.382077
V1    V     V_3+5 0.064040 0.490570 0.499540 1.620747
O8    O     O_R   0.681400 0.593770 0.586410 -0.543373
C3    C     C_R   0.850883 0.616112 0.615319 0.755491
O9    O     O_R   0.675790 0.570690 0.421630 -0.553463
C4    C     C_R   0.844965 0.585539 0.394321 0.736461
V2    V     V_3+5 0.564650 0.509430 0.500460 1.531189
O10   O     O_3   0.837730 0.449180 0.497520 -0.324099
C5    C     C_R   0.904306 0.863354 0.167743 -0.056902
C6    C     C_R   0.860873 0.634001 0.329563 -0.113871
C7    C     C_R   0.997193 0.651946 0.202667 -0.197708
C8    C     C_R   0.958903 0.602464 0.259162 0.236935
C9    C     C_R   0.793583 0.714595 0.340119 -0.253342
C10   C     C_R   0.830084 0.764286 0.282922 0.152933
C11   C     C_R   0.936104 0.733217 0.214288 0.106701
C12   C     C_R   0.975216 0.783335 0.157625 -0.212105
C13   C     C_R   0.797218 0.893119 0.235628 -0.175720
C14   C     C_R   0.762506 0.844599 0.293001 -0.129615
H1    H     H_    0.053922 0.759214 0.104445 0.102820
H2    H     H_    0.739066 0.954194 0.243996 0.127511
H3    H     H_    0.073761 0.626520 0.149336 0.145492
H4    H     H_    0.679739 0.869616 0.344505 0.180928
H5    H     H_    0.717390 0.739072 0.393734 0.163086
H6    H     H_    0.150162 0.633802 0.963814 0.126118
C15   C     C_R   0.770332 0.907748 0.734145 -0.126894
C16   C     C_R   0.692938 0.921967 0.663088 -0.026014
C17   C     C_R   0.666534 0.857767 0.600089 0.341279
C18   C     C_R   0.725322 0.779274 0.606682 -0.190583
C19   C     C_R   0.803557 0.762502 0.678692 0.019212
C20   C     C_R   0.823838 0.828177 0.743956 0.082284
C21   C     C_R   0.860610 0.682197 0.686275 -0.153864
C22   C     C_R   0.929945 0.666855 0.761050 0.022819
C23   C     C_R   0.958070 0.734512 0.824883 0.042096
C24   C     C_R   0.901062 0.814318 0.816818 -0.135174
C25   C     C_R   0.968185 0.586454 0.776741 0.205549
C26   C     C_R   0.052337 0.576432 0.848495 -0.123624
C27   C     C_R   0.088661 0.642898 0.907919 -0.172439
C28   C     C_R   0.037571 0.720566 0.897429 -0.143659
H7    H     H_    0.788448 0.960289 0.780945 0.143961
H8    H     H_    0.651244 0.983219 0.657411 0.181178
H9    H     H_    0.706524 0.732157 0.554938 0.120880
H10   H     H_    0.060458 0.769232 0.947578 0.109165
H11   H     H_    0.587251 0.491641 0.164885 0.132851
C29   C     C_R   0.184336 0.201549 0.384134 0.207507
C30   C     C_R   0.162685 0.118405 0.387466 -0.056556
C31   C     C_R   0.236591 0.058970 0.329453 -0.154959
C32   C     C_R   0.323120 0.081226 0.264114 -0.150217
C33   C     C_R   0.344441 0.164370 0.256707 0.050701
C34   C     C_R   0.289983 0.227535 0.320869 0.013967
C35   C     C_R   0.418422 0.183540 0.185518 -0.156016
C36   C     C_R   0.461829 0.265680 0.180658 0.068914
C37   C     C_R   0.430136 0.329014 0.246968 0.077085
C38   C     C_R   0.345288 0.311010 0.317838 -0.141881
C39   C     C_R   0.536399 0.286267 0.110071 -0.141973
C40   C     C_R   0.581697 0.366962 0.104863 -0.093434
C41   C     C_R   0.553149 0.428839 0.169332 -0.042616
C42   C     C_R   0.478781 0.410531 0.239419 -0.057473
H12   H     H_    0.080789 0.098965 0.434362 0.204962
H13   H     H_    0.218948 0.994951 0.333365 0.161539
H14   H     H_    0.373633 0.032065 0.219235 0.114196
H15   H     H_    0.560775 0.240367 0.058098 0.096822
H16   H     H_    0.638715 0.381551 0.050397 0.115077
H17   H     H_    0.454754 0.461856 0.286429 0.129978
C43   C     C_R   0.405363 0.134347 0.830394 -0.160125
C44   C     C_R   0.358458 0.363433 0.668367 -0.040867
C45   C     C_R   0.468450 0.349891 0.800426 -0.110963
C46   C     C_R   0.435814 0.398049 0.742621 -0.106147
C47   C     C_R   0.308929 0.279759 0.653459 -0.119785
C48   C     C_R   0.338919 0.230134 0.711563 0.029497
C49   C     C_R   0.422634 0.265886 0.785436 0.114492
C50   C     C_R   0.457373 0.217636 0.843663 -0.270803
C51   C     C_R   0.319899 0.098619 0.757349 0.201526
C52   C     C_R   0.288254 0.145870 0.697829 0.264721
H18   H     H_    0.519242 0.245447 0.900464 0.121187
H19   H     H_    0.530403 0.378410 0.856927 0.117595
O11   O     O_R   0.265840 0.084300 0.086750 -0.535812
O12   O     O_R   0.589750 0.070740 0.921690 -0.544590
O13   O     O_R   0.755020 0.915730 0.913400 -0.540003
C53   C     C_R   0.420402 0.086659 0.895466 0.772622
O14   O     O_R   0.595830 0.093740 0.086480 -0.542255
O15   O     O_R   0.761150 0.938890 0.079360 -0.539079
C54   C     C_R   0.428145 0.117614 0.114057 0.679609
O16   O     O_R   0.259710 0.061140 0.920790 -0.519765
O17   O     O_3   0.425260 0.949200 0.997610 -0.368730
V3    V     V_3+5 0.702060 0.009430 0.000450 1.447841
O18   O     O_R   0.090530 0.929220 0.078150 -0.545566
C55   C     C_R   0.921089 0.913326 0.104564 0.686905
O19   O     O_R   0.084440 0.906220 0.913360 -0.524738
C56   C     C_R   0.914461 0.883040 0.885517 0.713450
V4    V     V_3+5 0.201450 0.990520 0.999290 1.473120
O20   O     O_3   0.928380 0.050800 0.002390 -0.366827
Br1   Br    Br    0.543386 0.877638 0.505771 -0.538522
Br2   Br    Br    0.885241 0.484372 0.713413 -0.577385
H20   H     H_    0.083500 0.515793 0.859694 0.150138
Br3   Br    Br    0.023662 0.266446 0.460133 -0.520038
Br4   Br    Br    0.246339 0.984221 0.738888 -0.525472
Br5   Br    Br    0.170000 0.094131 0.599270 -0.467164
H21   H     H_    0.472577 0.462625 0.755647 0.141524
H22   H     H_    0.252610 0.253661 0.595683 0.184972
Br6   Br    Br    0.034141 0.490323 0.235669 -0.622952

loop_
_geom_bond_atom_site_label_1
_geom_bond_atom_site_label_2
_ccdc_geom_bond_type
C32   C33   A    
C29   Br3   S    
C53   O16   A    
C6    C9    A    
H6    C27   S    
C4    C6    S    
O2    C1    A    
C7    C8    A    
C12   H1    S    
C45   H19   S    
C1    O6    A    
C32   H14   S    
O17   V4    S    
C2    C44   S    
C30   C31   A    
C26   C27   A    
C13   H2    S    
C9    H5    S    
C19   C20   A    
C51   Br4   S    
C18   C19   A    
C20   C24   A    
C43   C50   A    
O5    C3    A    
O18   V4    S    
V2    O10   S    
C33   C34   A    
C16   C17   A    
C23   C24   A    
O13   C56   A    
C31   C32   A    
O8    V2    S    
C22   C25   A    
C17   C18   A    
O19   V4    S    
C23   C28   A    
C5    C55   S    
O7    V1    S    
V3    O20   S    
C36   C37   A    
O9    C4    A    
O15   V3    S    
C44   C46   A    
O11   C54   A    
O12   C53   A    
C52   Br5   S    
C5    C12   A    
C45   C46   A    
C47   C48   A    
C24   C56   S    
C21   C22   A    
O4    C2    A    
C26   H20   S    
C49   C50   A    
C31   H13   S    
C35   C36   A    
C48   C49   A    
C1    C38   S    
C39   H15   S    
C37   C38   A    
O15   C55   A    
C7    C11   A    
C25   C26   A    
C25   Br2   S    
C39   C40   A    
O13   V3    S    
O12   V3    S    
C40   H16   S    
C48   C52   A    
C11   C12   A    
O19   C56   A    
C15   C16   A    
C30   H12   S    
C35   C54   S    
O3    C4    A    
O1    V2    S    
C22   C23   A    
O14   C54   A    
C37   C42   A    
C14   H4    S    
O6    V2    S    
O9    V2    S    
C10   C14   A    
C15   H7    S    
C44   C47   A    
C16   H8    S    
C17   Br1   S    
O2    V1    S    
C43   C53   S    
C29   C30   A    
O14   V3    S    
C36   C39   A    
O1    C2    A    
H11   C41   S    
C51   C52   A    
O5    V1    S    
C50   H18   S    
O8    C3    A    
C34   C38   A    
C47   H22   S    
C28   H10   S    
C15   C20   A    
O11   V4    S    
C41   C42   A    
C3    C21   S    
C13   C14   A    
C5    C13   A    
O4    V1    S    
C19   C21   A    
O3    V1    S    
C42   H17   S    
O17   V3    S    
C33   C35   A    
C6    C8    A    
O16   V4    S    
O7    V2    S    
O18   C55   A    
C29   C34   A    
C40   C41   A    
C27   C28   A    
C46   H21   S    
C43   C51   A    
V4    O20   S    
C45   C49   A    
C10   C11   A    
V1    O10   S    
C9    C10   A    
C18   H9    S    
C8    Br6   S    
C7    H3    S    
