data_mof_unit_47225.cif
_audit_creation_date              2012-12-10T16:38:02-0500
_audit_creation_method            fapswitch 2.2
_symmetry_space_group_name_H-M    P1
_symmetry_Int_Tables_number       1
_space_group_crystal_system       triclinic
_cell_length_a                    28.319753
_cell_length_b                    18.460569
_cell_length_c                    16.846803
_cell_angle_alpha                 89.869274
_cell_angle_beta                  61.106511
_cell_angle_gamma                 89.800114
_cell_volume                      7711.07792646

loop_
_atom_site_label
_atom_site_type_symbol
_atom_type_description
_atom_site_fract_x
_atom_site_fract_y
_atom_site_fract_z
_atom_type_partial_charge
C1    C     C_R   0.700821 0.266248 0.677098 0.889467
C2    C     C_R   0.094663 0.497537 0.517523 -0.021232
C3    C     C_R   0.190364 0.218075 0.911452 0.072551
C4    C     C_R   0.658824 0.401935 0.998649 -0.199062
C5    C     C_R   0.353290 0.623089 0.980110 -0.226809
C6    C     C_R   0.334663 0.404671 0.014974 -0.194897
C7    C     C_R   0.644835 0.624961 0.023378 -0.210020
C8    C     C_R   0.158748 0.901794 0.998807 -0.199219
C9    C     C_R   0.853305 0.123146 0.980086 -0.226807
C10   C     C_R   0.834665 0.904692 0.014972 -0.194898
C11   C     C_R   0.144887 0.124877 0.023300 -0.209986
C12   C     C_R   0.679897 0.379874 0.054477 0.207074
C13   C     C_R   0.405243 0.002366 0.482804 -0.021749
C14   C     C_R   0.334416 0.652472 0.925128 0.184844
C15   C     C_R   0.301140 0.393218 0.976248 0.198887
C16   C     C_R   0.664491 0.652049 0.078306 0.178518
C17   C     C_R   0.179768 0.879635 0.054669 0.206780
C18   C     C_R   0.834437 0.152544 0.925105 0.184838
C19   C     C_R   0.801144 0.893242 0.976239 0.198909
C20   C     C_R   0.164537 0.151956 0.078242 0.178553
C21   C     C_R   0.732233 0.192613 0.807305 -0.200563
C22   C     C_R   0.272259 0.818130 0.192883 -0.202221
C23   C     C_R   0.269955 0.186891 0.192841 -0.188615
C24   C     C_R   0.594664 0.997535 0.517519 -0.021235
C25   C     C_R   0.738644 0.810399 0.799803 -0.196580
C26   C     C_R   0.232225 0.692572 0.807285 -0.200555
C27   C     C_R   0.772306 0.318186 0.192861 -0.202268
C28   C     C_R   0.769937 0.686918 0.192850 -0.188608
C29   C     C_R   0.238645 0.310387 0.799806 -0.196578
C30   C     C_R   0.757958 0.172856 0.856343 -0.223390
C31   C     C_R   0.249716 0.844131 0.140799 -0.221626
C32   C     C_R   0.243245 0.168187 0.144877 -0.216271
C33   C     C_R   0.764192 0.832084 0.848881 -0.223399
C34   C     C_R   0.257950 0.672796 0.856318 -0.223397
C35   C     C_R   0.066228 0.383739 0.602526 0.143688
C36   C     C_R   0.749798 0.344234 0.140744 -0.221574
C37   C     C_R   0.743217 0.668229 0.144899 -0.216283
C38   C     C_R   0.264194 0.332065 0.848885 -0.223395
C39   C     C_R   0.078206 0.094198 0.930537 0.908765
C40   C     C_R   0.920338 0.909190 0.071789 0.922261
C41   C     C_R   0.920913 0.092237 0.070486 0.918576
C42   C     C_R   0.081310 0.913311 0.926710 0.927127
C43   C     C_R   0.578198 0.594212 0.930546 0.908720
C44   C     C_R   0.420340 0.409185 0.071787 0.922248
C45   C     C_R   0.420912 0.592231 0.070488 0.918595
C46   C     C_R   0.933701 0.616135 0.397767 0.144938
C47   C     C_R   0.581317 0.413332 0.926698 0.927114
C48   C     C_R   0.577526 0.110495 0.420819 0.098915
C49   C     C_R   0.422363 0.889402 0.579549 0.098886
C50   C     C_R   0.481113 0.115122 0.407135 0.095630
C51   C     C_R   0.518786 0.884765 0.593227 0.095470
C52   C     C_R   0.077529 0.610490 0.420810 0.098926
C53   C     C_R   0.922361 0.389401 0.579559 0.098886
C54   C     C_R   0.981113 0.615121 0.407136 0.095636
C55   C     C_R   0.018788 0.384761 0.593227 0.095473
C56   C     C_R   0.567859 0.166806 0.374029 -0.210641
C57   C     C_R   0.873708 0.392881 0.574955 0.125552
C58   C     C_R   0.431990 0.833143 0.626465 -0.209275
C59   C     C_R   0.520574 0.169464 0.368126 -0.208778
C60   C     C_R   0.479278 0.830476 0.632368 -0.207716
C61   C     C_R   0.067872 0.666788 0.373991 -0.210647
C62   C     C_R   0.931993 0.333132 0.626459 -0.209262
C63   C     C_R   0.020583 0.669450 0.368097 -0.208787
C64   C     C_R   0.979284 0.330462 0.632351 -0.207705
C65   C     C_R   0.490099 0.058079 0.454926 0.010992
C66   C     C_R   0.509811 0.941789 0.545395 0.010953
C67   C     C_R   0.537972 0.056242 0.462689 0.016235
C68   C     C_R   0.126195 0.607011 0.425365 0.125940
C69   C     C_R   0.461935 0.943628 0.537633 0.015979
C70   C     C_R   0.990094 0.558085 0.454942 0.010991
C71   C     C_R   0.009807 0.441793 0.545410 0.010953
C72   C     C_R   0.037969 0.556246 0.462701 0.016226
C73   C     C_R   0.961929 0.443633 0.537652 0.015975
C74   C     C_R   0.952346 0.501544 0.492063 -0.056477
C75   C     C_R   0.047555 0.498338 0.508280 -0.056442
C76   C     C_R   0.452353 0.001537 0.492041 -0.056482
C77   C     C_R   0.547560 0.998332 0.508266 -0.056446
C78   C     C_R   0.868894 0.443526 0.515287 0.053009
C79   C     C_R   0.566225 0.883742 0.602529 0.143702
C80   C     C_R   0.131005 0.556393 0.485044 0.052851
C81   C     C_R   0.106445 0.437662 0.558089 0.067926
C82   C     C_R   0.893474 0.562247 0.442225 0.068085
C83   C     C_R   0.368897 0.943524 0.515275 0.053011
C84   C     C_R   0.631003 0.056394 0.485050 0.052851
C85   C     C_R   0.606444 0.937661 0.558088 0.067936
C86   C     C_R   0.393476 0.062246 0.442216 0.068085
C87   C     C_R   0.828981 0.439243 0.486530 -0.105606
C88   C     C_R   0.170924 0.560718 0.513778 -0.106646
C89   C     C_R   0.158257 0.436106 0.553610 -0.116706
C90   C     C_R   0.433702 0.116136 0.397763 0.144941
C91   C     C_R   0.841674 0.563838 0.446665 -0.115653
C92   C     C_R   0.328982 0.939243 0.486524 -0.105613
C93   C     C_R   0.670920 0.060718 0.513786 -0.106650
C94   C     C_R   0.658255 0.936106 0.553614 -0.116703
C95   C     C_R   0.341674 0.063838 0.446661 -0.115647
C96   C     C_R   0.814990 0.500096 0.455414 -0.308948
C97   C     C_R   0.184915 0.499874 0.544917 -0.307429
C98   C     C_R   0.314990 0.000096 0.455410 -0.308946
C99   C     C_R   0.684911 0.999875 0.544926 -0.307429
C100  C     C_3   0.069338 0.332198 0.670361 -0.865518
C101  C     C_R   0.373710 0.892882 0.574946 0.125560
C102  C     C_3   0.930646 0.667593 0.329802 -0.867812
C103  C     C_3   0.824736 0.353037 0.646155 -0.828962
C104  C     C_3   0.175181 0.646811 0.354098 -0.829076
C105  C     C_3   0.569332 0.832205 0.670374 -0.865575
C106  C     C_3   0.430648 0.167598 0.329799 -0.867860
C107  C     C_3   0.324737 0.853047 0.646153 -0.828981
C108  C     C_3   0.675176 0.146809 0.354103 -0.829046
C109  C     C_3   0.651519 0.411651 0.148910 -0.959735
C110  C     C_3   0.368404 0.637955 0.824438 -0.950185
C111  C     C_3   0.287037 0.459403 0.939096 -0.961331
C112  C     C_R   0.299468 0.734737 0.322879 0.890179
C113  C     C_R   0.626191 0.107014 0.425375 0.125929
C114  C     C_3   0.631927 0.634528 0.178376 -0.939875
C115  C     C_3   0.151237 0.911111 0.149252 -0.959591
C116  C     C_3   0.868416 0.138012 0.824417 -0.950203
C117  C     C_3   0.787056 0.959427 0.939065 -0.961388
C118  C     C_3   0.131980 0.134393 0.178301 -0.939724
C119  C     C_R   0.726283 0.281411 0.948328 -0.031551
C120  C     C_R   0.282225 0.740056 0.042672 -0.026735
C121  C     C_R   0.273133 0.278492 0.056304 -0.026753
C122  C     C_R   0.716506 0.740540 0.962169 -0.021983
C123  C     C_R   0.226236 0.781301 0.948376 -0.031481
C124  C     C_R   0.782265 0.240152 0.042633 -0.026743
C125  C     C_R   0.773122 0.778526 0.056313 -0.026761
C126  C     C_R   0.216526 0.240496 0.962149 -0.021986
C127  C     C_R   0.760382 0.220147 0.920183 0.065631
C128  C     C_R   0.299932 0.264417 0.322936 0.883629
C129  C     C_R   0.248334 0.802007 0.071795 0.068885
C130  C     C_R   0.239836 0.216694 0.082669 0.066511
C131  C     C_R   0.751949 0.800581 0.932930 0.068358
C132  C     C_R   0.260355 0.720060 0.920199 0.065615
C133  C     C_R   0.748405 0.302140 0.071725 0.068969
C134  C     C_R   0.739814 0.716742 0.082691 0.066511
C135  C     C_R   0.251957 0.300549 0.932925 0.068362
C136  C     C_R   0.792190 0.203853 0.961838 0.026960
C137  C     C_R   0.218522 0.822214 0.025951 0.017299
C138  C     C_R   0.206588 0.203096 0.042569 0.029365
C139  C     C_R   0.700900 0.734403 0.677276 0.883373
C140  C     C_R   0.775599 0.824780 0.986799 0.024660
C141  C     C_R   0.292158 0.703763 0.961865 0.026955
C142  C     C_R   0.718607 0.322382 0.025850 0.017176
C143  C     C_R   0.706559 0.703158 0.042604 0.029414
C144  C     C_R   0.275604 0.324749 0.986798 0.024659
C145  C     C_R   0.662401 0.358429 0.927792 0.014035
C146  C     C_R   0.345144 0.657774 0.060435 0.026559
C147  C     C_R   0.338716 0.353722 0.073530 0.013978
C148  C     C_R   0.653111 0.660548 0.943095 0.027949
C149  C     C_R   0.162364 0.858354 0.927861 0.014169
C150  C     C_R   0.200820 0.766246 0.677097 0.889484
C151  C     C_R   0.845159 0.157819 0.060416 0.026574
C152  C     C_R   0.838711 0.853742 0.073534 0.013968
C153  C     C_R   0.153140 0.160500 0.943053 0.027932
C154  C     C_R   0.629231 0.369231 0.886477 -0.125114
C155  C     C_R   0.374531 0.639697 0.107324 -0.121276
C156  C     C_R   0.373979 0.362257 0.111171 -0.123341
C157  C     C_R   0.623876 0.643318 0.895439 -0.116303
C158  C     C_R   0.129219 0.869201 0.886504 -0.125115
C159  C     C_R   0.874536 0.139716 0.107316 -0.121290
C160  C     C_R   0.873975 0.862268 0.111174 -0.123333
C161  C     C_R   0.799469 0.234742 0.322880 0.890177
C162  C     C_R   0.123891 0.143291 0.895417 -0.116325
C163  C     C_R   0.639700 0.333660 0.808293 -0.294726
C164  C     C_R   0.361137 0.669891 0.189771 -0.305523
C165  C     C_R   0.365236 0.324436 0.187508 -0.287297
C166  C     C_R   0.637207 0.674835 0.813540 -0.305969
C167  C     C_R   0.139705 0.833662 0.808292 -0.294805
C168  C     C_R   0.861135 0.169893 0.189772 -0.305520
C169  C     C_R   0.865232 0.824443 0.187509 -0.287311
C170  C     C_R   0.137210 0.174827 0.813532 -0.305947
C171  C     C_R   0.679451 0.282214 0.773207 -0.130972
C172  C     C_R   0.799931 0.764421 0.322936 0.883630
C173  C     C_R   0.322043 0.722221 0.225681 -0.126683
C174  C     C_R   0.323748 0.275579 0.225256 -0.136615
C175  C     C_R   0.678606 0.723757 0.775418 -0.125437
C176  C     C_R   0.179448 0.782202 0.773208 -0.130934
C177  C     C_R   0.822050 0.222233 0.225678 -0.126670
C178  C     C_R   0.823743 0.775590 0.225257 -0.136611
C179  C     C_R   0.178608 0.223749 0.775414 -0.125440
C180  C     C_R   0.704104 0.258102 0.825140 0.093785
C181  C     C_R   0.299929 0.752020 0.172197 0.091170
C182  C     C_R   0.298640 0.251856 0.174253 0.096981
C183  C     C_R   0.200900 0.234403 0.677276 0.883375
C184  C     C_R   0.702512 0.751590 0.827914 0.093698
C185  C     C_R   0.204088 0.758059 0.825149 0.093743
C186  C     C_R   0.799952 0.252060 0.172183 0.091173
C187  C     C_R   0.798630 0.751877 0.174258 0.096978
C188  C     C_R   0.202519 0.251572 0.827907 0.093702
C189  C     C_R   0.696977 0.127530 0.516651 0.913219
C190  C     C_R   0.302970 0.872456 0.483510 0.911473
C191  C     C_R   0.308737 0.129393 0.464293 0.895062
C192  C     C_R   0.691242 0.870581 0.535801 0.899779
C193  C     C_R   0.196978 0.627530 0.516647 0.913218
C194  C     C_R   0.905238 0.502369 0.482821 -0.021746
C195  C     C_R   0.802970 0.372456 0.483511 0.911465
C196  C     C_R   0.808738 0.629393 0.464291 0.895073
C197  C     C_R   0.191242 0.370581 0.535801 0.899794
C198  C     C_R   0.697747 0.299418 0.900489 0.074588
C199  C     C_R   0.309034 0.716616 0.091750 0.073441
C200  C     C_R   0.303713 0.294379 0.100788 0.076393
C201  C     C_R   0.690345 0.718112 0.911475 0.072545
C202  C     C_R   0.197713 0.799341 0.900530 0.074580
C203  C     C_R   0.809059 0.216676 0.091727 0.073440
C204  C     C_R   0.803705 0.794404 0.100794 0.076392
H1    H     H_    0.984368 0.284809 0.667892 0.157588
H2    H     H_    0.219510 0.500721 0.556223 0.193481
H3    H     H_    0.280401 0.999266 0.444087 0.193471
H4    H     H_    0.719506 0.000721 0.556234 0.193480
H5    H     H_    0.617332 0.347466 0.773150 0.195918
H6    H     H_    0.380806 0.651038 0.227575 0.195800
H7    H     H_    0.388596 0.336697 0.221263 0.191421
H8    H     H_    0.616605 0.658005 0.776580 0.191963
H9    H     H_    0.117354 0.847498 0.773131 0.195924
H10   H     H_    0.880793 0.151019 0.227586 0.195800
H11   H     H_    0.888595 0.836698 0.221262 0.191416
H12   H     H_    0.015464 0.715125 0.332634 0.157824
H13   H     H_    0.116600 0.158011 0.776581 0.191961
H14   H     H_    0.636972 0.452435 0.015397 0.168592
H15   H     H_    0.375840 0.574040 0.954122 0.190516
H16   H     H_    0.353707 0.456846 0.005426 0.159991
H17   H     H_    0.622417 0.575949 0.048877 0.187130
H18   H     H_    0.136885 0.952283 0.015643 0.168723
H19   H     H_    0.875848 0.074090 0.954100 0.190516
H20   H     H_    0.853713 0.956864 0.005421 0.160004
H21   H     H_    0.122485 0.075846 0.048753 0.187051
H22   H     H_    0.732286 0.154385 0.758664 0.165159
H23   H     H_    0.903456 0.289538 0.657913 0.153324
H24   H     H_    0.270892 0.852726 0.245734 0.163928
H25   H     H_    0.270064 0.148639 0.241571 0.153856
H26   H     H_    0.747094 0.842388 0.740797 0.170980
H27   H     H_    0.232289 0.654362 0.758619 0.165173
H28   H     H_    0.770945 0.352765 0.245722 0.163902
H29   H     H_    0.770045 0.648660 0.241575 0.153867
H30   H     H_    0.247088 0.342385 0.740810 0.170969
H31   H     H_    0.774929 0.119019 0.844803 0.173595
H32   H     H_    0.236018 0.899162 0.153750 0.166730
H33   H     H_    0.225925 0.114713 0.156566 0.163747
H34   H     H_    0.096388 0.710415 0.342602 0.155086
H35   H     H_    0.794961 0.872812 0.817880 0.166165
H36   H     H_    0.274935 0.618966 0.844745 0.173586
H37   H     H_    0.736162 0.399283 0.153677 0.166717
H38   H     H_    0.725880 0.614764 0.156599 0.163732
H39   H     H_    0.294958 0.372800 0.817891 0.166162
H40   H     H_    0.075340 0.275770 0.644529 0.249164
H41   H     H_    0.101780 0.346059 0.686505 0.221021
H42   H     H_    0.031440 0.335326 0.736119 0.228333
H43   H     H_    0.898256 0.653659 0.313564 0.219609
H44   H     H_    0.924607 0.724045 0.355559 0.249183
H45   H     H_    0.484352 0.784836 0.667933 0.157599
H46   H     H_    0.968580 0.664442 0.264105 0.228658
H47   H     H_    0.786591 0.372669 0.650282 0.225911
H48   H     H_    0.829344 0.293984 0.632610 0.261626
H49   H     H_    0.820500 0.362822 0.714348 0.224551
H50   H     H_    0.170594 0.705876 0.367564 0.261623
H51   H     H_    0.213340 0.627214 0.349959 0.226062
H52   H     H_    0.179391 0.636945 0.285942 0.223930
H53   H     H_    0.575305 0.775772 0.644573 0.249136
H54   H     H_    0.601786 0.846041 0.686487 0.221053
H55   H     H_    0.531443 0.835365 0.736138 0.228342
H56   H     H_    0.515448 0.215147 0.332681 0.157825
H57   H     H_    0.398249 0.153687 0.313587 0.219639
H58   H     H_    0.424629 0.224051 0.355540 0.249162
H59   H     H_    0.468575 0.164424 0.264097 0.228676
H60   H     H_    0.286592 0.872676 0.650273 0.225911
H61   H     H_    0.329343 0.793993 0.632621 0.261620
H62   H     H_    0.320501 0.862846 0.714343 0.224549
H63   H     H_    0.670590 0.205875 0.367565 0.261614
H64   H     H_    0.713337 0.127211 0.349963 0.226060
H65   H     H_    0.679382 0.136938 0.285950 0.223935
H66   H     H_    0.609299 0.427132 0.168463 0.241079
H67   H     H_    0.403447 0.789557 0.657934 0.153331
H68   H     H_    0.647802 0.371351 0.200580 0.249631
H69   H     H_    0.672237 0.461659 0.151490 0.228072
H70   H     H_    0.411888 0.641670 0.804597 0.245740
H71   H     H_    0.360861 0.582791 0.807407 0.230309
H72   H     H_    0.361785 0.679028 0.782617 0.248263
H73   H     H_    0.320286 0.471743 0.870277 0.230944
H74   H     H_    0.248354 0.452990 0.938277 0.255467
H75   H     H_    0.281086 0.506854 0.983417 0.251683
H76   H     H_    0.588159 0.638191 0.200175 0.248550
H77   H     H_    0.640483 0.578705 0.192078 0.227981
H78   H     H_    0.596368 0.210448 0.342671 0.155087
H79   H     H_    0.638973 0.673948 0.221128 0.258347
H80   H     H_    0.108963 0.926289 0.168811 0.241230
H81   H     H_    0.147665 0.870732 0.200745 0.249632
H82   H     H_    0.171745 0.961233 0.152116 0.228008
H83   H     H_    0.911902 0.141726 0.804564 0.245741
H84   H     H_    0.860867 0.082844 0.807405 0.230321
H85   H     H_    0.861793 0.179076 0.782590 0.248266
H86   H     H_    0.820310 0.971753 0.870246 0.230952
H87   H     H_    0.748375 0.953022 0.938241 0.255471
H88   H     H_    0.781111 0.006884 0.983375 0.251675
H89   H     H_    0.780403 0.499265 0.444085 0.193467
H90   H     H_    0.088208 0.137997 0.200101 0.248532
H91   H     H_    0.140578 0.078580 0.191972 0.227854
H92   H     H_    0.138995 0.173825 0.221079 0.258307
O1    O     O_R   0.746490 0.236330 0.638080 -0.646648
O2    O     O_R   0.325830 0.813840 0.483730 -0.617432
O3    O     O_R   0.325830 0.186160 0.483730 -0.609658
O4    O     O_R   0.674170 0.813840 0.516270 -0.608615
O5    O     O_R   0.174170 0.686160 0.516270 -0.617073
O6    O     O_R   0.825830 0.313840 0.483730 -0.617438
O7    O     O_R   0.825830 0.686160 0.483730 -0.609668
O8    O     O_R   0.174170 0.313840 0.516270 -0.608632
O9    O     O_R   0.739960 0.127620 0.525000 -0.636911
O10   O     O_R   0.260040 0.872380 0.475000 -0.638219
O11   O     O_R   0.260040 0.127620 0.475000 -0.632084
O12   O     O_R   0.253510 0.763670 0.361920 -0.646552
O13   O     O_R   0.739960 0.872380 0.525000 -0.631589
O14   O     O_R   0.239960 0.627620 0.525000 -0.636918
O15   O     O_R   0.760040 0.372380 0.475000 -0.638220
O16   O     O_R   0.760040 0.627620 0.475000 -0.632078
O17   O     O_R   0.239960 0.372380 0.525000 -0.631588
O18   O     O_R   0.680700 0.294870 0.629350 -0.620120
O19   O     O_R   0.319300 0.705130 0.370650 -0.620722
O20   O     O_R   0.319300 0.294870 0.370650 -0.624109
O21   O     O_R   0.680700 0.705130 0.629350 -0.623727
O22   O     O_R   0.180700 0.794870 0.629350 -0.620126
O23   O     O_R   0.253510 0.236330 0.361920 -0.625224
O24   O     O_R   0.819300 0.205130 0.370650 -0.620725
O25   O     O_R   0.819300 0.794870 0.370650 -0.624114
O26   O     O_R   0.180700 0.205130 0.629350 -0.623737
O27   O     O_R   0.062020 0.072840 0.007170 -0.649102
O28   O     O_R   0.937980 0.927160 0.992830 -0.627116
O29   O     O_R   0.937980 0.072840 0.992830 -0.645333
O30   O     O_R   0.062020 0.927160 0.007170 -0.631355
O31   O     O_R   0.562020 0.572840 0.007170 -0.649179
O32   O     O_R   0.437980 0.427160 0.992830 -0.627119
O33   O     O_R   0.437980 0.572840 0.992830 -0.645332
O34   O     O_R   0.746490 0.763670 0.638080 -0.636164
O35   O     O_R   0.562020 0.427160 0.007170 -0.631250
O36   O     O_R   0.947860 0.073950 0.109290 -0.617870
O37   O     O_R   0.052140 0.926050 0.890710 -0.615544
O38   O     O_R   0.052140 0.073950 0.890710 -0.619830
O39   O     O_R   0.947860 0.926050 0.109290 -0.617866
O40   O     O_R   0.447860 0.573950 0.109290 -0.617891
O41   O     O_R   0.552140 0.426050 0.890710 -0.615544
O42   O     O_R   0.552140 0.573950 0.890710 -0.619835
O43   O     O_R   0.447860 0.426050 0.109290 -0.617849
O44   O     O_R   0.246490 0.736330 0.638080 -0.646654
O45   O     O_R   0.753510 0.263670 0.361920 -0.646533
O46   O     O_R   0.753510 0.736330 0.361920 -0.625233
O47   O     O_R   0.246490 0.263670 0.638080 -0.636160
O48   O     O_R   0.674170 0.186160 0.516270 -0.617074
Zn1   Zn    Zn3+2 0.792340 0.208750 0.507670 0.932442
Zn2   Zn    Zn3+2 0.494040 0.500000 0.919480 0.934108
Zn3   Zn    Zn3+2 0.005960 0.000000 0.080520 0.926599
Zn4   Zn    Zn3+2 0.994040 0.000000 0.919480 0.934113
Zn5   Zn    Zn3+2 0.207660 0.791250 0.492330 0.932584
Zn6   Zn    Zn3+2 0.207660 0.208750 0.492330 0.946223
Zn7   Zn    Zn3+2 0.792340 0.791250 0.507670 0.940432
Zn8   Zn    Zn3+2 0.292340 0.708750 0.507670 0.932440
Zn9   Zn    Zn3+2 0.707660 0.291250 0.492330 0.932590
Zn10  Zn    Zn3+2 0.707660 0.708750 0.492330 0.946241
Zn11  Zn    Zn3+2 0.292340 0.291250 0.507670 0.940444
Zn12  Zn    Zn3+2 0.505960 0.500000 0.080520 0.926619

loop_
_geom_bond_atom_site_label_1
_geom_bond_atom_site_label_2
_ccdc_geom_bond_type
C101  C107  S    
C74   C194  A    
C117  H86   S    
O16   Zn10  S    
C36   C133  A    
C20   C118  S    
C163  H5    S    
C40   O39   A    
C124  C133  A    
C161  O24   A    
O2    Zn8   S    
C36   H37   S    
C122  C143  A    
C108  H65   S    
C22   C181  A    
C52   C61   A    
C26   C185  A    
C54   C63   A    
C58   C60   A    
C62   H23   S    
C61   C63   A    
C62   C64   A    
C100  H41   S    
C166  H8    S    
C134  C143  A    
C110  H70   S    
C50   C90   A    
C164  H6    S    
C70   C74   A    
C30   H31   S    
C4    C12   A    
C34   H36   S    
C24   C85   A    
O14   Zn8   S    
C88   C97   A    
C10   H20   S    
O26   Zn6   S    
C47   O35   A    
C49   C69   A    
O40   Zn12  S    
C147  C200  A    
C57   C78   A    
C158  C167  A    
O47   Zn11  S    
C190  O2    A    
C11   C20   A    
C127  C136  A    
C23   C182  A    
C86   C90   A    
C28   C187  A    
C71   C73   A    
C179  C188  A    
C187  C204  A    
C1    C171  S    
C177  C186  A    
C51   C66   A    
C111  H75   S    
C185  C202  A    
C52   C72   A    
C118  H91   S    
C54   C70   A    
C112  O12   A    
C128  O23   A    
C22   C31   A    
O27   Zn3   S    
C164  C173  A    
C104  H51   S    
C172  O25   A    
C47   C154  S    
C117  H88   S    
C59   H56   S    
C50   C59   A    
C161  C177  S    
C130  C138  A    
C79   C85   A    
C45   O33   A    
C66   C77   A    
C30   C127  A    
C9    C151  A    
O34   Zn7   S    
O9    Zn1   S    
C56   C59   A    
C9    C18   A    
C64   H1    S    
C153  C162  A    
C8    C17   A    
C29   C188  A    
C103  H47   S    
C87   C195  S    
C80   C88   A    
C5    H15   S    
C115  H81   S    
C84   C93   A    
C48   C67   A    
O46   Zn10  S    
C180  C198  A    
C86   C95   A    
C24   C77   A    
C129  C137  A    
O7    Zn7   S    
C2    C81   A    
C17   C137  A    
C55   C71   A    
C2    C75   A    
C139  O21   A    
C78   C87   A    
O37   Zn4   S    
C105  H54   S    
C123  C132  A    
C119  C198  A    
C67   C77   A    
C121  C130  A    
O20   Zn11  S    
C174  C182  A    
C38   H39   S    
C133  C142  A    
O8    Zn6   S    
C111  H73   S    
C122  C201  A    
C118  H92   S    
C183  O47   A    
C7    H17   S    
C22   H24   S    
C32   H33   S    
C106  H58   S    
C120  C199  A    
C69   C76   A    
O44   Zn8   S    
C168  H10   S    
C108  H64   S    
C9    H19   S    
C96   H89   S    
C46   C82   A    
C29   C38   A    
C18   C136  A    
C131  C140  A    
C97   H2    S    
C149  C158  A    
O48   Zn9   S    
C100  H40   S    
C193  O14   A    
C112  O19   A    
C91   C96   A    
C1    O18   A    
C55   C64   A    
C121  C144  A    
O18   Zn9   S    
O24   Zn1   S    
C72   C75   A    
C125  C140  A    
C169  H11   S    
C124  C203  A    
C120  C129  A    
C44   C156  S    
C40   O28   A    
C43   O42   A    
C161  O45   A    
C165  C174  A    
C151  C159  A    
C107  H61   S    
C39   C162  S    
C23   H25   S    
C6    H16   S    
O41   Zn2   S    
C4    H14   S    
O43   Zn12  S    
C60   H45   S    
C167  H9    S    
C35   C100  S    
C181  C199  A    
C122  C131  A    
C8    H18   S    
C17   C115  S    
C172  C178  S    
C132  C141  A    
C14   C110  S    
C196  O16   A    
C184  C201  A    
C83   C101  A    
C88   C193  S    
C118  H90   S    
C120  C141  A    
C43   C157  S    
C16   C114  S    
O10   Zn5   S    
C197  O8    A    
C93   C189  S    
C26   H27   S    
C108  C113  S    
C89   C197  S    
C123  C137  A    
C128  C174  S    
C170  C179  A    
C145  C198  A    
C31   C129  A    
C6    C147  A    
C28   C37   A    
C4    C145  A    
O35   Zn12  S    
C186  C203  A    
C148  C157  A    
C50   C65   A    
C51   C79   A    
C100  H42   S    
C11   C153  A    
O11   Zn6   S    
C110  H71   S    
C27   H28   S    
C183  O26   A    
O22   Zn5   S    
C37   C134  A    
C175  C184  A    
C51   C60   A    
C149  C202  A    
C25   C33   A    
C119  C127  A    
C125  C134  A    
C192  O4    A    
O1    Zn1   S    
O13   Zn7   S    
C73   C74   A    
C3    C126  A    
C176  C185  A    
C125  C204  A    
O6    Zn1   S    
C21   H22   S    
O23   Zn6   S    
C166  C175  A    
C65   C76   A    
C61   H34   S    
C1    O1    A    
O3    Zn11  S    
O33   Zn2   S    
C49   C101  A    
C195  O6    A    
C168  C177  A    
O17   Zn11  S    
C116  H83   S    
C56   H78   S    
C78   C194  A    
C20   C138  A    
C43   O31   A    
C10   C152  A    
C39   O27   A    
C146  C155  A    
O30   Zn3   S    
C65   C67   A    
C160  C169  A    
C107  H60   S    
C37   H38   S    
O29   Zn4   S    
C163  C171  A    
C93   C99   A    
O39   Zn3   S    
C25   C184  A    
C170  H13   S    
C81   C89   A    
C173  C181  A    
C117  H87   S    
C42   C158  S    
C57   C103  S    
C92   C190  S    
C44   O32   A    
C45   O40   A    
C25   H26   S    
C124  C136  A    
C16   C143  A    
C182  C200  A    
C90   C106  S    
C18   C116  S    
C53   C57   A    
C58   H67   S    
C121  C200  A    
C189  O9    A    
C109  H66   S    
O32   Zn2   S    
C114  H77   S    
C191  O3    A    
C162  C170  A    
C10   C19   A    
C11   H21   S    
C44   O43   A    
C46   C54   A    
C107  H62   S    
C38   C135  A    
C147  C156  A    
C5    C14   A    
C195  O15   A    
C172  O46   A    
C178  C187  A    
C7    C16   A    
C126  C135  A    
C115  H80   S    
C98   H3    S    
C192  O13   A    
C42   O30   A    
C31   H32   S    
C105  H53   S    
C40   C160  S    
C68   C104  S    
O42   Zn2   S    
C189  O48   A    
C27   C36   A    
C21   C30   A    
C13   C83   A    
C99   H4    S    
C23   C32   A    
C8    C149  A    
C91   C196  S    
C156  C165  A    
C106  H59   S    
O28   Zn4   S    
C12   C142  A    
C29   H30   S    
C82   C194  A    
O45   Zn9   S    
C82   C91   A    
O25   Zn7   S    
C19   C117  S    
C119  C142  A    
C152  C204  A    
C145  C154  A    
C109  H69   S    
C48   C113  A    
C68   C80   A    
C150  C176  S    
C152  C160  A    
C84   C113  A    
C139  C175  S    
O21   Zn10  S    
O5    Zn5   S    
C3    C188  A    
C32   C130  A    
C35   C81   A    
C95   C98   A    
C92   C98   A    
C83   C92   A    
C46   C102  S    
C103  H48   S    
C109  H68   S    
C66   C69   A    
C115  H82   S    
C197  O17   A    
C116  H85   S    
C3    C153  A    
C191  O11   A    
C159  C168  A    
C79   C105  S    
C41   O29   A    
C146  C199  A    
C193  O5    A    
C6    C15   A    
C41   C159  S    
O4    Zn10  S    
C26   C34   A    
C21   C180  A    
C19   C140  A    
C13   C86   A    
C45   C155  S    
C52   C68   A    
C95   C191  S    
C28   H29   S    
C33   C131  A    
C112  C173  S    
C14   C141  A    
C34   C132  A    
C105  H55   S    
C41   O36   A    
C12   C109  S    
C196  O7    A    
C148  C201  A    
C179  C183  S    
C47   O41   A    
C102  H43   S    
C35   C55   A    
C111  H74   S    
C15   C111  S    
C154  C163  A    
C102  H44   S    
C42   O37   A    
C165  H7    S    
O38   Zn4   S    
C128  O20   A    
C106  H57   S    
C49   C58   A    
C89   C97   A    
C27   C186  A    
C108  H63   S    
C33   H35   S    
C85   C94   A    
C114  H79   S    
C13   C76   A    
C87   C96   A    
O15   Zn9   S    
O12   Zn5   S    
C110  H72   S    
C135  C144  A    
C63   H12   S    
C171  C180  A    
O19   Zn8   S    
C169  C178  A    
C7    C148  A    
C48   C56   A    
C126  C138  A    
C5    C146  A    
C123  C202  A    
C102  H46   S    
C53   C73   A    
C151  C203  A    
C150  O44   A    
C157  C166  A    
C190  O10   A    
C114  H76   S    
C155  C164  A    
C150  O22   A    
O31   Zn12  S    
C104  H52   S    
C24   C84   A    
C104  H50   S    
C71   C75   A    
C94   C99   A    
C103  H49   S    
C116  H84   S    
C94   C192  S    
C2    C80   A    
O36   Zn3   S    
C15   C144  A    
C39   O38   A    
C53   C62   A    
C70   C72   A    
C167  C176  A    
C139  O34   A    
