data_mof_unit_13540.cif
_audit_creation_date              2012-12-10T16:57:03-0500
_audit_creation_method            fapswitch 2.2
_symmetry_space_group_name_H-M    P1
_symmetry_Int_Tables_number       1
_space_group_crystal_system       triclinic
_cell_length_a                    7.813982
_cell_length_b                    8.603312
_cell_length_c                    16.75075
_cell_angle_alpha                 92.625901
_cell_angle_beta                  78.942375
_cell_angle_gamma                 93.577306
_cell_volume                      1102.36978915

loop_
_atom_site_label
_atom_site_type_symbol
_atom_type_description
_atom_site_fract_x
_atom_site_fract_y
_atom_site_fract_z
_atom_type_partial_charge
Br1   Br    Br    0.779821 0.549232 0.924196 -0.447610
Br2   Br    Br    0.219275 0.407781 0.074585 -0.419967
Br3   Br    Br    0.251821 0.762504 0.947767 -0.456281
Br4   Br    Br    0.695065 0.180280 0.064837 -0.478746
Br5   Br    Br    0.755131 0.025522 0.562086 -0.501114
Br6   Br    Br    0.253483 0.973583 0.431754 -0.493069
C1    C     C_R   0.545478 0.794265 0.496922 0.953276
C2    C     C_R   0.543013 0.640711 0.221992 0.061665
C3    C     C_R   0.447737 0.328984 0.855711 0.059302
C4    C     C_R   0.571632 0.643683 0.137348 0.063705
C5    C     C_R   0.393834 0.457206 0.907709 0.030072
C6    C     C_R   0.604295 0.504074 0.091146 0.035543
C7    C     C_R   0.347906 0.594451 0.876496 0.299173
C8    C     C_R   0.627802 0.366082 0.128524 0.303783
C9    C     C_R   0.376496 0.610211 0.792191 -0.007013
C10   C     C_R   0.598714 0.363549 0.213368 -0.005643
C11   C     C_2   0.419449 0.458708 0.991337 0.190357
C12   C     C_R   0.454923 0.205564 0.502244 0.952794
C13   C     C_2   0.580041 0.496262 0.007268 0.171531
C14   C     C_2   0.564494 0.956279 0.507038 -0.001365
C15   C     C_2   0.437860 0.043541 0.490457 -0.000863
C16   C     C_R   0.474437 0.502268 0.653881 0.947981
C17   C     C_R   0.525440 0.497565 0.346283 0.955311
C18   C     C_R   0.448214 0.488003 0.740752 -0.090938
C19   C     C_R   0.549510 0.499417 0.259190 -0.089732
C20   C     C_R   0.476137 0.345301 0.771808 0.059873
H1    H     H_    0.441332 0.124381 0.728824 0.208750
H2    H     H_    0.678200 0.808079 0.057218 0.270543
H3    H     H_    0.373593 0.148833 0.930922 0.262062
H4    H     H_    0.590426 0.201441 0.914164 0.259714
H5    H     H_    0.024702 0.381578 0.365628 0.193509
H6    H     H_    0.986031 0.243725 0.435329 0.241056
H7    H     H_    0.014796 0.756637 0.564122 0.239977
H8    H     H_    0.975186 0.619434 0.634178 0.190881
H9    H     H_    0.651574 0.183303 0.730783 0.251056
H10   H     H_    0.613425 0.860810 0.255227 0.213130
H11   H     H_    0.397047 0.827024 0.256313 0.247360
H12   H     H_    0.526011 0.137465 0.236520 0.230129
H13   H     H_    0.740585 0.186173 0.235313 0.238735
H14   H     H_    0.411571 0.843883 0.779937 0.224539
H15   H     H_    0.206040 0.769735 0.777266 0.245032
H16   H     H_    0.458415 0.778304 0.068718 0.255384
N1    N     N_2   0.953500 0.457650 0.478520 0.005315
N2    N     N_3   0.954846 0.646281 0.576641 -0.285113
N3    N     N_2   0.046500 0.542350 0.521480 0.005181
N4    N     N_3   0.534257 0.217467 0.717561 -0.415509
N5    N     N_3   0.507383 0.780597 0.270749 -0.427060
N6    N     N_3   0.613723 0.223111 0.254010 -0.444040
N7    N     N_3   0.338750 0.751165 0.757927 -0.444545
N8    N     N_3   0.562665 0.788226 0.099496 -0.412301
N9    N     N_3   0.481281 0.183786 0.886902 -0.431785
N10   N     N_3   0.045391 0.354351 0.423049 -0.284095
O1    O     O_R   0.388470 0.738640 0.505270 -0.601657
O2    O     O_R   0.611530 0.261360 0.494730 -0.598870
O3    O     O_R   0.679650 0.711510 0.491500 -0.582053
O4    O     O_R   0.320350 0.288490 0.508500 -0.583308
O5    O     O_R   0.337210 0.515200 0.623500 -0.623614
O6    O     O_R   0.662790 0.484800 0.376500 -0.625069
O7    O     O_R   0.628380 0.488060 0.609730 -0.589743
O8    O     O_R   0.371620 0.511940 0.390270 -0.590230
Zn1   Zn    Zn3+2 0.305580 0.518120 0.509190 1.032022
Zn2   Zn    Zn3+2 0.694420 0.481880 0.490810 1.032592

loop_
_geom_bond_atom_site_label_1
_geom_bond_atom_site_label_2
_ccdc_geom_bond_type
O6    Zn2   S    
C17   O6    A    
H4    N9    S    
O5    Zn1   S    
C10   C19   A    
C1    O3    A    
H11   N5    S    
C12   C15   S    
C3    C5    A    
H9    N4    S    
H12   N6    S    
Br3   C7    S    
C12   O4    A    
H5    N10   S    
C10   N6    S    
C16   O5    A    
C7    C9    A    
C2    N5    S    
Br5   C14   S    
N2    N3    S    
Br2   C11   S    
C2    C19   A    
N1    N3    D    
C4    C6    A    
H16   N8    S    
C6    C13   S    
N3    Zn1   S    
C9    C18   A    
C11   C13   D    
C18   C20   A    
C3    C20   A    
C12   O2    A    
C8    C10   A    
C9    N7    S    
Br4   C8    S    
C17   O8    A    
H7    N2    S    
C16   C18   S    
N1    N10   S    
Br1   C13   S    
C1    O1    A    
O1    Zn1   S    
H14   N7    S    
C4    N8    S    
O3    Zn2   S    
C5    C7    A    
C17   C19   S    
H8    N2    S    
C14   C15   D    
H1    N4    S    
H10   N5    S    
C2    C4    A    
C1    C14   S    
H3    N9    S    
H15   N7    S    
C16   O7    A    
C20   N4    S    
O4    Zn1   S    
C5    C11   S    
O7    Zn2   S    
O2    Zn2   S    
Br6   C15   S    
H2    N8    S    
H6    N10   S    
N1    Zn2   S    
C6    C8    A    
O8    Zn1   S    
H13   N6    S    
C3    N9    S    
