data_mof_unit_8073.cif
_audit_creation_date              2012-12-11T16:08:56-0500
_audit_creation_method            fapswitch 2.2
_symmetry_space_group_name_H-M    P1
_symmetry_Int_Tables_number       1
_space_group_crystal_system       triclinic
_cell_length_a                    12.950363
_cell_length_b                    13.288056
_cell_length_c                    27.714823
_cell_angle_alpha                 94.749827
_cell_angle_beta                  90.275044
_cell_angle_gamma                 119.064024
_cell_volume                      4148.8754165

loop_
_atom_site_label
_atom_site_type_symbol
_atom_type_description
_atom_site_fract_x
_atom_site_fract_y
_atom_site_fract_z
_atom_type_partial_charge
C1    C     C_R   0.627570 0.896079 0.427576 0.579377
C2    C     C_R   0.150381 0.731272 0.302048 0.044164
C3    C     C_R   0.152024 0.730930 0.200537 0.021642
C4    C     C_R   0.601565 0.222929 0.440834 0.540898
C5    C     C_R   0.148186 0.638258 0.222848 -0.157156
C6    C     C_R   0.140999 0.635713 0.272615 -0.137163
C7    C     C_R   0.154452 0.732620 0.149990 0.134173
C8    C     C_R   0.124600 0.808186 0.128181 0.015985
C9    C     C_R   0.186145 0.932694 0.358636 -0.159058
C10   C     C_R   0.160489 0.920785 0.308781 0.007294
C11   C     C_R   0.152965 0.824568 0.280061 0.032944
C12   C     C_R   0.572902 0.278644 0.222714 0.160253
C13   C     C_R   0.149608 0.006612 0.286692 -0.129263
C14   C     C_R   0.137400 0.000175 0.236239 -0.134132
C15   C     C_R   0.138643 0.909132 0.207242 -0.002259
C16   C     C_R   0.265857 0.874375 0.426338 0.546881
C17   C     C_R   0.147560 0.821432 0.229233 0.034384
C18   C     C_R   0.123587 0.900049 0.156797 -0.170454
C19   C     C_R   0.195876 0.845497 0.380157 -0.005906
C20   C     C_R   0.654544 0.957232 0.347421 -0.155046
C21   C     C_R   0.658649 0.939828 0.297945 -0.005465
C22   C     C_R   0.674912 0.908416 0.198195 0.013879
C23   C     C_R   0.562354 0.267350 0.273148 0.162761
C24   C     C_R   0.683532 0.011812 0.219092 -0.131282
C25   C     C_R   0.674664 0.027159 0.268787 -0.124828
C26   C     C_R   0.691818 0.895257 0.148996 -0.145430
C27   C     C_R   0.684131 0.792037 0.129032 0.002859
C28   C     C_R   0.627135 0.898900 0.565014 0.550731
C29   C     C_R   0.628487 0.765379 0.357794 0.112275
C30   C     C_R   0.632266 0.746087 0.307143 0.020681
C31   C     C_R   0.647333 0.834218 0.277493 0.034629
C32   C     C_R   0.621441 0.641760 0.285241 -0.132256
C33   C     C_R   0.626366 0.625475 0.235319 -0.143210
C34   C     C_R   0.664518 0.323581 0.304706 0.019391
C35   C     C_R   0.643461 0.713294 0.206464 0.002996
C36   C     C_R   0.653863 0.818116 0.227335 0.063334
C37   C     C_R   0.656013 0.700055 0.157197 -0.132996
C38   C     C_R   0.640450 0.871761 0.377086 0.041326
C39   C     C_R   0.742968 0.303066 0.651275 -0.138753
C40   C     C_R   0.603283 0.227604 0.578346 0.546090
C41   C     C_R   0.757475 0.327719 0.701714 0.012934
C42   C     C_R   0.772766 0.355549 0.803646 0.013862
C43   C     C_R   0.864464 0.352548 0.777914 -0.142399
C44   C     C_R   0.856385 0.337770 0.727230 -0.148015
C45   C     C_R   0.685035 0.348709 0.205020 0.024704
C46   C     C_R   0.780745 0.373418 0.854306 -0.136329
C47   C     C_R   0.689385 0.379737 0.879144 -0.006499
C48   C     C_R   0.560408 0.313138 0.652193 -0.134651
C49   C     C_R   0.570413 0.331645 0.702316 0.004632
C50   C     C_R   0.667608 0.335944 0.727376 0.062602
C51   C     C_R   0.480522 0.338302 0.727765 -0.120024
C52   C     C_R   0.271871 0.879456 0.563385 0.543481
C53   C     C_R   0.483684 0.343396 0.778035 -0.103396
C54   C     C_R   0.579577 0.347177 0.803304 0.014755
C55   C     C_R   0.673362 0.346052 0.778128 0.061818
C56   C     C_1   0.696568 0.370690 0.154644 -0.034419
C57   C     C_R   0.585949 0.358571 0.853503 -0.125263
C58   C     C_R   0.640819 0.289223 0.626890 -0.005432
C59   C     C_1   0.222664 0.862544 0.610112 -0.017900
C60   C     C_R   0.119424 0.738168 0.720514 -0.147597
C61   C     C_R   0.106932 0.730112 0.770191 -0.144826
C62   C     C_R   0.197355 0.939722 0.784570 0.192429
C63   C     C_R   0.210781 0.947784 0.734329 0.190295
C64   C     C_1   0.635669 0.273423 0.395784 -0.018364
C65   C     C_R   0.171772 0.846286 0.702356 0.010719
C66   C     C_R   0.146713 0.830002 0.802451 0.007750
C67   C     C_1   0.654730 0.302628 0.355250 -0.038186
C68   C     C_1   0.127166 0.816382 0.853254 -0.062332
C69   C     C_1   0.194312 0.853067 0.651524 -0.054236
C70   C     C_1   0.101957 0.798212 0.894628 -0.017185
C71   C     C_1   0.643291 0.864813 0.610947 -0.019619
C72   C     C_R   0.765859 0.896421 0.730665 0.167395
C73   C     C_R   0.766717 0.887218 0.780691 -0.064043
C74   C     C_R   0.559849 0.740790 0.773859 -0.117939
C75   C     C_R   0.557918 0.749174 0.723918 -0.132293
C76   C     C_R   0.775261 0.391959 0.286461 -0.166435
C77   C     C_R   0.660277 0.826631 0.702051 0.042702
C78   C     C_1   0.705126 0.396670 0.113602 -0.019735
C79   C     C_R   0.663988 0.810635 0.802368 0.006230
C80   C     C_1   0.669719 0.799332 0.853361 -0.059802
C81   C     C_1   0.652063 0.843607 0.651736 -0.061816
C82   C     C_1   0.684401 0.789796 0.895350 -0.013235
C83   C     C_R   0.065433 0.772539 0.079366 0.560034
C84   C     C_R   0.717372 0.441683 0.067423 0.539144
C85   C     C_R   0.720256 0.781366 0.080741 0.541443
C86   C     C_R   0.056612 0.766255 0.941296 0.545489
C87   C     C_R   0.710372 0.434301 0.928908 0.546649
C88   C     C_R   0.785238 0.405336 0.236959 -0.163516
C89   C     C_R   0.161362 0.737707 0.352801 0.137421
C90   C     C_R   0.716291 0.776199 0.942982 0.545101
C91   C     C_3   0.503185 0.592488 0.396673 -0.313639
C92   C     C_3   0.413031 0.286345 0.180639 -0.303325
C93   C     C_3   0.151177 0.080950 0.823498 -0.296639
C94   C     C_3   0.194025 0.090581 0.690281 -0.307559
C95   C     C_3   0.901542 0.095809 0.719867 -0.324091
C96   C     C_3   0.401899 0.264849 0.319842 -0.301622
C97   C     C_3   0.306259 0.691373 0.120086 -0.299620
C98   C     C_3   0.219154 0.594959 0.375313 -0.281135
Cr1   Cr    Cr6+3 0.416430 0.829200 0.492370 1.006003
Cr2   Cr    Cr6+3 0.674630 0.087020 0.504170 1.017196
Cr3   Cr    Cr6+3 0.408920 0.083740 0.503490 1.010607
Cr4   Cr    Cr6+3 0.914010 0.832750 0.013970 1.018142
Cr5   Cr    Cr6+3 0.922310 0.578600 0.003000 1.027496
Cr6   Cr    Cr6+3 0.656280 0.574630 0.003870 1.014473
H1    H     H_    0.854006 0.434752 0.310494 0.135547
H2    H     H_    0.871395 0.460357 0.223530 0.130649
H3    H     H_    0.860583 0.389294 0.874013 0.125210
H4    H     H_    0.806508 0.286906 0.631660 0.122512
H5    H     H_    0.941848 0.360756 0.796958 0.101642
H6    H     H_    0.926939 0.333346 0.708013 0.098565
H7    H     H_    0.412146 0.346142 0.797159 0.111678
H8    H     H_    0.406230 0.336267 0.708710 0.104209
H9    H     H_    0.482798 0.305539 0.633499 0.131835
H10   H     H_    0.089941 0.659906 0.696276 0.123840
H11   H     H_    0.848092 0.939520 0.802637 0.113645
H12   H     H_    0.128969 0.067317 0.219896 0.108659
H13   H     H_    0.480322 0.680128 0.790193 0.114932
H14   H     H_    0.475957 0.696523 0.702430 0.114314
H15   H     H_    0.146726 0.564873 0.202236 0.108818
H16   H     H_    0.132995 0.559929 0.287449 0.135063
H17   H     H_    0.104306 0.960470 0.140122 0.131540
H18   H     H_    0.206197 0.012786 0.379966 0.126327
H19   H     H_    0.660671 0.037739 0.363131 0.133876
H20   H     H_    0.680340 0.653305 0.382919 0.248850
H21   H     H_    0.458997 0.541807 0.361692 0.118353
H22   H     H_    0.449694 0.629362 0.413126 0.171150
H23   H     H_    0.151627 0.079175 0.308430 0.106338
H24   H     H_    0.507355 0.533275 0.421666 0.139737
H25   H     H_    0.514339 0.361990 0.872346 0.134380
H26   H     H_    0.415085 0.135786 0.194750 0.248614
H27   H     H_    0.376823 0.304144 0.214483 0.138346
H28   H     H_    0.338927 0.236001 0.153171 0.139110
H29   H     H_    0.475181 0.369371 0.166409 0.155860
H30   H     H_    0.066054 0.645422 0.783532 0.128723
H31   H     H_    0.276446 0.041273 0.848961 0.247363
H32   H     H_    0.074419 0.016901 0.842154 0.139992
H33   H     H_    0.119789 0.092765 0.788169 0.173466
H34   H     H_    0.713941 0.965513 0.126602 0.112310
H35   H     H_    0.192123 0.165262 0.846119 0.129916
H36   H     H_    0.346237 0.076445 0.700030 0.257535
H37   H     H_    0.205891 0.174493 0.707015 0.137467
H38   H     H_    0.098978 0.025116 0.690854 0.168653
H39   H     H_    0.218647 0.099768 0.651897 0.134154
H40   H     H_    0.878617 0.954355 0.673903 0.253479
H41   H     H_    0.986636 0.151943 0.703723 0.123426
H42   H     H_    0.911767 0.120866 0.759569 0.148618
H43   H     H_    0.831439 0.109911 0.703715 0.164393
H44   H     H_    0.388560 0.127648 0.271899 0.259389
H45   H     H_    0.698761 0.081197 0.197175 0.118172
H46   H     H_    0.332116 0.267258 0.297383 0.115734
H47   H     H_    0.470938 0.355302 0.331412 0.143382
H48   H     H_    0.362350 0.221516 0.352758 0.156129
H49   H     H_    0.127861 0.569385 0.123996 0.247152
H50   H     H_    0.340326 0.688532 0.156541 0.143782
H51   H     H_    0.356953 0.780488 0.108968 0.159649
H52   H     H_    0.319882 0.631948 0.093641 0.142767
H53   H     H_    0.093494 0.630164 0.408753 0.256891
H54   H     H_    0.250183 0.595880 0.412837 0.148802
H55   H     H_    0.297047 0.648829 0.354414 0.158749
H56   H     H_    0.682658 0.108154 0.284579 0.126179
H57   H     H_    0.176107 0.504033 0.358843 0.118394
H58   H     H_    0.652265 0.620773 0.141346 0.131025
H59   H     H_    0.619453 0.545044 0.219397 0.117300
H60   H     H_    0.609713 0.572142 0.306176 0.120247
N1    N     N_2   0.621597 0.683644 0.389682 -0.522014
N2    N     N_2   0.472265 0.220796 0.189535 -0.514633
N3    N     N_2   0.237619 0.042517 0.816601 -0.488895
N4    N     N_2   0.269028 0.058850 0.716742 -0.486588
N5    N     N_2   0.871627 0.975970 0.709872 -0.535835
N6    N     N_2   0.449957 0.200443 0.292691 -0.512062
N7    N     N_2   0.181603 0.656135 0.120541 -0.491775
N8    N     N_2   0.133697 0.636106 0.376263 -0.516323
O1    O     O_R   0.296680 0.802170 0.437540 -0.511559
O2    O     O_R   0.637200 0.461990 0.052510 -0.515256
O3    O     O_R   0.664790 0.681920 0.057970 -0.508913
O4    O     O_R   0.525380 0.838530 0.443500 -0.500326
O5    O     O_R   0.815840 0.852920 0.961840 -0.510769
O6    O     O_R   0.012100 0.822630 0.963670 -0.496526
O7    O     O_R   0.037010 0.668460 0.953040 -0.510481
O8    O     O_R   0.813390 0.478970 0.949660 -0.501970
O9    O     O_R   0.632250 0.456930 0.945520 -0.519945
O10   O     O_R   0.660200 0.677230 0.958780 -0.494680
O11   O     O_3   0.830870 0.661990 0.006950 -0.246067
O12   O     O_R   0.662610 0.183990 0.557860 -0.501090
O13   O     O_R   0.702130 0.995190 0.446810 -0.522806
O14   O     O_R   0.661770 0.181390 0.458760 -0.501494
O15   O     O_R   0.499820 0.198480 0.455280 -0.510816
O16   O     O_R   0.311660 0.976250 0.449080 -0.502552
O17   O     O_R   0.297580 0.804960 0.544440 -0.512952
O18   O     O_R   0.526220 0.841130 0.542590 -0.494201
O19   O     O_R   0.703030 0.997990 0.553710 -0.511122
O20   O     O_R   0.500730 0.201280 0.562180 -0.523101
O21   O     O_R   0.312500 0.978850 0.548170 -0.498006
O22   O     O_3   0.499990 0.999990 0.500010 -0.242585
O23   O     O_R   0.820790 0.857990 0.068830 -0.511356
O24   O     O_R   0.016700 0.827330 0.062850 -0.511498
O25   O     O_R   0.041970 0.673520 0.060040 -0.478971
O26   O     O_R   0.817980 0.483660 0.048840 -0.496354

loop_
_geom_bond_atom_site_label_1
_geom_bond_atom_site_label_2
_ccdc_geom_bond_type
C16   O1    A    
H36   N4    S    
C15   C18   A    
C66   C68   S    
C63   C65   A    
C1    O4    A    
C51   H8    S    
C91   H22   S    
C7    N7    S    
C8    C83   S    
Cr6   O10   S    
C92   H29   S    
C95   H41   S    
Cr3   O20   S    
Cr4   O23   S    
C7    C8    A    
C39   C41   A    
C53   C54   A    
Cr3   O22   S    
C21   C31   A    
Cr1   O22   S    
C26   C27   A    
C29   C30   A    
C5    H15   S    
Cr5   O11   S    
Cr4   O11   S    
C4    O15   A    
C57   H25   S    
C35   C37   A    
C3    C7    A    
H53   N8    S    
C12   N2    S    
C30   C31   A    
C14   H12   S    
C29   N1    S    
C96   H48   S    
C86   O6    A    
C56   C78   T    
Cr5   O8    S    
Cr5   O25   S    
C97   H52   S    
C4    O14   A    
C83   O24   A    
C27   C85   S    
C20   H19   S    
C85   O3    A    
C87   O8    A    
C46   C47   A    
C97   N7    S    
C60   H10   S    
C61   C66   A    
C9    C19   A    
Cr1   O4    S    
C90   O10   A    
C45   C56   S    
C49   C51   A    
Cr1   O1    S    
C29   C38   A    
H44   N6    S    
C83   O25   A    
Cr3   O16   S    
C9    C10   A    
C76   C88   A    
C98   N8    S    
C93   H32   S    
C62   N3    S    
C90   O5    A    
C96   N6    S    
C13   C14   A    
C2    C6    A    
C95   H42   S    
C84   O2    A    
C2    C11   A    
C6    H16   S    
Cr3   O21   S    
C61   H30   S    
Cr6   O3    S    
C39   H4    S    
C40   C58   S    
C74   C75   A    
C62   C66   A    
C13   H23   S    
C94   H38   S    
C64   C67   T    
C98   H54   S    
C45   C88   A    
C95   H43   S    
C24   C25   A    
C80   C82   T    
C16   O16   A    
C94   N4    S    
Cr1   O17   S    
C85   O23   A    
C12   C23   A    
C26   H34   S    
C39   C58   A    
H40   N5    S    
C8    C18   A    
C79   C80   S    
Cr4   O24   S    
C60   C61   A    
C51   C53   A    
Cr5   O26   S    
C47   C87   S    
C2    C89   A    
Cr2   O14   S    
C43   C44   A    
C72   C77   A    
C19   C89   A    
C52   C59   S    
C78   C84   S    
C42   C55   A    
C47   C57   A    
C88   H2    S    
H26   N2    S    
C40   O20   A    
C77   C81   S    
C23   C34   A    
C96   H46   S    
C46   H3    S    
H49   N7    S    
C25   H56   S    
C9    H18   S    
C73   C79   A    
C97   H50   S    
C98   H55   S    
C95   N5    S    
C1    C38   S    
C59   C69   T    
C48   C49   A    
C60   C65   A    
C1    O13   A    
C74   C79   A    
C42   C46   A    
Cr4   O6    S    
C41   C44   A    
C22   C24   A    
C28   C71   S    
C42   C43   A    
C94   H39   S    
Cr6   O9    S    
C70   C86   S    
C28   O19   A    
C41   C50   A    
C98   H57   S    
C93   H35   S    
C15   C17   A    
C74   H13   S    
C21   C25   A    
C54   C55   A    
C11   C17   A    
C91   H21   S    
C92   H28   S    
C31   C36   A    
C94   H37   S    
C91   N1    S    
C75   H14   S    
C52   O21   A    
C89   N8    S    
C72   C73   A    
C3    C5    A    
C10   C13   A    
C28   O18   A    
C34   C67   S    
C87   O9    A    
Cr1   O18   S    
Cr6   O2    S    
C63   N4    S    
C33   H59   S    
C48   C58   A    
C92   H27   S    
C12   C45   A    
Cr2   O22   S    
C22   C36   A    
C4    C64   S    
C50   C55   A    
C82   C90   S    
C84   O26   A    
C32   C33   A    
Cr2   O13   S    
C91   H24   S    
C24   H45   S    
C73   H11   S    
C72   N5    S    
C30   C32   A    
C96   H47   S    
C53   H7    S    
C5    C6    A    
C23   N6    S    
C27   C37   A    
C16   C19   S    
C65   C69   S    
C32   H60   S    
C86   O7    A    
C33   C35   A    
C3    C17   A    
C20   C38   A    
Cr5   O7    S    
C52   O17   A    
C97   H51   S    
Cr2   O12   S    
C93   H33   S    
C10   C11   A    
C18   H17   S    
H20   N1    S    
Cr2   O19   S    
C92   N2    S    
Cr6   O11   S    
C20   C21   A    
C93   N3    S    
C68   C70   T    
C49   C50   A    
C22   C26   A    
C75   C77   A    
Cr4   O5    S    
H31   N3    S    
C14   C15   A    
C37   H58   S    
C35   C36   A    
C43   H5    S    
C40   O12   A    
C62   C63   A    
Cr3   O15   S    
C76   H1    S    
C34   C76   A    
C48   H9    S    
C71   C81   T    
C54   C57   A    
C44   H6    S    
