data_mof_unit_41009.cif
_audit_creation_date              2013-03-05T16:36:15-0500
_audit_creation_method            fapswitch 2.2
_symmetry_space_group_name_H-M    P1
_symmetry_Int_Tables_number       1
_space_group_crystal_system       triclinic
_cell_length_a                    27.839436
_cell_length_b                    9.117378
_cell_length_c                    7.773654
_cell_angle_alpha                 89.993204
_cell_angle_beta                  90.0
_cell_angle_gamma                 90.000024
_cell_volume                      1973.12953257

loop_
_atom_site_label
_atom_site_type_symbol
_atom_site_description
_atom_site_fract_x
_atom_site_fract_y
_atom_site_fract_z
_atom_type_partial_charge
O1    O     O_R   0.500000 0.288390 0.642760 -0.580391
O2    O     O_R   0.500000 0.711610 0.357240 -0.580391
O3    O     O_R   0.500000 0.711610 0.642760 -0.579784
O4    O     O_R   0.500000 0.288390 0.357240 -0.579784
C1    C     C_R   0.500000 0.219938 0.500006 0.827906
C2    C     C_R   0.500000 0.780062 0.499994 0.827906
O5    O     O_R   0.430260 0.500000 0.642770 -0.529291
O6    O     O_R   0.569740 0.500000 0.357230 -0.529052
O7    O     O_R   0.569740 0.500000 0.642770 -0.529052
O8    O     O_R   0.430260 0.500000 0.357230 -0.529290
C3    C     C_R   0.407067 0.500000 0.500000 0.877060
C4    C     C_R   0.592941 0.500000 0.500000 0.875866
Cu1   Cu    Cu3+1 0.500000 0.500000 0.669080 1.119896
Cu2   Cu    Cu3+1 0.500000 0.500000 0.330920 1.119896
C5    C     C_R   0.177381 0.371576 0.470090 0.625398
C6    C     C_R   0.822600 0.628360 0.469671 0.625675
C7    C     C_R   0.177381 0.628424 0.529909 0.625398
C8    C     C_R   0.822600 0.371640 0.530328 0.625675
O9    O     O_2   0.202529 0.247173 0.443085 -0.401861
O10   O     O_2   0.797433 0.752621 0.441976 -0.401737
O11   O     O_2   0.202529 0.752826 0.556914 -0.401861
O12   O     O_2   0.797433 0.247380 0.558024 -0.401737
N1    N     N_R   0.201356 0.500000 0.500000 -0.465345
N2    N     N_R   0.798643 0.500000 0.500000 -0.465693
C9    C     C_R   0.278057 0.521642 0.653581 -0.155000
C10   C     C_R   0.721980 0.517662 0.345665 -0.155700
C11   C     C_R   0.278057 0.478357 0.346418 -0.155000
C12   C     C_R   0.721980 0.482338 0.654335 -0.155700
C13   C     C_R   0.328145 0.521742 0.654361 0.565801
C14   C     C_R   0.671891 0.517704 0.344864 0.566007
C15   C     C_R   0.328145 0.478257 0.345639 0.565801
C16   C     C_R   0.671892 0.482296 0.655136 0.566007
C17   C     C_R   0.252891 0.500000 0.500000 0.130436
C18   C     C_R   0.747127 0.500000 0.500000 0.131466
C19   C     C_R   0.101466 0.500000 0.499999 -0.213130
C20   C     C_R   0.898514 0.500000 0.499999 -0.213092
C21   C     C_R   0.126861 0.368533 0.470239 -0.148705
C22   C     C_R   0.873119 0.631448 0.470010 -0.148868
C23   C     C_R   0.126861 0.631467 0.529759 -0.148706
C24   C     C_R   0.873119 0.368552 0.529989 -0.148868
C25   C     C_R   0.101107 0.238335 0.440871 0.719558
C26   C     C_R   0.898872 0.761645 0.440595 0.719438
C27   C     C_R   0.101108 0.761664 0.559127 0.719559
C28   C     C_R   0.898872 0.238354 0.559403 0.719438
C29   C     C_R   0.353918 0.500000 0.500000 -0.334021
C30   C     C_R   0.646105 0.500000 0.500000 -0.335420
H1    H     H_    0.258650 0.461736 0.227243 0.192912
H2    H     H_    0.741402 0.468840 0.774070 0.192183
H3    H     H_    0.258650 0.538264 0.772756 0.192912
H4    H     H_    0.741402 0.531160 0.225930 0.192183
C31   C     C_R   0.974712 0.365597 0.510290 0.007986
C32   C     C_R   0.025267 0.634407 0.510165 0.007977
C33   C     C_R   0.974712 0.634403 0.489708 0.007985
C34   C     C_R   0.025267 0.365593 0.489833 0.007977
C35   C     C_R   0.949419 0.500000 0.499999 0.075027
C36   C     C_R   0.050561 0.500000 0.499999 0.074985
C37   C     C_R   0.948697 0.236253 0.544679 -0.282369
C38   C     C_R   0.051282 0.763760 0.544453 -0.282431
C39   C     C_R   0.948697 0.763747 0.455319 -0.282369
C40   C     C_R   0.051282 0.236240 0.455545 -0.282431
H5    H     H_    0.966508 0.133047 0.568992 0.163745
H6    H     H_    0.033471 0.866966 0.568736 0.163718
H7    H     H_    0.966508 0.866953 0.431006 0.163744
H8    H     H_    0.033470 0.133034 0.431261 0.163718
C41   C     C_1   0.499999 0.065312 0.500008 -0.122597
C42   C     C_1   0.499999 0.934688 0.499991 -0.122597
N3    N     N_1   0.500000 0.500000 0.076820 0.007751
N4    N     N_1   0.500000 0.500000 0.923180 0.007751
F1    F     F_    0.351087 0.455541 0.193876 -0.574095
F2    F     F_    0.648971 0.463848 0.807791 -0.571738
F3    F     F_    0.351087 0.544458 0.806124 -0.574095
F4    F     F_    0.648971 0.536152 0.192209 -0.571738
F5    F     F_    0.123741 0.112495 0.395304 -0.555633
F6    F     F_    0.876237 0.887508 0.395067 -0.555770
F7    F     F_    0.123741 0.887505 0.604694 -0.555633
F8    F     F_    0.876237 0.112492 0.604931 -0.555770

loop_
_geom_bond_atom_site_label_1
_geom_bond_atom_site_label_2
_geom_bond_distance
_ccdc_geom_bond_type
C38   H6    1.080265 S    
O3    C2    1.273196 A    
C33   C39   1.409479 A    
C34   C40   1.409453 A    
C11   C17   1.398291 A    
O5    C3    1.283996 A    
C7    N1    1.367689 A    
C2    C42   1.409779 S    
O1    C1    1.273242 A    
C19   C21   1.410729 A    
C22   C26   1.405470 A    
C10   H4    1.083433 S    
C9    C13   1.394438 A    
C7    C23   1.406717 A    
C28   F8    1.356126 S    
O7    Cu1   1.952262 S    
C5    C21   1.406717 A    
C20   C24   1.410823 A    
C8    C24   1.406699 A    
C27   C38   1.391927 A    
C5    O9    1.349341 S    
C10   C18   1.398348 A    
N1    C17   1.434714 S    
Cu2   N3    1.975285 S    
C31   C37   1.409477 A    
O3    Cu1   1.940123 S    
C6    O10   1.349340 S    
C5    N1    1.367688 A    
C12   C18   1.398348 A    
C6    N2    1.367473 A    
Cu1   Cu2   2.628740 S    
O4    Cu2   1.940124 S    
O2    C2    1.273242 A    
C33   C35   1.415571 A    
C27   F7    1.356097 S    
C34   C36   1.415564 A    
C26   F6    1.356126 S    
C11   C15   1.394438 A    
N3    N4    1.194345 T    
C12   C16   1.394447 A    
C4    C30   1.480072 S    
O8    Cu2   1.952265 S    
C16   F2    1.357808 S    
N2    C18   1.434176 S    
C13   C29   1.412110 A    
C19   C23   1.410729 A    
C15   F1    1.357457 S    
C24   C28   1.405469 A    
C28   C37   1.391938 A    
O6    C4    1.284111 A    
C32   C38   1.409454 A    
C1    C41   1.409779 S    
C10   C14   1.394444 A    
C8    N2    1.367472 A    
C3    C29   1.479638 S    
O1    Cu1   1.940172 S    
C32   C33   1.416356 A    
C11   H1    1.083129 S    
C12   H2    1.083432 S    
O6    Cu2   1.952262 S    
C19   C36   1.417175 A    
C8    O12   1.349339 S    
C16   C30   1.412700 A    
C14   C30   1.412700 A    
C25   C40   1.391927 A    
O4    C1    1.273196 A    
C26   C39   1.391935 A    
C14   F4    1.357808 S    
C37   H5    1.080268 S    
C39   H7    1.080269 S    
C40   H8    1.080265 S    
C31   C34   1.416359 A    
C20   C22   1.410824 A    
C20   C35   1.417144 A    
C31   C35   1.415570 A    
C21   C25   1.405468 A    
O2    Cu2   1.940171 S    
O7    C4    1.284110 A    
C9    H3    1.083129 S    
O8    C3    1.283997 A    
C25   F5    1.356098 S    
O5    Cu1   1.952265 S    
C23   C27   1.405468 A    
C41   C42   1.190955 T    
C15   C29   1.412110 A    
C9    C17   1.398292 A    
C32   C36   1.415564 A    
C6    C22   1.406696 A    
C13   F3    1.357457 S    
Cu1   N4    1.975285 S    
C7    O11   1.349341 S    
