data_mof_unit_68200.cif
_audit_creation_date              2013-03-05T16:03:15-0500
_audit_creation_method            fapswitch 2.2
_symmetry_space_group_name_H-M    P1
_symmetry_Int_Tables_number       1
_space_group_crystal_system       triclinic
_cell_length_a                    6.995302
_cell_length_b                    14.278417
_cell_length_c                    16.322574
_cell_angle_alpha                 90.7882
_cell_angle_beta                  90.291737
_cell_angle_gamma                 89.86342
_cell_volume                      1630.14894748

loop_
_atom_site_label
_atom_site_type_symbol
_atom_site_description
_atom_site_fract_x
_atom_site_fract_y
_atom_site_fract_z
_atom_type_partial_charge
O1    O     O_R   0.361630 0.167340 0.164570 -0.569574
O2    O     O_R   0.638370 0.832660 0.835430 -0.569622
O3    O     O_R   0.690860 0.157560 0.338690 -0.562840
O4    O     O_R   0.309140 0.842440 0.661310 -0.562843
O5    O     O_R   0.861260 0.336420 0.339380 -0.579074
O6    O     O_R   0.138740 0.663580 0.660620 -0.579089
C1    C     C_R   0.522558 0.133498 0.366689 1.032247
C2    C     C_R   0.477442 0.866502 0.633310 1.032236
O7    O     O_R   0.691330 0.156310 0.165190 -0.525527
O8    O     O_R   0.308670 0.843690 0.834810 -0.525498
O9    O     O_R   0.861730 0.335160 0.164640 -0.557830
O10   O     O_R   0.138270 0.664840 0.835360 -0.557781
C3    C     C_R   0.522206 0.136181 0.135049 0.949481
C4    C     C_R   0.477800 0.863821 0.864950 0.949516
O11   O     O_R   0.361150 0.168600 0.339320 -0.611869
O12   O     O_R   0.638850 0.831400 0.660680 -0.611867
O13   O     O_3   0.527950 0.310560 0.252000 -0.265538
O14   O     O_3   0.472050 0.689440 0.748000 -0.265535
V1    V     V_3+5 0.802770 0.240990 0.251980 1.350300
V2    V     V_3+5 0.197230 0.759010 0.748020 1.350320
O15   O     O_R   0.191450 0.346190 0.165260 -0.564310
O16   O     O_R   0.808550 0.653810 0.834740 -0.564327
C5    C     C_R   0.021914 0.368784 0.137023 1.036491
C6    C     C_R   0.978083 0.631214 0.862975 1.036472
O17   O     O_R   0.190980 0.347440 0.338770 -0.589088
O18   O     O_R   0.809020 0.652560 0.661230 -0.589071
C7    C     C_R   0.023001 0.366314 0.369903 1.078790
C8    C     C_R   0.976998 0.633687 0.630096 1.078781
V3    V     V_3+5 0.302780 0.262760 0.251980 1.305969
V4    V     V_3+5 0.697220 0.737240 0.748020 1.305962
O19   O     O_3   0.027730 0.193200 0.251960 -0.251974
O20   O     O_3   0.972270 0.806800 0.748040 -0.251980
C9    C     C_3   0.829286 0.491433 0.463214 -0.088048
C10   C     C_3   0.170713 0.508571 0.536781 -0.088020
C11   C     C_3   0.870497 0.470748 0.554247 -0.030338
C12   C     C_3   0.129502 0.529256 0.445748 -0.030330
H1    H     H_    0.758382 0.445358 0.596217 0.209390
H2    H     H_    0.241613 0.554643 0.403775 0.209388
C13   C     C_3   0.987237 0.562136 0.561011 -0.157675
C14   C     C_3   0.012761 0.437868 0.438985 -0.157691
C15   C     C_3   0.945904 0.583427 0.470585 -0.090028
C16   C     C_3   0.054095 0.416577 0.529410 -0.090024
H3    H     H_    0.900669 0.652248 0.446165 0.205996
H4    H     H_    0.099330 0.347757 0.553831 0.205999
C17   C     C_R   0.945808 0.697495 0.035172 0.140896
C18   C     C_R   0.054159 0.302499 0.964821 0.140927
C19   C     C_R   0.922550 0.729605 0.116444 0.185778
C20   C     C_R   0.077343 0.270386 0.883545 0.185810
C21   C     C_R   0.905963 0.664959 0.177284 -0.212052
C22   C     C_R   0.093850 0.335029 0.822699 -0.212063
C23   C     C_R   0.935481 0.570556 0.162198 0.340712
C24   C     C_R   0.064375 0.429433 0.837790 0.340685
C25   C     C_R   0.970634 0.533763 0.081847 -0.005632
C26   C     C_R   0.029297 0.466230 0.918146 -0.005630
C27   C     C_R   0.967215 0.598684 0.015631 -0.024294
C28   C     C_R   0.032745 0.401309 0.984363 -0.024350
C29   C     C_R   0.008756 0.435724 0.066814 -0.184754
C30   C     C_R   0.991223 0.564271 0.933182 -0.184717
C31   C     C_3   0.334709 0.999392 0.455667 -0.330494
C32   C     C_3   0.665290 0.000607 0.544331 -0.330504
C33   C     C_3   0.468669 0.914336 0.471614 0.301171
C34   C     C_3   0.531329 0.085663 0.528384 0.301162
C35   C     C_3   0.486256 0.939057 0.563899 -0.418910
C36   C     C_3   0.513744 0.060942 0.436100 -0.418906
C37   C     C_3   0.356124 0.025306 0.547949 0.315434
C38   C     C_3   0.643875 0.974693 0.452049 0.315439
C39   C     C_R   0.520533 0.192736 0.962978 -0.153684
C40   C     C_R   0.479605 0.807268 0.037019 -0.153764
C41   C     C_R   0.547407 0.222504 0.882332 0.289907
C42   C     C_R   0.452624 0.777499 0.117659 0.290009
C43   C     C_R   0.559799 0.155182 0.819581 -0.064506
C44   C     C_R   0.440158 0.844822 0.180407 -0.064428
C45   C     C_R   0.538314 0.060435 0.836396 -0.064689
C46   C     C_R   0.461661 0.939569 0.163596 -0.064660
C47   C     C_R   0.514409 0.029388 0.917566 0.082559
C48   C     C_R   0.485624 0.970615 0.082429 0.082535
C49   C     C_R   0.516455 0.096519 0.982731 0.166204
C50   C     C_R   0.483630 0.903484 0.017265 0.166137
C51   C     C_R   0.490842 0.933086 0.934287 -0.151728
C52   C     C_R   0.509195 0.066917 0.065710 -0.151673
H5    H     H_    0.506608 0.245493 0.010838 0.161270
H6    H     H_    0.493601 0.754512 0.989163 0.161278
H7    H     H_    0.542747 0.011884 0.784941 0.101840
H8    H     H_    0.457178 0.988120 0.215049 0.101838
N1    N     N_R   0.195456 0.057828 0.597205 0.257976
O21   O     O_R   0.145771 0.013524 0.662697 -0.352726
O22   O     O_R   0.094714 0.129129 0.573268 -0.343566
N2    N     N_R   0.804542 0.942171 0.402793 0.257979
O23   O     O_R   0.854223 0.986472 0.337300 -0.352718
O24   O     O_R   0.905281 0.870868 0.426729 -0.343569
H9    H     H_    0.418086 0.824160 0.243129 0.205796
H10   H     H_    0.581799 0.175844 0.756855 0.205815
N3    N     N_R   0.561776 0.320713 0.864332 0.224313
O25   O     O_R   0.578904 0.348334 0.789078 -0.330275
O26   O     O_R   0.555600 0.383533 0.922819 -0.400458
N4    N     N_R   0.438197 0.679291 0.135652 0.224318
O27   O     O_R   0.420815 0.651672 0.210897 -0.330311
O28   O     O_R   0.444517 0.616471 0.077171 -0.400445
H11   H     H_    0.686516 0.484200 0.433807 0.176057
H12   H     H_    0.313482 0.515804 0.566190 0.176049
H13   H     H_    0.111814 0.311227 0.759819 0.232890
H14   H     H_    0.887937 0.688758 0.240161 0.232888
N5    N     N_R   0.974152 0.767210 0.975474 0.236273
O29   O     O_R   0.148124 0.785359 0.956642 -0.406037
O30   O     O_R   0.848181 0.832513 0.965297 -0.382132
N6    N     N_R   0.025971 0.232781 0.024529 0.236267
O31   O     O_R   0.852045 0.214565 0.043388 -0.405975
O32   O     O_R   0.152031 0.167513 0.034668 -0.382240
N7    N     N_R   0.928556 0.827817 0.139580 0.252221
O33   O     O_R   0.859582 0.855101 0.209792 -0.349645
O34   O     O_R   0.033253 0.886822 0.099757 -0.313204
N8    N     N_R   0.071390 0.172171 0.860416 0.252221
O35   O     O_R   0.140333 0.144891 0.790198 -0.349622
O36   O     O_R   0.966783 0.113148 0.900265 -0.313179
N9    N     N_R   0.953947 0.516839 0.233464 0.188989
O37   O     O_R   0.805634 0.510266 0.280674 -0.409741
O38   O     O_R   0.124363 0.511549 0.264914 -0.421521
N10   N     N_R   0.045900 0.483153 0.766527 0.188971
O39   O     O_R   0.194200 0.489712 0.719308 -0.409775
O40   O     O_R   0.875475 0.488458 0.735087 -0.421481
N11   N     N_R   0.430817 0.820121 0.439993 0.242316
O41   O     O_R   0.277382 0.776303 0.462367 -0.386637
O42   O     O_R   0.551680 0.778196 0.391544 -0.361680
N12   N     N_R   0.569182 0.179879 0.560004 0.242310
O43   O     O_R   0.722625 0.223694 0.537634 -0.386637
O44   O     O_R   0.448303 0.221812 0.608441 -0.361671
H15   H     H_    0.198855 0.997199 0.420512 0.240746
H16   H     H_    0.801144 0.002800 0.579487 0.240752

loop_
_geom_bond_atom_site_label_1
_geom_bond_atom_site_label_2
_geom_bond_distance
_ccdc_geom_bond_type
C35   C37   1.553736 S    
N3    O25   1.301453 A    
O13   V3    1.718130 S    
C42   N4    1.440509 S    
C39   C49   1.415856 A    
O4    C2    1.313292 A    
V1    O19   1.713745 S    
C34   N12   1.458568 S    
C19   C21   1.370607 A    
N1    O21   1.298901 A    
O9    V1    2.017870 S    
C31   C36   1.568411 S    
C46   C48   1.413717 A    
C32   C35   1.568411 S    
C32   C34   1.556156 S    
C11   H1    1.108826 S    
C48   C50   1.422036 A    
O3    C1    1.313292 A    
N7    O34   1.300603 A    
C38   N2    1.456593 S    
N6    O31   1.284602 A    
C31   H15   1.107927 S    
N9    O37   1.299848 A    
C28   C29   1.436851 A    
C33   N11   1.458568 S    
C17   C19   1.407689 A    
C41   C43   1.397870 A    
C11   C16   1.550498 S    
O7    C3    1.310009 A    
N10   O39   1.299848 A    
C34   C36   1.546747 S    
C17   N5    1.417484 S    
O13   V1    2.161815 S    
O5    C7    1.304320 A    
C33   C38   1.537335 S    
O7    V1    2.005642 S    
O6    C8    1.304323 A    
C43   H10   1.081267 S    
O8    V2    2.005643 S    
C10   C16   1.550836 S    
C21   C23   1.382101 A    
N4    O28   1.301699 A    
C10   H12   1.110301 S    
O3    V1    2.024150 S    
O14   V4    1.718131 S    
C10   C12   1.544502 S    
N1    O22   1.300179 A    
C3    C52   1.495282 S    
C32   C38   1.552692 S    
C2    O12   1.313001 A    
C40   C50   1.415837 A    
C15   H3    1.110237 S    
C12   C15   1.550503 S    
C16   H4    1.110236 S    
V2    O20   1.713744 S    
N8    O36   1.300630 A    
N8    O35   1.300155 A    
C24   C26   1.428400 A    
O11   V3    2.012672 S    
C18   C20   1.407692 A    
C25   C27   1.433595 A    
O17   V3    2.009990 S    
C26   C28   1.433603 A    
C31   C33   1.556154 S    
C9    C14   1.542986 S    
C10   C13   1.542990 S    
C12   C14   1.543357 S    
C44   C46   1.392732 A    
O8    C4    1.310043 A    
C21   H14   1.084528 S    
C43   C45   1.392731 A    
C44   H9    1.081274 S    
C25   C29   1.442327 A    
C50   C51   1.425553 A    
C1    O11   1.312999 A    
C8    C13   1.513019 S    
N9    O38   1.297987 A    
C19   N7    1.447900 S    
O15   V3    2.014931 S    
C23   N9    1.407354 S    
C23   C25   1.428399 A    
C36   C38   1.553733 S    
C11   C13   1.543358 S    
C22   C24   1.382090 A    
C32   H16   1.107926 S    
C7    C14   1.513012 S    
N4    O27   1.301468 A    
O10   V2    2.017870 S    
C33   C35   1.546748 S    
N5    O30   1.293209 A    
C4    C51   1.495283 S    
C37   N1    1.456593 S    
C20   C22   1.370595 A    
C47   C49   1.422045 A    
C17   C27   1.449757 A    
N11   O41   1.300127 A    
C40   C42   1.402538 A    
C20   N8    1.447899 S    
N2    O24   1.300179 A    
C39   H5    1.082322 S    
O15   C5    1.311371 A    
O16   C6    1.311347 A    
O1    C3    1.299661 A    
C45   C47   1.413719 A    
O12   V4    2.012671 S    
N12   O44   1.299978 A    
C26   C30   1.442314 A    
C49   C52   1.425571 A    
C39   C41   1.402531 A    
C5    C29   1.504652 S    
O16   V4    2.014931 S    
C34   C37   1.537335 S    
O18   C8    1.308606 A    
C48   C52   1.415718 A    
C46   H8    1.082156 S    
C14   C16   1.536916 S    
O18   V4    2.009992 S    
O5    V1    2.000614 S    
O17   C7    1.308604 A    
O6    V2    2.000616 S    
O10   C6    1.304990 A    
C41   N3    1.440508 S    
O2    V4    2.002795 S    
C40   H6    1.082325 S    
C12   H2    1.108828 S    
C9    C15   1.550836 S    
V3    O19   2.167384 S    
N7    O33   1.300157 A    
C31   C37   1.552692 S    
V4    O20   2.167383 S    
O1    V3    2.002798 S    
N3    O26   1.301708 A    
N6    O32   1.293193 A    
C18   N6    1.417470 S    
O9    C5    1.304973 A    
C9    C11   1.544501 S    
O14   V2    2.161816 S    
O2    C4    1.299627 A    
N10   O40   1.297992 A    
C1    C36   1.547241 S    
N11   O42   1.299963 A    
C2    C35   1.547244 S    
O4    V2    2.024155 S    
N2    O23   1.298899 A    
C13   C15   1.536921 S    
C22   H13   1.084532 S    
C6    C30   1.504643 S    
C27   C30   1.436833 A    
C18   C28   1.449765 A    
N5    O29   1.284599 A    
C42   C44   1.397868 A    
C9    H11   1.110300 S    
C47   C51   1.415727 A    
C45   H7    1.082158 S    
N12   O43   1.300122 A    
C24   N10   1.407342 S    
