data_mof_unit_51806.cif
_audit_creation_date              2013-03-05T15:49:14-0500
_audit_creation_method            fapswitch 2.2
_symmetry_space_group_name_H-M    P1
_symmetry_Int_Tables_number       1
_space_group_crystal_system       triclinic
_cell_length_a                    15.822589
_cell_length_b                    13.084251
_cell_length_c                    11.795478
_cell_angle_alpha                 101.034411
_cell_angle_beta                  92.97931
_cell_angle_gamma                 94.417484
_cell_volume                      2384.15236175

loop_
_atom_site_label
_atom_site_type_symbol
_atom_site_description
_atom_site_fract_x
_atom_site_fract_y
_atom_site_fract_z
_atom_type_partial_charge
O1    O     O_R   0.504400 0.354460 0.582000 -0.531546
O2    O     O_R   0.495600 0.645540 0.418000 -0.553552
O3    O     O_R   0.493920 0.341410 0.386200 -0.531675
O4    O     O_R   0.506080 0.658590 0.613800 -0.518116
C1    C     C_R   0.500874 0.299031 0.477151 0.837316
C2    C     C_R   0.496000 0.700895 0.523097 0.895835
O5    O     O_R   0.384320 0.506520 0.597880 -0.627847
O6    O     O_R   0.615680 0.493480 0.402120 -0.557687
O7    O     O_R   0.373840 0.493460 0.402080 -0.520995
O8    O     O_R   0.626160 0.506540 0.597920 -0.550933
C3    C     C_R   0.340074 0.499493 0.500798 0.792664
C4    C     C_R   0.659801 0.497133 0.499066 0.823483
Cu1   Cu    Cu3+1 0.506200 0.507730 0.615930 1.025910
Cu2   Cu    Cu3+1 0.493800 0.492270 0.384070 1.043043
C5    C     C_3   0.970808 0.419057 0.572503 0.251186
C6    C     C_3   0.027804 0.545253 0.432334 0.249311
C7    C     C_3   0.022587 0.385140 0.466389 0.258367
C8    C     C_3   0.976513 0.579177 0.538497 0.251116
C9    C     C_1   0.250489 0.495558 0.503113 -0.127683
C10   C     C_1   0.748662 0.487887 0.497228 -0.164946
C11   C     C_3   0.030584 0.519880 0.612210 0.247722
C12   C     C_3   0.968439 0.444324 0.392513 0.240262
C13   C     C_3   0.083235 0.486175 0.506048 -0.139392
C14   C     C_3   0.915364 0.478318 0.498484 -0.132500
C15   C     C_1   0.174946 0.491323 0.505547 0.152858
C16   C     C_1   0.823710 0.481151 0.496938 0.122022
C17   C     C_R   0.488009 0.815265 0.539477 -0.290709
C18   C     C_R   0.498372 0.184425 0.463112 -0.308974
C19   C     C_R   0.433487 0.014966 0.365371 0.416420
C20   C     C_R   0.518550 0.990841 0.656852 0.428346
C21   C     C_R   0.460254 0.117985 0.362485 0.151136
C22   C     C_R   0.505806 0.882651 0.649141 0.165299
C23   C     C_R   0.525012 0.140937 0.558276 0.397211
C24   C     C_R   0.462430 0.858750 0.443508 0.389743
C25   C     C_R   0.504874 0.033718 0.556934 -0.234918
C26   C     C_R   0.465483 0.968626 0.455214 -0.220696
N1    N     N_R   0.515540 0.519350 0.790140 -0.268856
N2    N     N_R   0.484460 0.480650 0.209860 -0.264999
C27   C     C_R   0.397833 0.435944 0.028044 0.154855
C28   C     C_R   0.584974 0.600319 0.978312 0.160061
C29   C     C_R   0.412333 0.431175 0.145558 0.390643
C30   C     C_R   0.576152 0.590134 0.856778 0.389941
C31   C     C_R   0.545666 0.529482 0.154222 0.554373
C32   C     C_R   0.460588 0.458465 0.843472 0.592031
C33   C     C_R   0.532303 0.535612 0.033864 -0.276725
C34   C     C_R   0.462717 0.476381 0.967540 -0.199677
O9    O     O_3   0.054842 0.287357 0.429681 -0.579981
C35   C     C_3   0.987709 0.207049 0.405161 0.086505
H1    H     H_    0.936386 0.225017 0.345897 0.176759
H2    H     H_    0.959623 0.193526 0.485740 0.180027
C36   C     C_3   0.022422 0.106059 0.347675 -0.819740
H3    H     H_    0.072478 0.084488 0.406113 0.246537
H4    H     H_    0.970464 0.041903 0.328553 0.211673
H5    H     H_    0.050050 0.116031 0.265404 0.256660
O10   O     O_3   0.945379 0.677566 0.575789 -0.572956
C37   C     C_3   0.013363 0.756828 0.599437 0.079102
H6    H     H_    0.039868 0.771115 0.518178 0.182282
H7    H     H_    0.065546 0.737227 0.656239 0.175420
C38   C     C_3   0.980665 0.857962 0.660177 -0.789112
H8    H     H_    0.954528 0.847222 0.743109 0.259500
H9    H     H_    0.033389 0.921185 0.678590 0.199499
H10   H     H_    0.929951 0.881323 0.604157 0.257868
O11   O     O_3   0.934127 0.353427 0.642301 -0.598786
C39   C     C_3   0.998417 0.314505 0.705624 0.081482
H11   H     H_    0.027878 0.376319 0.777456 0.194129
H12   H     H_    0.049348 0.283656 0.650590 0.175497
C40   C     C_3   0.959121 0.225992 0.758039 -0.833205
H13   H     H_    0.929500 0.161816 0.688499 0.248288
H14   H     H_    0.008978 0.194947 0.808409 0.219135
H15   H     H_    0.909826 0.255020 0.816750 0.256914
O12   O     O_3   0.064549 0.611102 0.362772 -0.572126
C41   C     C_3   0.000270 0.649155 0.298619 0.087572
H16   H     H_    0.948213 0.678218 0.352616 0.175625
H17   H     H_    0.972583 0.587289 0.225686 0.176231
C42   C     C_3   0.038974 0.739112 0.248081 -0.822350
H18   H     H_    0.090020 0.712070 0.191449 0.266760
H19   H     H_    0.989328 0.768730 0.195953 0.213915
H20   H     H_    0.066189 0.803769 0.318765 0.243274
O13   O     O_3   0.931172 0.404772 0.279689 -0.609113
C43   C     C_3   0.994675 0.375631 0.202632 0.110894
H21   H     H_    0.017735 0.300241 0.214547 0.193484
H22   H     H_    0.050182 0.435129 0.214116 0.198183
C44   C     C_3   0.957218 0.361527 0.078596 -0.845276
H23   H     H_    0.934877 0.436094 0.062180 0.240408
H24   H     H_    0.006420 0.337316 0.017586 0.229484
H25   H     H_    0.902879 0.300429 0.062786 0.258389
O14   O     O_3   0.069638 0.557550 0.724503 -0.577334
C45   C     C_3   0.007560 0.588320 0.803145 0.092078
H26   H     H_    0.951518 0.529693 0.793112 0.178219
H27   H     H_    0.985158 0.664133 0.791528 0.187426
C46   C     C_3   0.046652 0.602106 0.926337 -0.783748
H28   H     H_    0.100766 0.663499 0.941226 0.263713
H29   H     H_    0.998211 0.625771 0.988746 0.201256
H30   H     H_    0.069766 0.527532 0.941553 0.268180
O15   O     O_3   0.426277 0.793229 0.343112 -0.543831
C47   C     C_3   0.481817 0.789677 0.252173 0.178561
H31   H     H_    0.532854 0.738483 0.263616 0.189782
H32   H     H_    0.513475 0.867326 0.246755 0.167078
C48   C     C_3   0.430717 0.745878 0.137717 -0.641001
H33   H     H_    0.378282 0.794761 0.124701 0.277226
H34   H     H_    0.471866 0.745132 0.064479 0.234181
H35   H     H_    0.402859 0.665353 0.137246 0.230295
O16   O     O_3   0.570146 0.203926 0.653354 -0.515356
C49   C     C_3   0.656647 0.214876 0.630015 0.143600
H36   H     H_    0.665258 0.248210 0.550795 0.105543
H37   H     H_    0.684070 0.137963 0.619078 0.152232
C50   C     C_3   0.705345 0.289240 0.731379 -0.745883
H38   H     H_    0.701826 0.256062 0.811081 0.242724
H39   H     H_    0.772956 0.301345 0.712508 0.236226
H40   H     H_    0.677901 0.365944 0.745982 0.258512
Br1   Br    Br    0.503316 0.835573 0.794402 -0.423210
Br2   Br    Br    0.454239 0.154600 0.212516 -0.472120
O17   O     O_3   0.377325 0.959216 0.277581 -0.531833
C51   C     C_3   0.293917 0.979187 0.306915 0.131002
H41   H     H_    0.284015 0.063294 0.311418 0.167894
H42   H     H_    0.280494 0.957354 0.391549 0.130187
C52   C     C_3   0.230750 0.914363 0.214329 -0.758413
H43   H     H_    0.235611 0.829763 0.212284 0.258396
H44   H     H_    0.165181 0.933298 0.233833 0.196386
H45   H     H_    0.243976 0.931884 0.128094 0.262026
O18   O     O_3   0.547226 0.053338 0.762563 -0.520545
C53   C     C_3   0.477725 0.098239 0.817328 0.150870
H46   H     H_    0.435778 0.037913 0.847049 0.162603
H47   H     H_    0.439326 0.136454 0.758798 0.165426
C54   C     C_3   0.510947 0.181309 0.922010 -0.620603
H48   H     H_    0.551150 0.244293 0.894447 0.253148
H49   H     H_    0.456772 0.216110 0.966470 0.224424
H50   H     H_    0.549377 0.145929 0.983306 0.261897
O19   O     O_3   0.431716 0.357700 0.785026 -0.571152
C55   C     C_3   0.350763 0.350925 0.725731 0.187533
H51   H     H_    0.357917 0.337855 0.631582 0.161936
H52   H     H_    0.315942 0.421729 0.749902 0.172644
C56   C     C_3   0.296968 0.253553 0.742669 -0.812283
H53   H     H_    0.307391 0.239646 0.832016 0.289883
H54   H     H_    0.228600 0.262742 0.725055 0.226428
H55   H     H_    0.313628 0.183630 0.681318 0.198552
O20   O     O_3   0.621820 0.569511 0.214775 -0.535023
C57   C     C_3   0.685519 0.502498 0.177337 0.135955
H56   H     H_    0.685639 0.480618 0.081310 0.127078
H57   H     H_    0.676502 0.429114 0.211459 0.154666
C58   C     C_3   0.772571 0.557344 0.221650 -0.747377
H58   H     H_    0.774833 0.587307 0.316253 0.254509
H59   H     H_    0.821266 0.501612 0.201740 0.235979
H60   H     H_    0.787851 0.623966 0.178497 0.263814
Br3   Br    Br    0.658481 0.671777 0.787743 -0.366119
Br4   Br    Br    0.327683 0.345852 0.206166 -0.395344
Br5   Br    Br    0.280530 0.433880 0.973490 -0.541600
Br6   Br    Br    0.658143 0.717407 0.066511 -0.474872

loop_
_geom_bond_atom_site_label_1
_geom_bond_atom_site_label_2
_geom_bond_distance
_ccdc_geom_bond_type
O10   C37   1.413035 S    
C11   O14   1.413258 S    
C22   Br1   1.929804 S    
C8    C11   1.540479 S    
O15   C47   1.417834 S    
O14   C45   1.414229 S    
C58   H59   1.104696 S    
C49   H37   1.114023 S    
C51   H41   1.115100 S    
C27   C29   1.407176 A    
C33   C34   1.404228 A    
O5    C3    1.294740 A    
C19   C26   1.408710 A    
C3    C9    1.416305 S    
C7    C13   1.551924 S    
C20   C25   1.412760 A    
C44   H23   1.110258 S    
O1    C1    1.304558 A    
C14   C16   1.452778 S    
C12   O13   1.412213 S    
O17   C51   1.412682 S    
C52   H44   1.110527 S    
C46   H29   1.110496 S    
C47   C48   1.524410 S    
O4    Cu1   1.978997 S    
C37   H6    1.108069 S    
N1    C30   1.378953 A    
C35   C36   1.521527 S    
C29   Br4   1.930300 S    
C2    C17   1.487838 S    
C47   H32   1.112207 S    
C54   H50   1.110213 S    
O6    Cu2   1.927657 S    
C21   Br2   1.918776 S    
C45   C46   1.521742 S    
C31   O20   1.380761 S    
Cu1   N1    2.028030 S    
C35   H2    1.108309 S    
C38   H8    1.110607 S    
Cu1   Cu2   2.699154 S    
C56   H54   1.110888 S    
C50   H39   1.109603 S    
O2    C2    1.310027 A    
C6    O12   1.413023 S    
C41   C42   1.520287 S    
C9    C15   1.194394 T    
C49   H36   1.114474 S    
C32   C34   1.435298 A    
C17   C24   1.415398 A    
C28   C33   1.414628 A    
C38   H9    1.110631 S    
C28   Br6   1.939369 S    
C40   H13   1.110550 S    
C39   C40   1.520924 S    
C24   O15   1.389229 S    
N2    C29   1.380222 A    
O4    C2    1.303483 A    
C52   H45   1.111302 S    
C46   H28   1.110699 S    
O7    Cu2   1.921787 S    
C43   H21   1.108645 S    
C32   O19   1.395997 S    
O11   C39   1.413671 S    
C57   C58   1.521403 S    
C36   H3    1.110965 S    
C40   H14   1.110555 S    
C25   C26   1.415195 A    
C39   H12   1.112619 S    
C55   H52   1.112174 S    
C42   H18   1.110581 S    
Cu2   N2    2.028030 S    
C1    C18   1.474008 S    
C31   C33   1.442777 A    
O9    C35   1.412751 S    
C20   O18   1.386744 S    
C5    C11   1.542533 S    
O6    C4    1.299325 A    
C47   H31   1.107067 S    
C4    C10   1.421383 S    
C44   H25   1.110621 S    
C42   H19   1.110507 S    
O18   C53   1.414152 S    
O3    Cu2   1.979000 S    
O8    C4    1.295286 A    
C8    O10   1.413108 S    
C56   H55   1.110740 S    
C41   H17   1.107633 S    
C35   H1    1.112071 S    
C48   H34   1.107473 S    
C45   H27   1.108850 S    
C18   C23   1.411995 A    
C6    C13   1.550874 S    
O7    C3    1.297510 A    
C54   H48   1.110320 S    
C50   H40   1.110940 S    
C8    C14   1.554935 S    
C58   H60   1.107954 S    
C55   C56   1.528285 S    
O1    Cu1   1.966086 S    
C50   H38   1.110553 S    
C53   H47   1.109550 S    
C43   C44   1.521680 S    
O19   C55   1.415402 S    
C5    C7    1.544275 S    
C19   O17   1.381817 S    
C5    C14   1.554812 S    
C38   H10   1.110821 S    
C6    C12   1.540279 S    
C44   H24   1.110515 S    
C17   C22   1.420290 A    
C23   O16   1.385359 S    
C18   C21   1.406477 A    
C7    O9    1.412921 S    
C41   H16   1.113007 S    
O3    C1    1.302051 A    
O8    Cu1   1.921791 S    
C51   H42   1.115871 S    
C37   C38   1.520877 S    
C57   H57   1.112239 S    
O20   C57   1.419103 S    
C7    C12   1.541418 S    
C48   H33   1.107737 S    
C40   H15   1.110545 S    
C39   H11   1.108089 S    
C36   H5    1.110687 S    
C53   C54   1.520896 S    
C11   C13   1.552481 S    
C55   H51   1.103938 S    
N2    C31   1.381329 A    
C19   C21   1.388715 A    
C58   H58   1.107434 S    
C46   H30   1.110515 S    
C20   C22   1.399164 A    
C56   H53   1.109479 S    
C10   C16   1.197609 T    
N1    C32   1.388650 A    
C28   C30   1.412616 A    
C23   C25   1.411366 A    
C43   H22   1.112522 S    
C37   H7    1.112345 S    
C27   C34   1.407218 A    
C12   C14   1.555435 S    
C13   C15   1.447854 S    
O2    Cu2   1.966083 S    
C42   H20   1.110326 S    
C51   C52   1.520652 S    
C57   H56   1.114047 S    
O13   C43   1.415058 S    
O5    Cu1   1.927653 S    
C48   H35   1.109224 S    
O12   C41   1.413209 S    
C45   H26   1.112786 S    
C24   C26   1.414508 A    
C6    C8    1.540175 S    
C27   Br5   1.929036 S    
O16   C49   1.411950 S    
C54   H49   1.110209 S    
C5    O11   1.412662 S    
C36   H4    1.110562 S    
C53   H46   1.111691 S    
C52   H43   1.111251 S    
C30   Br3   1.931332 S    
C49   C50   1.520993 S    
