data_mof_unit_20667.cif
_audit_creation_date              2012-12-10T16:51:31-0500
_audit_creation_method            fapswitch 2.2
_symmetry_space_group_name_H-M    P1
_symmetry_Int_Tables_number       1
_space_group_crystal_system       triclinic
_cell_length_a                    7.828886
_cell_length_b                    8.563653
_cell_length_c                    12.088059
_cell_angle_alpha                 91.756911
_cell_angle_beta                  100.985512
_cell_angle_gamma                 94.175264
_cell_volume                      792.646664059

loop_
_atom_site_label
_atom_site_type_symbol
_atom_type_description
_atom_site_fract_x
_atom_site_fract_y
_atom_site_fract_z
_atom_type_partial_charge
C1    C     C_R   0.043878 0.794606 0.495568 0.959618
C2    C     C_R   0.157644 0.506798 0.832966 -0.095872
C3    C     C_2   0.065207 0.958016 0.490121 -0.319082
C4    C     C_R   0.105798 0.504218 0.710624 0.942340
C5    C     C_2   0.929497 0.041066 0.498865 -0.346952
C6    C     C_R   0.954028 0.205107 0.500020 1.016866
C7    C     C_R   0.893255 0.491011 0.289600 0.844978
C8    C     C_R   0.813243 0.298996 0.002913 -0.154740
C9    C     C_R   0.833782 0.466520 0.169334 -0.063685
C10   C     C_R   0.075316 0.605342 0.897505 -0.167183
C11   C     C_R   0.151480 0.646099 0.008727 -0.118096
C12   C     C_R   0.401184 0.499669 0.988723 0.035562
C13   C     C_R   0.315417 0.598265 0.053444 -0.166552
C14   C     C_R   0.308675 0.436636 0.883429 -0.014557
C15   C     C_R   0.573969 0.459011 0.025615 0.077373
C16   C     C_R   0.644155 0.343817 0.963991 0.085392
C17   C     C_R   0.540186 0.266353 0.869467 -0.267727
C18   C     C_R   0.371379 0.307285 0.831817 0.368617
C19   C     C_R   0.678143 0.527402 0.123663 -0.242858
C20   C     C_R   0.906760 0.357745 0.107203 -0.184036
Cl1   Cl    Cl    0.232850 0.171868 0.737504 -0.668958
H1    H     H_    0.029336 0.310839 0.142256 0.155998
H2    H     H_    0.087371 0.721418 0.058753 0.141259
H3    H     H_    0.192613 0.009668 0.481026 0.187347
H4    H     H_    0.801937 0.989434 0.507644 0.172040
H5    H     H_    0.470183 0.375413 0.416666 0.188168
H6    H     H_    0.529815 0.624526 0.583378 0.193839
H7    H     H_    0.587197 0.168737 0.827903 0.184231
H8    H     H_    0.867758 0.211018 0.956624 0.154340
H9    H     H_    0.636126 0.620832 0.171316 0.141611
H10   H     H_    0.956329 0.656663 0.860514 0.159811
H11   H     H_    0.369176 0.637397 0.139415 0.132356
N1    N     N_2   0.434800 0.456690 0.470850 -0.165751
N2    N     N_2   0.565200 0.543310 0.529150 -0.167853
O1    O     O_R   0.893060 0.738880 0.507150 -0.615192
O2    O     O_R   0.172250 0.711130 0.488470 -0.628422
O3    O     O_R   0.944700 0.520730 0.667600 -0.615857
O4    O     O_R   0.223890 0.492980 0.648920 -0.589865
O5    O     O_R   0.827750 0.288870 0.511530 -0.625876
O6    O     O_R   0.106940 0.261120 0.492850 -0.583630
O7    O     O_R   0.776110 0.507020 0.351080 -0.623467
O8    O     O_R   0.055300 0.479270 0.332400 -0.628088
Zn1   Zn    Zn3+2 0.813580 0.518530 0.512470 0.950433
Zn2   Zn    Zn3+2 0.186420 0.481470 0.487530 0.962123

loop_
_geom_bond_atom_site_label_1
_geom_bond_atom_site_label_2
_ccdc_geom_bond_type
O3    Zn1   S    
C2    C4    S    
O4    Zn2   S    
C18   Cl1   S    
O1    Zn1   S    
C14   C18   A    
C13   H11   S    
C12   C15   A    
C17   H7    S    
N1    N2    D    
C8    C16   A    
C4    O3    A    
C15   C19   A    
O7    Zn1   S    
C3    H3    S    
C8    C20   A    
O8    Zn2   S    
C5    H4    S    
C8    H8    S    
C11   H2    S    
C12   C14   A    
C17   C18   A    
C7    O7    A    
H6    N2    S    
C5    C6    S    
C2    C14   A    
N1    Zn2   S    
C6    O6    A    
O2    Zn2   S    
C11   C13   A    
C10   C11   A    
C20   H1    S    
C15   C16   A    
C2    C10   A    
O6    Zn2   S    
C12   C13   A    
C1    O1    A    
C7    O8    A    
C7    C9    S    
C6    O5    A    
O5    Zn1   S    
C9    C20   A    
C1    C3    S    
C1    O2    A    
C19   H9    S    
C10   H10   S    
C9    C19   A    
N2    Zn1   S    
H5    N1    S    
C4    O4    A    
C16   C17   A    
C3    C5    D    
