data_mof_unit_45369.cif
_audit_creation_date              2012-12-10T17:12:44-0500
_audit_creation_method            fapswitch 2.2
_symmetry_space_group_name_H-M    P1
_symmetry_Int_Tables_number       1
_space_group_crystal_system       triclinic
_cell_length_a                    23.280852
_cell_length_b                    10.681175
_cell_length_c                    10.02098
_cell_angle_alpha                 92.340457
_cell_angle_beta                  90.902231
_cell_angle_gamma                 91.524976
_cell_volume                      2488.57153825

loop_
_atom_site_label
_atom_site_type_symbol
_atom_type_description
_atom_site_fract_x
_atom_site_fract_y
_atom_site_fract_z
_atom_type_partial_charge
C1    C     C_R   0.501765 0.262177 0.496734 0.807589
C2    C     C_R   0.124930 0.592426 0.563092 0.598272
C3    C     C_R   0.232356 0.522109 0.404600 0.529331
C4    C     C_R   0.389090 0.495284 0.499345 0.918673
C5    C     C_R   0.292796 0.529604 0.399458 -0.424492
C6    C     C_R   0.326396 0.478186 0.499834 -0.223522
C7    C     C_R   0.299727 0.413688 0.603906 0.371350
C8    C     C_R   0.239847 0.410181 0.612094 0.106833
C9    C     C_R   0.206740 0.466515 0.514333 0.115239
C10   C     C_R   0.765676 0.497017 0.407935 0.530099
C11   C     C_R   0.705964 0.485926 0.400325 -0.369598
C12   C     C_R   0.957619 0.284408 0.573644 0.406860
C13   C     C_R   0.672825 0.529301 0.507175 -0.160481
C14   C     C_R   0.699774 0.591199 0.620022 0.206387
C15   C     C_R   0.759465 0.596162 0.629691 -0.268693
C16   C     C_R   0.496628 0.737087 0.502889 0.897235
C17   C     C_R   0.792339 0.546476 0.526282 0.159658
C18   C     C_2   0.464539 0.927083 0.409838 -0.119725
C19   C     C_2   0.485258 0.867019 0.512997 -0.301590
C20   C     C_2   0.460050 0.062820 0.424524 0.123192
C21   C     C_2   0.504873 0.127905 0.484138 0.251766
C22   C     C_2   0.538761 0.559202 0.927986 -0.246596
C23   C     C_R   0.015780 0.271010 0.544018 0.380471
C24   C     C_2   0.543440 0.542624 0.077333 0.566688
C25   C     C_R   0.610611 0.508107 0.501614 0.897352
C26   C     C_R   0.886745 0.640838 0.569043 0.525247
C27   C     C_R   0.874478 0.418312 0.552210 0.590187
C28   C     C_R   0.933598 0.403610 0.568721 -0.215677
C29   C     C_R   0.969898 0.510949 0.578112 -0.121851
C30   C     C_R   0.946207 0.630454 0.592316 -0.071263
C31   C     C_3   0.910110 0.193656 0.745989 0.167267
C32   C     C_3   0.962395 0.192960 0.841728 -0.433464
C33   C     C_3   0.944448 0.187307 0.987210 -0.959959
C34   C     C_R   0.052664 0.378670 0.545931 -0.179688
C35   C     C_3   0.646752 0.770620 0.694534 -0.775556
C36   C     C_3   0.357232 0.046829 0.357944 -0.825854
C37   C     C_3   0.590312 0.111116 0.610299 0.033779
C38   C     C_3   0.643472 0.185517 0.567737 -0.298891
C39   C     C_3   0.677150 0.243038 0.687981 -0.908739
C40   C     C_3   0.603637 0.709494 0.137194 0.046579
C41   C     C_3   0.643505 0.755999 0.252445 -0.284150
C42   C     C_3   0.654790 0.897286 0.250636 -0.928443
C43   C     C_3   0.020067 0.110381 0.389869 0.126263
C44   C     C_3   0.044828 0.981756 0.358462 -0.238289
C45   C     C_R   0.029768 0.498429 0.572784 -0.145850
C46   C     C_3   0.026866 0.932190 0.218541 -1.024699
C47   C     C_3   0.429565 0.636252 0.115825 0.201949
C48   C     C_3   0.374391 0.658110 0.037090 -0.489236
C49   C     C_3   0.382711 0.645522 0.886559 -0.681507
C50   C     C_3   0.100237 0.834013 0.780830 0.138538
C51   C     C_3   0.093359 0.965534 0.844327 -0.353888
C52   C     C_3   0.137153 0.995571 0.956674 -0.968202
C53   C     C_3   0.936900 0.840848 0.812762 -0.750088
C54   C     C_3   0.214053 0.586837 0.185419 0.077310
C55   C     C_3   0.230450 0.722292 0.154683 -0.316114
C56   C     C_R   0.066182 0.606142 0.587133 -0.141711
C57   C     C_3   0.230737 0.741070 0.004841 -1.010339
C58   C     C_3   0.346923 0.242979 0.672960 0.088538
C59   C     C_3   0.365481 0.179456 0.799911 -0.310021
C60   C     C_3   0.383265 0.044991 0.769818 -0.976336
C61   C     C_3   0.205097 0.434128 0.837173 -0.784715
C62   C     C_3   0.809273 0.539331 0.213709 0.061186
C63   C     C_3   0.847907 0.485442 0.105022 -0.294811
C64   C     C_3   0.861154 0.580939 0.999904 -1.006012
C65   C     C_R   0.042594 0.723362 0.624877 0.393392
C66   C     C_R   0.982482 0.734955 0.628398 0.139438
C67   C     C_R   0.111815 0.370973 0.523716 0.611302
H1    H     H_    0.685738 0.440097 0.312570 0.210977
H2    H     H_    0.988661 0.111457 0.815014 0.241455
H3    H     H_    0.989390 0.279282 0.831330 0.217286
H4    H     H_    0.918895 0.270135 0.015439 0.267938
H5    H     H_    0.983331 0.187522 0.052837 0.266273
H6    H     H_    0.918449 0.100841 0.003349 0.266716
H7    H     H_    0.687017 0.647605 0.817242 0.214714
H8    H     H_    0.683571 0.837542 0.683152 0.241670
H9    H     H_    0.619693 0.805925 0.777427 0.213140
H10   H     H_    0.620212 0.765853 0.601367 0.242159
H11   H     H_    0.415358 0.190316 0.311841 0.254433
H12   H     H_    0.780531 0.636695 0.719059 0.162734
H13   H     H_    0.320315 0.108622 0.342396 0.249443
H14   H     H_    0.348190 0.989879 0.445918 0.260666
H15   H     H_    0.361605 0.984584 0.267345 0.236992
H16   H     H_    0.605025 0.026663 0.660482 0.159527
H17   H     H_    0.565606 0.164091 0.686919 0.151024
H18   H     H_    0.671809 0.122373 0.509393 0.233680
H19   H     H_    0.630192 0.260784 0.501966 0.216901
H20   H     H_    0.650259 0.310175 0.744988 0.271393
H21   H     H_    0.715900 0.294263 0.653269 0.288082
H22   H     H_    0.691060 0.168508 0.754545 0.256225
H23   H     H_    0.451801 0.878428 0.316279 0.133550
H24   H     H_    0.562840 0.761737 0.145610 0.123817
H25   H     H_    0.624585 0.731183 0.041582 0.126244
H26   H     H_    0.623463 0.734146 0.348777 0.231577
H27   H     H_    0.685062 0.707610 0.245376 0.211223
H28   H     H_    0.675478 0.922359 0.155867 0.256821
H29   H     H_    0.683910 0.927482 0.335407 0.272634
H30   H     H_    0.613880 0.947756 0.261117 0.290503
H31   H     H_    0.036703 0.176826 0.315579 0.128182
H32   H     H_    0.972378 0.101789 0.379472 0.170210
H33   H     H_    0.092507 0.988341 0.366191 0.259381
H34   H     H_    0.493127 0.915028 0.609647 0.152311
H35   H     H_    0.028899 0.914765 0.431863 0.250680
H36   H     H_    0.040602 0.999355 0.142938 0.275407
H37   H     H_    0.979455 0.917954 0.211470 0.276902
H38   H     H_    0.047283 0.841021 0.196542 0.278983
H39   H     H_    0.462572 0.706663 0.086298 0.075235
H40   H     H_    0.420221 0.654623 0.222370 0.151508
H41   H     H_    0.340703 0.589597 0.066513 0.232193
H42   H     H_    0.359914 0.754321 0.062670 0.185842
H43   H     H_    0.420344 0.703189 0.856256 0.243616
H44   H     H_    0.344111 0.677580 0.832875 0.228449
H45   H     H_    0.570027 0.619111 0.881198 0.172022
H46   H     H_    0.388728 0.545779 0.857156 0.311553
H47   H     H_    0.146722 0.815087 0.774890 0.209011
H48   H     H_    0.080401 0.764050 0.847472 0.082164
H49   H     H_    0.098288 0.037130 0.767475 0.281226
H50   H     H_    0.049806 0.971529 0.886339 0.204556
H51   H     H_    0.134146 0.924231 0.033967 0.278386
H52   H     H_    0.128467 0.088858 0.003943 0.270380
H53   H     H_    0.181268 0.998566 0.916225 0.273819
H54   H     H_    0.983544 0.928479 0.665919 0.277554
H55   H     H_    0.972170 0.821705 0.884345 0.213098
H56   H     H_    0.477730 0.428729 0.892236 0.220414
H57   H     H_    0.903351 0.765535 0.817091 0.259194
H58   H     H_    0.916989 0.929858 0.843706 0.238285
H59   H     H_    0.176557 0.555891 0.121213 0.171520
H60   H     H_    0.248842 0.521252 0.158925 0.108530
H61   H     H_    0.198840 0.786742 0.200386 0.256149
H62   H     H_    0.273370 0.747711 0.199036 0.198153
H63   H     H_    0.258662 0.672928 0.953792 0.279295
H64   H     H_    0.246856 0.837188 0.985384 0.276795
H65   H     H_    0.186534 0.727420 0.963216 0.260638
H66   H     H_    0.383513 0.245028 0.603493 0.173636
H67   H     H_    0.313899 0.581492 0.322866 0.171110
H68   H     H_    0.310532 0.186691 0.624992 0.133738
H69   H     H_    0.402282 0.233354 0.848011 0.230423
H70   H     H_    0.329271 0.178851 0.870896 0.221592
H71   H     H_    0.347074 0.988907 0.722228 0.271830
H72   H     H_    0.395896 0.001152 0.864099 0.263432
H73   H     H_    0.420468 0.044381 0.702242 0.263824
H74   H     H_    0.229140 0.267672 0.744546 0.250862
H75   H     H_    0.178528 0.385016 0.910908 0.227600
H76   H     H_    0.182866 0.520456 0.810028 0.240497
H77   H     H_    0.247627 0.459268 0.883993 0.257080
H78   H     H_    0.880553 0.114009 0.767094 0.179252
H79   H     H_    0.831825 0.622557 0.263462 0.153829
H80   H     H_    0.768418 0.568796 0.166345 0.139455
H81   H     H_    0.888897 0.456571 0.151485 0.224968
H82   H     H_    0.826295 0.401386 0.055613 0.228235
H83   H     H_    0.820771 0.611183 0.952012 0.262451
H84   H     H_    0.888553 0.537952 0.921654 0.262968
H85   H     H_    0.884486 0.664104 0.046444 0.274173
H86   H     H_    0.885329 0.279628 0.766895 0.135487
N1    N     N_R   0.852755 0.535453 0.547542 -0.339263
N2    N     N_R   0.146147 0.476727 0.532640 -0.318553
N3    N     N_2   0.500610 0.501330 0.852150 -0.196515
N4    N     N_2   0.500630 0.501360 0.147810 0.038638
N5    N     N_2   0.667344 0.648052 0.724256 -0.285380
N6    N     N_2   0.409032 0.123068 0.381311 -0.350943
N7    N     N_2   0.958705 0.848716 0.678620 -0.230508
N8    N     N_2   0.212327 0.352347 0.720615 -0.258593
O1    O     O_R   0.499990 0.319060 0.613040 -0.640268
O2    O     O_R   0.583840 0.500020 0.613040 -0.581855
O3    O     O_R   0.583850 0.500060 0.386900 -0.575470
O4    O     O_2   0.863258 0.754633 0.562751 -0.532338
O5    O     O_3   0.925898 0.179711 0.609634 -0.588817
O6    O     O_3   0.557809 0.069785 0.495620 -0.658380
O7    O     O_3   0.594373 0.578272 0.143446 -0.641055
O8    O     O_3   0.036604 0.151955 0.521173 -0.588533
O9    O     O_3   0.447519 0.511379 0.092707 -0.585462
O10   O     O_3   0.077090 0.830002 0.648953 -0.616880
O11   O     O_3   0.195843 0.583175 0.318814 -0.619758
O12   O     O_2   0.838936 0.316575 0.536557 -0.512138
O13   O     O_3   0.331531 0.366846 0.707487 -0.640647
O14   O     O_3   0.798032 0.446001 0.306137 -0.615513
O15   O     O_2   0.135229 0.259546 0.492566 -0.534626
O16   O     O_2   0.160893 0.693613 0.567041 -0.526046
O17   O     O_R   0.500010 0.319100 0.386900 -0.615834
O18   O     O_R   0.416150 0.499940 0.613100 -0.582765
O19   O     O_R   0.416160 0.499980 0.386960 -0.618967
O20   O     O_R   0.499990 0.680900 0.613100 -0.617169
O21   O     O_R   0.500010 0.680940 0.386960 -0.644561
Zn1   Zn    Zn3+2 0.499990 0.499970 0.650990 0.938643
Zn2   Zn    Zn3+2 0.500010 0.500030 0.349010 0.993749

loop_
_geom_bond_atom_site_label_1
_geom_bond_atom_site_label_2
_ccdc_geom_bond_type
C49   H46   S    
C7    O13   S    
C26   O4    S    
H74   N8    S    
C2    N2    A    
C19   H34   S    
C41   C42   S    
C57   H65   S    
C43   H31   S    
C39   H20   S    
C27   O12   S    
C66   N7    S    
C43   O8    S    
C7    C8    A    
C37   O6    S    
C22   N3    D    
C1    C21   S    
C54   H59   S    
C12   C23   A    
C35   H8    S    
C37   C38   S    
C38   H19   S    
C61   N8    S    
C22   C24   S    
C28   C29   A    
C24   O7    S    
C43   H32   S    
C18   C19   D    
C8    N8    S    
C12   O5    S    
C5    C6    A    
C16   O21   A    
C3    O11   S    
C59   H70   S    
C10   C17   A    
C56   C65   A    
C46   H38   S    
C59   H69   S    
C67   N2    A    
C50   H48   S    
C63   H82   S    
C65   O10   S    
C33   H5    S    
C61   H76   S    
C15   H12   S    
C47   C48   S    
C45   C56   A    
C36   H15   S    
C8    C9    A    
C55   H62   S    
H54   N7    S    
C37   H17   S    
C50   O10   S    
N4    Zn2   S    
C29   C30   A    
C36   H14   S    
C36   N6    S    
C49   H44   S    
C47   H39   S    
C27   N1    A    
C48   H42   S    
C59   C60   S    
C13   C14   A    
C13   C25   S    
C58   O13   S    
C39   H21   S    
C4    O19   A    
C17   N1    S    
C64   H85   S    
C31   H86   S    
N3    Zn1   S    
C44   C46   S    
C6    C7    A    
O18   Zn1   S    
H56   N3    S    
O20   Zn1   S    
C58   H66   S    
C5    H67   S    
C41   H26   S    
C35   H9    S    
H7    N5    S    
C38   H18   S    
O2    Zn1   S    
C51   C52   S    
C18   H23   S    
C54   O11   S    
C57   H63   S    
C4    C6    S    
C36   H13   S    
C42   H30   S    
C44   H35   S    
C16   O20   A    
C44   H33   S    
C32   H3    S    
C64   H84   S    
C58   C59   S    
C46   H37   S    
C20   N6    S    
C42   H28   S    
C29   C45   A    
C50   H47   S    
C43   C44   S    
C62   C63   S    
O3    Zn2   S    
N4    O9    S    
C1    O17   A    
H11   N6    S    
C61   H77   S    
C41   H27   S    
C23   O8    S    
C31   O5    S    
C67   O15   S    
C23   C34   A    
C20   C21   D    
C50   C51   S    
C34   C45   A    
C40   H25   S    
C3    C9    A    
C30   C66   A    
C53   H58   S    
C60   H73   S    
C52   H53   S    
C33   H6    S    
C48   C49   S    
C2    O16   S    
C12   C28   A    
C1    O1    A    
C26   C30   A    
C47   H40   S    
C62   H80   S    
C55   C57   S    
C48   H41   S    
C42   H29   S    
C26   N1    A    
C4    O18   A    
C63   H81   S    
C47   O9    S    
C11   H1    S    
C46   H36   S    
C10   O14   S    
C15   C17   A    
C54   C55   S    
C40   C41   S    
C53   N7    S    
C24   N4    D    
C57   H64   S    
C31   C32   S    
C3    C5    A    
C53   H57   S    
C34   C67   A    
C32   H2    S    
C58   H68   S    
C54   H60   S    
C22   H45   S    
C51   H49   S    
C21   O6    S    
C53   H55   S    
C32   C33   S    
C35   N5    S    
O1    Zn1   S    
C2    C56   A    
C11   C13   A    
C38   C39   S    
C25   O2    A    
C16   C19   S    
C62   O14   S    
C51   H50   S    
C35   H10   S    
C18   C20   S    
C40   H24   S    
O21   Zn2   S    
C14   N5    S    
C40   O7    S    
C10   C11   A    
C33   H4    S    
C60   H72   S    
C63   C64   S    
C31   H78   S    
C52   H52   S    
C61   H75   S    
C55   H61   S    
C9    N2    S    
C65   C66   A    
C62   H79   S    
C64   H83   S    
C27   C28   A    
C14   C15   A    
C37   H16   S    
C25   O3    A    
C39   H22   S    
O17   Zn2   S    
O19   Zn2   S    
C60   H71   S    
C49   H43   S    
C52   H51   S    
