data_mof_unit_55511.cif
_audit_creation_date              2012-12-10T16:59:14-0500
_audit_creation_method            fapswitch 2.2
_symmetry_space_group_name_H-M    P1
_symmetry_Int_Tables_number       1
_space_group_crystal_system       triclinic
_cell_length_a                    7.783303
_cell_length_b                    8.59753
_cell_length_c                    27.735251
_cell_angle_alpha                 92.210915
_cell_angle_beta                  84.620524
_cell_angle_gamma                 94.085777
_cell_volume                      1842.14319668

loop_
_atom_site_label
_atom_site_type_symbol
_atom_type_description
_atom_site_fract_x
_atom_site_fract_y
_atom_site_fract_z
_atom_type_partial_charge
C1    C     C_R   0.545401 0.794496 0.499443 0.890114
C2    C     C_R   0.616352 0.581002 0.122981 -0.078884
C3    C     C_R   0.497738 0.502511 0.647202 -0.151649
C4    C     C_R   0.499520 0.488912 0.352675 -0.155737
C5    C     C_R   0.579129 0.597604 0.023570 0.008415
C6    C     C_R   0.385648 0.359425 0.975939 0.034772
C7    C     C_R   0.378916 0.364478 0.027431 -0.064022
C8    C     C_R   0.534568 0.620712 0.976197 -0.063873
C9    C     C_R   0.490160 0.475571 0.050225 -0.032826
C10   C     C_R   0.454898 0.493646 0.950884 -0.032573
C11   C     C_R   0.715210 0.687520 0.044020 0.454880
C12   C     C_R   0.454603 0.205504 0.500554 0.890048
C13   C     C_R   0.332286 0.223445 0.949077 0.404481
C14   C     C_R   0.726559 0.687339 0.094438 -0.007520
C15   C     C_R   0.324522 0.230195 0.898429 0.020507
C16   C     C_R   0.500727 0.501543 0.594074 0.917320
C17   C     C_R   0.498944 0.497495 0.405878 0.918306
C18   C     C_R   0.566679 0.766355 0.953421 0.385415
C19   C     C_R   0.264549 0.264300 0.057180 0.383619
C20   C     C_2   0.564733 0.958202 0.506244 0.186822
C21   C     C_2   0.435297 0.041802 0.493742 0.186466
C22   C     C_R   0.496601 0.641831 0.825968 0.675411
C23   C     C_R   0.448234 0.500216 0.900463 -0.184137
C24   C     C_R   0.452777 0.333933 0.175431 0.693114
C25   C     C_R   0.404065 0.371351 0.823080 0.666578
C26   C     C_R   0.608045 0.583036 0.173859 0.633580
C27   C     C_R   0.321502 0.474476 0.724078 0.449568
C28   C     C_R   0.672524 0.490199 0.274702 0.457166
C29   C     C_R   0.336982 0.471033 0.673603 -0.350851
C30   C     C_R   0.660366 0.502935 0.325194 -0.358002
C31   C     C_R   0.647383 0.538213 0.672146 -0.047296
C32   C     C_R   0.346563 0.461216 0.328689 -0.041916
C33   C     C_R   0.632169 0.540534 0.723250 0.454656
C34   C     C_R   0.510206 0.466421 0.099892 -0.169077
C35   C     C_R   0.358669 0.448053 0.277758 0.438885
C36   C     C_R   0.469330 0.508409 0.748678 0.162746
C37   C     C_R   0.521404 0.463711 0.250950 0.161980
C38   C     C_R   0.503706 0.639919 0.876387 -0.156773
C39   C     C_R   0.422547 0.343751 0.126628 -0.153410
C40   C     C_R   0.562204 0.773672 0.903048 0.422621
C41   C     C_R   0.298546 0.242163 0.105281 0.459105
C42   C     C_R   0.389006 0.366512 0.873955 -0.046208
H1    H     H_    0.778456 0.523401 0.342971 0.187940
H2    H     H_    0.031450 0.764433 0.502748 0.229604
H3    H     H_    0.874330 0.612089 0.728647 0.371853
H4    H     H_    0.119926 0.368901 0.273896 0.373617
H5    H     H_    0.666649 0.988623 0.901544 0.383336
H6    H     H_    0.133165 0.060480 0.112459 0.375530
H7    H     H_    0.917994 0.550249 0.268750 0.360262
H8    H     H_    0.075641 0.411573 0.727801 0.352762
H9    H     H_    0.929532 0.726577 0.135867 0.249950
H10   H     H_    0.796054 0.877797 0.136121 0.270109
H11   H     H_    0.117759 0.076813 0.888895 0.203648
H12   H     H_    0.221840 0.443563 0.654937 0.182840
H13   H     H_    0.314357 0.005278 0.871623 0.247193
H14   H     H_    0.933307 0.816264 0.031579 0.376111
H15   H     H_    0.270637 0.996756 0.950315 0.340243
H16   H     H_    0.528824 0.893047 0.012418 0.359205
H17   H     H_    0.074561 0.265735 0.016546 0.351870
H18   H     H_    0.771927 0.943384 0.540560 0.337482
H19   H     H_    0.228126 0.056625 0.459418 0.337963
H20   H     H_    0.853273 0.477204 0.626377 0.227849
H21   H     H_    0.804641 0.668360 0.624323 0.210630
H22   H     H_    0.153332 0.550149 0.373798 0.233318
H23   H     H_    0.174210 0.353522 0.378240 0.211194
H24   H     H_    0.945354 0.276323 0.442138 0.176570
H25   H     H_    0.972333 0.237553 0.499387 0.229528
H26   H     H_    0.047678 0.718031 0.560039 0.175247
N1    N     N_R   0.454792 0.507613 0.800569 -0.339395
N2    N     N_3   0.241940 0.102994 0.872132 -0.353252
N3    N     N_R   0.531454 0.458363 0.198844 -0.330601
N4    N     N_2   0.950320 0.457960 0.486880 -0.008459
N5    N     N_2   0.049680 0.542040 0.513120 -0.009511
N6    N     N_3   0.813711 0.575096 0.646817 -0.470888
N7    N     N_3   0.178323 0.445851 0.354680 -0.469950
N8    N     N_3   0.011794 0.315271 0.471805 -0.344021
N9    N     N_3   0.986831 0.683483 0.528990 -0.342460
N10   N     N_3   0.855878 0.790213 0.115024 -0.445534
O1    O     O_R   0.389250 0.738570 0.503220 -0.575219
O2    O     O_2   0.400676 0.203546 0.199845 -0.451806
O3    O     O_2   0.669627 0.710048 0.198468 -0.528121
O4    O     O_2   0.373777 0.240425 0.795872 -0.470463
O5    O     O_3   0.772994 0.572063 0.749882 -0.716197
O6    O     O_3   0.213183 0.423204 0.252833 -0.714739
O7    O     O_3   0.614546 0.910057 0.879221 -0.696819
O8    O     O_3   0.199728 0.133410 0.133411 -0.671575
O9    O     O_3   0.830715 0.503378 0.247711 -0.701293
O10   O     O_3   0.163628 0.445095 0.750386 -0.707703
O11   O     O_3   0.838777 0.767996 0.013397 -0.719572
O12   O     O_R   0.610750 0.261430 0.496780 -0.575596
O13   O     O_3   0.299939 0.084153 0.972836 -0.721754
O14   O     O_3   0.590320 0.904963 0.979681 -0.711466
O15   O     O_3   0.108574 0.201442 0.042545 -0.726120
O16   O     O_3   0.700272 0.025618 0.530875 -0.791278
O17   O     O_3   0.299812 0.974395 0.469088 -0.791962
O18   O     O_R   0.678390 0.711630 0.494810 -0.634501
O19   O     O_R   0.321610 0.288370 0.505190 -0.636198
O20   O     O_R   0.355440 0.513440 0.575450 -0.627053
O21   O     O_R   0.644560 0.486560 0.424550 -0.626393
O22   O     O_R   0.644590 0.486500 0.567040 -0.614236
O23   O     O_R   0.355410 0.513500 0.432960 -0.615619
O24   O     O_2   0.532062 0.775747 0.802028 -0.441350
Zn1   Zn    Zn3+2 0.306940 0.517990 0.505620 0.981146
Zn2   Zn    Zn3+2 0.693060 0.482010 0.494380 0.982282

loop_
_geom_bond_atom_site_label_1
_geom_bond_atom_site_label_2
_ccdc_geom_bond_type
C27   C29   A    
H7    O9    S    
N4    N8    S    
C33   C36   A    
C32   N7    S    
C39   C41   A    
C41   O8    S    
C23   C42   A    
H5    O7    S    
C12   O12   A    
H2    N9    S    
C35   C37   A    
C5    C11   A    
C11   C14   A    
C29   H12   S    
O20   Zn1   S    
C22   C38   A    
O22   Zn2   S    
C24   C39   A    
C3    C29   A    
C18   C40   A    
C17   O23   A    
C24   O2    S    
C31   C33   A    
C22   N1    A    
C19   O15   S    
H8    O10   S    
C2    C34   A    
O21   Zn2   S    
O23   Zn1   S    
C13   O13   S    
C26   N3    A    
O1    Zn1   S    
H3    O5    S    
H10   N10   S    
H11   N2    S    
C34   C39   A    
C32   C35   A    
O18   Zn2   S    
C16   O22   A    
C31   N6    S    
C21   O17   S    
C12   C21   S    
C8    C18   A    
C40   O7    S    
C5    C9    A    
C33   O5    S    
C11   O11   S    
H24   N8    S    
C28   O9    S    
C2    C26   A    
C4    C32   A    
C3    C31   A    
C17   O21   A    
O12   Zn2   S    
C12   O19   A    
O19   Zn1   S    
H4    O6    S    
C4    C17   S    
H14   O11   S    
C26   O3    S    
C7    C19   A    
C37   N3    S    
C25   O4    S    
C1    O1    A    
H6    O8    S    
C30   H1    S    
C25   N1    A    
C36   N1    S    
H26   N9    S    
C7    C9    A    
C15   N2    S    
C20   O16   S    
C1    C20   S    
H15   O13   S    
C15   C42   A    
N4    N5    D    
C22   O24   S    
C25   C42   A    
C6    C10   A    
C5    C8    A    
C35   O6    S    
H19   O17   S    
C6    C7    A    
H21   N6    S    
C10   C23   A    
C23   C38   A    
N4    Zn2   S    
H23   N7    S    
C27   C36   A    
C18   O14   S    
C13   C15   A    
H9    N10   S    
C6    C13   A    
C38   C40   A    
C16   O20   A    
C9    C34   A    
C28   C37   A    
C1    O18   A    
C28   C30   A    
H22   N7    S    
C14   N10   S    
C27   O10   S    
C2    C14   A    
H13   N2    S    
N5    Zn1   S    
C20   C21   D    
C8    C10   A    
N5    N9    S    
H20   N6    S    
H25   N8    S    
H17   O15   S    
H16   O14   S    
C4    C30   A    
C3    C16   S    
C19   C41   A    
C24   N3    A    
H18   O16   S    
