data_mof_unit_12485.cif
_audit_creation_date              2012-10-26T19:59:40-0400
_audit_creation_method            fapswitch 2.2
_symmetry_space_group_name_H-M    P1
_symmetry_Int_Tables_number       1
_space_group_crystal_system       triclinic
_cell_length_a                    10.738946
_cell_length_b                    8.711478
_cell_length_c                    7.451401
_cell_angle_alpha                 102.570925
_cell_angle_beta                  95.64318
_cell_angle_gamma                 92.016648
_cell_volume                      675.935287345

loop_
_atom_site_label
_atom_site_type_symbol
_atom_type_description
_atom_site_fract_x
_atom_site_fract_y
_atom_site_fract_z
_atom_type_partial_charge
C1    C     C_R   0.500230 0.200508 0.453326 0.544235
C2    C     C_R   0.504852 0.799997 0.545663 0.563600
C3    C     C_R   0.736439 0.483096 0.499245 0.560748
C4    C     C_R   0.136204 0.218639 0.546896 -0.106514
C5    C     C_R   0.078067 0.088820 0.590282 -0.143304
C6    C     C_R   0.957262 0.097207 0.640746 -0.094951
C7    C     C_R   0.891253 0.232976 0.640481 0.086738
C8    C     C_R   0.940866 0.355798 0.563144 0.032528
C9    C     C_R   0.069479 0.353738 0.535631 0.018500
C10   C     C_R   0.128759 0.486754 0.495283 0.016957
C11   C     C_R   0.060177 0.606971 0.447586 -0.146274
C12   C     C_R   0.931778 0.599698 0.446962 -0.139196
C13   C     C_R   0.871284 0.477716 0.505925 0.019274
C14   C     C_2   0.511244 0.034390 0.424758 0.055153
C15   C     C_2   0.503635 0.966890 0.568105 -0.096177
C16   C     C_R   0.262675 0.501095 0.499816 0.528960
Cu1   Cu    Cu3+1 0.513920 0.517380 0.684380 0.986843
Cu2   Cu    Cu3+1 0.486080 0.482620 0.315620 0.990102
H1    H     H_    0.106300 0.705959 0.409373 0.116065
H2    H     H_    0.614890 0.996067 0.207204 0.242836
H3    H     H_    0.597810 0.622145 0.052320 0.259577
H4    H     H_    0.232849 0.210902 0.518049 0.118257
H5    H     H_    0.129846 0.985490 0.597013 0.110621
H6    H     H_    0.919094 0.002236 0.695350 0.138029
H7    H     H_    0.879376 0.692743 0.405378 0.126554
H8    H     H_    0.492098 0.035732 0.705297 0.112473
H9    H     H_    0.402485 0.377483 0.947583 0.239736
H10   H     H_    0.458366 0.959993 0.148910 0.245689
I1    I     I_    0.765076 0.260682 0.845427 -0.351699
N1    N     N_2   0.465100 0.456430 0.038520 -0.243061
N2    N     N_2   0.534900 0.543570 0.961480 -0.229577
N3    N     N_3   0.533439 0.947202 0.244064 -0.598813
O1    O     O_R   0.509050 0.286130 0.619770 -0.507584
O2    O     O_R   0.485540 0.256780 0.308360 -0.505316
O3    O     O_R   0.331410 0.514680 0.655740 -0.509686
O4    O     O_R   0.307900 0.485330 0.344330 -0.501753
O5    O     O_R   0.514460 0.743220 0.691640 -0.508234
O6    O     O_R   0.490950 0.713870 0.380230 -0.463866
O7    O     O_R   0.692100 0.514670 0.655670 -0.474871
O8    O     O_R   0.668590 0.485320 0.344260 -0.492598

loop_
_geom_bond_atom_site_label_1
_geom_bond_atom_site_label_2
_ccdc_geom_bond_type
C3    O8    A    
C11   C12   A    
C6    C7    A    
Cu2   N1    S    
H3    N2    S    
C9    C10   A    
C2    O6    A    
C3    C13   S    
C12   H7    S    
C6    H6    S    
Cu1   Cu2   S    
Cu2   O6    S    
C3    O7    A    
C7    C8    A    
Cu1   O5    S    
C16   O4    A    
H9    N1    S    
C2    C15   S    
Cu2   O2    S    
C2    O5    A    
C11   H1    S    
C5    C6    A    
Cu1   O1    S    
C7    I1    S    
C1    O2    A    
C16   O3    A    
Cu1   O7    S    
N1    N2    D    
Cu1   N2    S    
C10   C11   A    
C1    O1    A    
C8    C13   A    
H10   N3    S    
C4    H4    S    
C12   C13   A    
H2    N3    S    
Cu2   O8    S    
C14   C15   D    
C8    C9    A    
C15   H8    S    
C10   C16   S    
C1    C14   S    
Cu1   O3    S    
C4    C9    A    
Cu2   O4    S    
C14   N3    S    
C4    C5    A    
C5    H5    S    
