data_mof_unit_66580.cif
_audit_creation_date              2012-12-10T20:34:54-0500
_audit_creation_method            fapswitch 2.2
_symmetry_space_group_name_H-M    P1
_symmetry_Int_Tables_number       1
_space_group_crystal_system       triclinic
_cell_length_a                    10.677494
_cell_length_b                    10.775113
_cell_length_c                    9.95408
_cell_angle_alpha                 90.82494
_cell_angle_beta                  90.581223
_cell_angle_gamma                 92.128918
_cell_volume                      1144.25445027

loop_
_atom_site_label
_atom_site_type_symbol
_atom_type_description
_atom_site_fract_x
_atom_site_fract_y
_atom_site_fract_z
_atom_type_partial_charge
C1    C     C_R   0.504046 0.260767 0.498858 0.887407
C2    C     C_3   0.878411 0.494714 0.497440 -0.040630
C3    C     C_3   0.935297 0.629518 0.469141 -0.064087
C4    C     C_3   0.925747 0.393929 0.394415 -0.129299
C5    C     C_R   0.541235 0.066179 0.611321 0.164889
C6    C     C_R   0.519160 0.130045 0.494260 -0.140537
C7    C     C_R   0.509552 0.066289 0.370923 -0.227013
C8    C     C_R   0.493760 0.937402 0.367449 0.056803
C9    C     C_R   0.506864 0.873330 0.492059 -0.156497
C10   C     C_R   0.538140 0.939138 0.609615 0.099417
C11   C     C_3   0.472967 0.934069 0.741348 -0.496999
C12   C     C_R   0.257980 0.497058 0.499581 0.845388
C13   C     C_3   0.476456 0.074270 0.742977 -0.465760
C14   C     C_R   0.391006 0.488223 0.068309 0.143181
C15   C     C_R   0.602726 0.538385 0.075591 -0.134969
C16   C     C_R   0.600460 0.550398 0.932074 0.180924
C17   C     C_R   0.391890 0.484773 0.928585 0.141559
C18   C     C_3   0.285830 0.392684 0.917711 -0.500615
C19   C     C_3   0.278468 0.401117 0.071361 -0.140947
C20   C     C_R   0.498413 0.740056 0.499035 0.855760
C21   C     C_R   0.741768 0.496230 0.499824 0.812534
C22   C     C_3   0.071620 0.470129 0.642361 -0.465699
C23   C     C_3   0.928369 0.460192 0.641173 -0.212023
C24   C     C_3   0.077197 0.620831 0.447335 -0.388066
C25   C     C_3   0.069636 0.388320 0.406253 -0.473246
C26   C     C_3   0.121516 0.494644 0.498939 0.118906
H1    H     H_    0.103276 0.547900 0.711089 0.176494
H2    H     H_    0.099965 0.629539 0.338871 0.204640
H3    H     H_    0.504319 0.117946 0.279066 0.181407
H4    H     H_    0.376900 0.891216 0.731517 0.208831
H5    H     H_    0.532383 0.896364 0.821391 0.209907
H6    H     H_    0.381843 0.113535 0.734943 0.195297
H7    H     H_    0.538245 0.116268 0.823317 0.219643
H8    H     H_    0.682243 0.570190 0.135467 0.165379
H9    H     H_    0.110979 0.382664 0.679442 0.199459
H10   H     H_    0.202588 0.432230 0.871279 0.186780
H11   H     H_    0.314501 0.301908 0.875942 0.203809
H12   H     H_    0.194957 0.451562 0.104549 0.189600
H13   H     H_    0.897292 0.532080 0.712717 0.152054
H14   H     H_    0.127459 0.699077 0.501953 0.130984
H15   H     H_    0.924501 0.684108 0.563054 0.141892
H16   H     H_    0.113493 0.394069 0.306417 0.204165
H17   H     H_    0.095557 0.297736 0.448801 0.189556
H18   H     H_    0.885266 0.302367 0.424622 0.163058
N1    N     N_R   0.499150 0.499140 0.142800 -0.122001
N2    N     N_R   0.499150 0.499180 0.857150 -0.117659
O1    O     O_R   0.500020 0.316790 0.614690 -0.598333
O2    O     O_R   0.500000 0.316760 0.385350 -0.620477
O3    O     O_R   0.314800 0.500000 0.614670 -0.623103
O4    O     O_R   0.314790 0.499960 0.385330 -0.641512
O5    O     O_R   0.500000 0.683240 0.614650 -0.628603
O6    O     O_R   0.499980 0.683210 0.385310 -0.646480
O7    O     O_R   0.685210 0.500040 0.614670 -0.617252
O8    O     O_R   0.685200 0.500000 0.385330 -0.610006
Zn1   Zn    Zn3+2 0.500010 0.500020 0.653130 0.954577
Zn2   Zn    Zn3+2 0.499990 0.499980 0.346870 0.934240
C27   C     C_2   0.884572 0.404463 0.248586 0.911588
O9    O     O_2   0.938323 0.476969 0.173319 -0.702492
O10   O     O_R   0.789619 0.323339 0.197994 -0.799118
H19   H     H_    0.773474 0.334486 0.098437 0.356876
C28   C     C_3   0.871129 0.709192 0.361065 -0.416156
C29   C     C_3   0.915223 0.846570 0.369471 -0.396312
C30   C     C_3   0.845593 0.923352 0.266893 -0.851475
H20   H     H_    0.873215 0.897212 0.163379 0.260559
H21   H     H_    0.742823 0.908485 0.276879 0.266984
H22   H     H_    0.868551 0.023557 0.284142 0.272603
H23   H     H_    0.896943 0.884482 0.471612 0.230785
H24   H     H_    0.017455 0.856003 0.350547 0.232463
H25   H     H_    0.889178 0.673526 0.259233 0.253838
H26   H     H_    0.768554 0.707777 0.376528 0.218806
C31   C     C_3   0.451773 0.870102 0.236482 -0.356578
C32   C     C_3   0.409457 0.948518 0.118534 -0.419777
C33   C     C_3   0.326101 0.871098 0.020841 -0.893100
H27   H     H_    0.379255 0.794435 0.975901 0.261033
H28   H     H_    0.242894 0.830908 0.073118 0.258217
H29   H     H_    0.291117 0.931549 0.940657 0.256491
H30   H     H_    0.353500 0.024233 0.156091 0.258781
H31   H     H_    0.492132 0.988607 0.065200 0.227557
H32   H     H_    0.529012 0.812911 0.198965 0.216461
H33   H     H_    0.369359 0.809090 0.262139 0.229998
C34   C     C_3   0.681091 0.657145 0.877842 -0.398830
C35   C     C_3   0.815581 0.669248 0.935673 -0.358458
C36   C     C_3   0.890923 0.775160 0.870879 -0.929989
H34   H     H_    0.890151 0.764630 0.760505 0.250515
H35   H     H_    0.850197 0.865614 0.897298 0.267482
H36   H     H_    0.989438 0.775983 0.907898 0.260281
H37   H     H_    0.813738 0.693375 0.043825 0.224378
H38   H     H_    0.863904 0.580507 0.924288 0.264060
H39   H     H_    0.683210 0.657325 0.767897 0.259190
H40   H     H_    0.634210 0.742989 0.907701 0.168062
C37   C     C_3   0.291043 0.276572 0.141068 -0.353780
C38   C     C_3   0.175665 0.190168 0.107418 -0.352594
C39   C     C_3   0.134142 0.108627 0.225011 -0.908555
H41   H     H_    0.210781 0.095329 0.299047 0.258203
H42   H     H_    0.100497 0.016156 0.186042 0.268144
H43   H     H_    0.055592 0.151359 0.278154 0.263769
H44   H     H_    0.093882 0.244516 0.076273 0.252510
H45   H     H_    0.198331 0.130253 0.019861 0.221243
H46   H     H_    0.378563 0.232724 0.108761 0.188447
H47   H     H_    0.297933 0.294144 0.250730 0.237913
C40   C     C_2   0.880151 0.335754 0.695401 0.924363
O11   O     O_2   0.805584 0.333949 0.787919 -0.631038
O12   O     O_R   0.924257 0.223981 0.644652 -0.846585
H48   H     H_    0.885121 0.148621 0.690121 0.336506

loop_
_geom_bond_atom_site_label_1
_geom_bond_atom_site_label_2
_ccdc_geom_bond_type
C28   H26   S    
C30   H21   S    
C39   H41   S    
C7    H3    S    
C33   H27   S    
C13   H6    S    
C25   H17   S    
C31   H32   S    
C34   C35   S    
C38   H45   S    
C7    C8    A    
C22   H9    S    
C40   O11   D    
C29   H23   S    
C18   H11   S    
C24   C26   S    
C20   O5    A    
C5    C6    A    
C35   H38   S    
C27   O10   S    
C35   H37   S    
C18   C19   S    
C16   C34   S    
C32   H31   S    
C32   H30   S    
N1    Zn2   S    
C8    C9    A    
N2    Zn1   S    
C37   H47   S    
C9    C10   A    
C15   H8    S    
C5    C13   S    
C34   H39   S    
C3    C28   S    
C30   H22   S    
C11   H5    S    
O10   H19   S    
C39   H42   S    
C33   H28   S    
C14   C17   A    
C3    C24   S    
C31   H33   S    
C38   H44   S    
C12   O3    A    
C14   N1    A    
O7    Zn1   S    
O8    Zn2   S    
C1    C6    S    
C17   N2    A    
C11   H4    S    
C16   N2    A    
C37   C38   S    
C1    O1    A    
C4    H18   S    
C25   C26   S    
O3    Zn1   S    
O4    Zn2   S    
C12   C26   S    
C4    C27   S    
C2    C4    S    
C13   H7    S    
C29   C30   S    
C19   H12   S    
C9    C20   S    
C36   H34   S    
C2    C21   S    
C17   C18   S    
C34   H40   S    
C36   H35   S    
C39   H43   S    
C22   H1    S    
C33   H29   S    
C15   N1    A    
C4    C25   S    
O12   H48   S    
O1    Zn1   S    
C28   H25   S    
O2    Zn2   S    
C3    H15   S    
C8    C31   S    
C14   C19   S    
C24   H2    S    
C32   C33   S    
C25   H16   S    
C12   O4    A    
C1    O2    A    
C6    C7    A    
C29   H24   S    
C21   O8    A    
C2    C3    S    
C5    C10   A    
C20   O6    A    
C21   O7    A    
C11   C13   S    
C27   O9    D    
C23   C40   S    
C23   H13   S    
C38   C39   S    
C24   H14   S    
O5    Zn1   S    
C28   C29   S    
C19   C37   S    
C10   C11   S    
C30   H20   S    
O6    Zn2   S    
C31   C32   S    
C36   H36   S    
C40   O12   S    
C35   C36   S    
C22   C26   S    
C2    C23   S    
C22   C23   S    
C37   H46   S    
C18   H10   S    
C15   C16   A    
