data_mof_unit_40972.cif
_audit_creation_date              2012-12-11T14:01:42-0500
_audit_creation_method            fapswitch 2.2
_symmetry_space_group_name_H-M    P1
_symmetry_Int_Tables_number       1
_space_group_crystal_system       triclinic
_cell_length_a                    19.027079
_cell_length_b                    10.990053
_cell_length_c                    18.75934
_cell_angle_alpha                 90.005958
_cell_angle_beta                  89.673458
_cell_angle_gamma                 90.184594
_cell_volume                      3922.6553687

loop_
_atom_site_label
_atom_site_type_symbol
_atom_type_description
_atom_site_fract_x
_atom_site_fract_y
_atom_site_fract_z
_atom_type_partial_charge
C1    C     C_R   0.272809 0.040243 0.854381 0.561599
C2    C     C_R   0.982042 0.662816 0.966194 -0.130462
C3    C     C_R   0.462721 0.153422 0.042303 -0.137097
C4    C     C_R   0.477565 0.165173 0.969944 -0.130140
C5    C     C_2   0.244932 0.573962 0.918117 -0.071667
C6    C     C_2   0.754705 0.573776 0.081685 -0.070622
C7    C     C_2   0.746427 0.075533 0.919003 -0.071868
C8    C     C_2   0.255333 0.073761 0.081876 -0.071923
C9    C     C_2   0.248838 0.577176 0.074746 -0.144765
C10   C     C_2   0.751082 0.575076 0.925954 -0.137905
C11   C     C_2   0.749678 0.079435 0.075478 -0.142441
C12   C     C_R   0.727413 0.041203 0.146162 0.562349
C13   C     C_2   0.251310 0.073927 0.926320 -0.139492
C14   C     C_2   0.280363 0.494608 0.032502 -0.172417
C15   C     C_2   0.720299 0.490371 0.967939 -0.170354
C16   C     C_2   0.783589 0.999215 0.033611 -0.168982
C17   C     C_2   0.221618 0.988118 0.968463 -0.172669
C18   C     C_2   0.295062 0.519261 0.956629 0.243614
C19   C     C_2   0.705843 0.511914 0.044679 0.243488
C20   C     C_2   0.797804 0.024200 0.957716 0.243823
C21   C     C_2   0.207568 0.008587 0.045487 0.235978
C22   C     C_2   0.513231 0.840040 0.584849 -0.121706
C23   C     C_R   0.772764 0.540464 0.854272 0.561122
C24   C     C_2   0.514640 0.828898 0.428929 -0.106809
C25   C     C_2   0.013236 0.340042 0.584852 -0.121547
C26   C     C_2   0.014647 0.328898 0.428932 -0.108231
C27   C     C_2   0.548014 0.750468 0.472324 -0.147583
C28   C     C_2   0.533454 0.742765 0.548051 -0.160252
C29   C     C_2   0.048024 0.250472 0.472328 -0.148356
C30   C     C_2   0.033462 0.242768 0.548055 -0.159818
C31   C     C_2   0.246664 0.561519 0.584578 0.262350
C32   C     C_2   0.752796 0.561818 0.415603 0.256631
C33   C     C_2   0.746665 0.061520 0.584577 0.262395
C34   C     C_R   0.227253 0.540789 0.145974 0.556505
C35   C     C_2   0.252802 0.061820 0.415602 0.256017
C36   C     C_2   0.238036 0.571129 0.427063 -0.090597
C37   C     C_2   0.761765 0.571487 0.573100 -0.088684
C38   C     C_2   0.738037 0.071138 0.427061 -0.090209
C39   C     C_2   0.261765 0.071482 0.573099 -0.088599
C40   C     C_R   0.472634 0.823442 0.852093 0.535018
C41   C     C_R   0.531032 0.821349 0.145298 0.532921
C42   C     C_R   0.974000 0.323262 0.850793 0.536733
C43   C     C_R   0.052384 0.319114 0.138506 0.549579
C44   C     C_2   0.183468 0.555000 0.472071 -0.151034
C45   C     C_R   0.470931 0.041308 0.075773 -0.089164
C46   C     C_2   0.816116 0.554937 0.527963 -0.147543
C47   C     C_2   0.683468 0.055014 0.472069 -0.151284
C48   C     C_2   0.316116 0.054940 0.527963 -0.147339
C49   C     C_2   0.188210 0.582952 0.547320 -0.158171
C50   C     C_2   0.811374 0.583108 0.452772 -0.158289
C51   C     C_2   0.688211 0.082954 0.547320 -0.158240
C52   C     C_2   0.311374 0.083127 0.452774 -0.158719
C53   C     C_R   0.260126 0.634624 0.850626 0.555942
C54   C     C_R   0.739707 0.634681 0.149202 0.559237
C55   C     C_R   0.760400 0.135058 0.850897 0.555679
C56   C     C_R   0.495699 0.063271 0.929836 -0.074009
C57   C     C_R   0.239858 0.134436 0.149348 0.552946
C58   C     C_R   0.273638 0.043430 0.646856 0.531411
C59   C     C_R   0.726247 0.043106 0.353249 0.531388
C60   C     C_R   0.773638 0.543431 0.646856 0.531455
C61   C     C_R   0.226246 0.543104 0.353250 0.531972
C62   C     C_R   0.472498 0.824705 0.649467 0.548326
C63   C     C_R   0.532187 0.823173 0.354002 0.540910
C64   C     C_R   0.972499 0.324705 0.649467 0.547133
C65   C     C_R   0.032189 0.323173 0.354003 0.547874
C66   C     C_R   0.260177 0.634164 0.647391 0.563938
C67   C     C_R   0.980650 0.537553 0.071601 -0.085507
C68   C     C_R   0.739689 0.634167 0.352677 0.558943
C69   C     C_R   0.760177 0.134165 0.647390 0.563969
C70   C     C_R   0.239690 0.134166 0.352675 0.560213
C71   C     C_R   0.511537 0.827656 0.070137 -0.000890
C72   C     C_R   0.507206 0.838110 0.921233 -0.002851
C73   C     C_R   0.030898 0.327680 0.064182 -0.002510
C74   C     C_R   0.014234 0.337776 0.916669 -0.002337
C75   C     C_R   0.493615 0.938511 0.036753 0.023300
C76   C     C_R   0.499094 0.946876 0.961684 0.029038
C77   C     C_R   0.007213 0.437418 0.032282 0.025393
C78   C     C_R   0.002025 0.562555 0.925617 -0.075133
C79   C     C_R   0.008785 0.446393 0.957271 0.025442
C80   C     C_R   0.528455 0.732048 0.955013 -0.166483
C81   C     C_R   0.530359 0.726794 0.028171 -0.164879
C82   C     C_R   0.039902 0.232461 0.948514 -0.167421
C83   C     C_R   0.049442 0.228610 0.021236 -0.182374
C84   C     C_3   0.285423 0.368174 0.570819 -0.105014
C85   C     C_3   0.712282 0.368962 0.428429 -0.105074
C86   C     C_3   0.785401 0.868171 0.570735 -0.105050
C87   C     C_3   0.212280 0.868960 0.428324 -0.105025
C88   C     C_3   0.414368 0.488290 0.970025 -0.104607
C89   C     C_R   0.968232 0.648933 0.038541 -0.143181
C90   C     C_3   0.600947 0.399027 0.037171 -0.126976
C91   C     C_3   0.917758 0.995891 0.970899 -0.100372
C92   C     C_3   0.104038 0.891723 0.038807 -0.122698
Cr1   Cr    Cr6+3 0.230530 0.836340 0.748870 1.013220
Cr2   Cr    Cr6+3 0.614360 0.677860 0.250770 1.067645
Cr3   Cr    Cr6+3 0.885640 0.177860 0.749230 1.071061
Cr4   Cr    Cr6+3 0.114360 0.177860 0.250770 1.064529
Cr5   Cr    Cr6+3 0.769470 0.836340 0.251130 1.019629
Cr6   Cr    Cr6+3 0.730530 0.336340 0.748870 1.014237
Cr7   Cr    Cr6+3 0.269470 0.336340 0.251130 1.013267
Cr8   Cr    Cr6+3 0.387420 0.989430 0.750820 1.015869
Cr9   Cr    Cr6+3 0.612580 0.989430 0.249180 1.020579
Cr10  Cr    Cr6+3 0.887420 0.489430 0.750820 1.015159
Cr11  Cr    Cr6+3 0.112580 0.489430 0.249180 1.017273
Cr12  Cr    Cr6+3 0.385640 0.677860 0.749230 1.070961
H1    H     H_    0.539306 0.650121 0.924868 0.130912
H2    H     H_    0.855569 0.631933 0.429370 0.118442
H3    H     H_    0.644232 0.131974 0.570647 0.116724
H4    H     H_    0.355564 0.131972 0.429378 0.118054
H5    H     H_    0.290005 0.598525 0.444485 0.148705
H6    H     H_    0.709920 0.599385 0.555841 0.137786
H7    H     H_    0.790007 0.098532 0.444483 0.149042
H8    H     H_    0.209919 0.099372 0.555839 0.137768
H9    H     H_    0.458563 0.035872 0.132011 0.129751
H10   H     H_    0.508942 0.077481 0.874341 0.133714
H11   H     H_    0.966560 0.530930 0.127237 0.145613
H12   H     H_    0.547063 0.642111 0.051820 0.181979
H13   H     H_    0.013001 0.577269 0.869652 0.132935
H14   H     H_    0.948824 0.724976 0.069478 0.105955
H15   H     H_    0.975499 0.750460 0.940953 0.118331
H16   H     H_    0.446269 0.231671 0.073066 0.105657
H17   H     H_    0.474487 0.253022 0.944377 0.115110
H18   H     H_    0.296171 0.406652 0.053379 0.150410
H19   H     H_    0.706740 0.401944 0.946004 0.142003
H20   H     H_    0.800981 0.912258 0.054589 0.151201
H21   H     H_    0.208801 0.899453 0.946413 0.143589
H22   H     H_    0.232069 0.664693 0.054129 0.099744
H23   H     H_    0.048843 0.150615 0.917646 0.132226
H24   H     H_    0.766946 0.663178 0.946760 0.107569
H25   H     H_    0.731342 0.165913 0.054713 0.097838
H26   H     H_    0.266440 0.162457 0.947043 0.107731
H27   H     H_    0.193699 0.591759 0.941941 0.055051
H28   H     H_    0.805373 0.594315 0.057273 0.065808
H29   H     H_    0.695020 0.091462 0.942871 0.054738
H30   H     H_    0.305291 0.097340 0.056938 0.069308
H31   H     H_    0.583347 0.681813 0.450924 0.188930
H32   H     H_    0.533219 0.652586 0.571818 0.168828
H33   H     H_    0.083358 0.181820 0.450926 0.188656
H34   H     H_    0.070201 0.146397 0.044406 0.178651
H35   H     H_    0.033229 0.152590 0.571821 0.168837
H36   H     H_    0.479312 0.898875 0.448500 0.083778
H37   H     H_    0.517600 0.930874 0.562263 0.095965
H38   H     H_    0.979317 0.398872 0.448504 0.084050
H39   H     H_    0.017605 0.430876 0.562267 0.096035
H40   H     H_    0.238558 0.337889 0.540251 0.122377
H41   H     H_    0.277668 0.350630 0.628823 0.117850
H42   H     H_    0.330809 0.312919 0.552808 0.159292
H43   H     H_    0.759379 0.337357 0.457972 0.124267
H44   H     H_    0.718907 0.352491 0.370184 0.122611
H45   H     H_    0.131770 0.529726 0.452442 0.148537
H46   H     H_    0.666714 0.314008 0.446845 0.157983
H47   H     H_    0.738549 0.837956 0.540124 0.122448
H48   H     H_    0.777613 0.850534 0.628726 0.117676
H49   H     H_    0.830789 0.812922 0.552718 0.159275
H50   H     H_    0.259423 0.837306 0.457770 0.123855
H51   H     H_    0.218815 0.852599 0.370060 0.122841
H52   H     H_    0.166741 0.813970 0.446775 0.158199
H53   H     H_    0.412845 0.414221 0.010123 0.094997
H54   H     H_    0.416416 0.578283 0.997040 0.135198
H55   H     H_    0.463244 0.477524 0.938337 0.123853
H56   H     H_    0.867705 0.529197 0.547459 0.144563
H57   H     H_    0.626850 0.310907 0.024872 0.124796
H58   H     H_    0.584690 0.446760 0.987724 0.092097
H59   H     H_    0.552397 0.378415 0.067866 0.134909
H60   H     H_    0.916749 0.921600 0.010950 0.093993
H61   H     H_    0.920013 0.086269 0.997604 0.140190
H62   H     H_    0.966535 0.985113 0.939031 0.125928
H63   H     H_    0.129935 0.804603 0.024316 0.124546
H64   H     H_    0.086519 0.941730 0.990589 0.090113
H65   H     H_    0.056239 0.868998 0.070192 0.139958
H66   H     H_    0.631769 0.029742 0.452440 0.148735
H67   H     H_    0.367706 0.029206 0.547458 0.144412
H68   H     H_    0.144232 0.631979 0.570644 0.116635
O1    O     O_R   0.215090 0.709860 0.828130 -0.546285
O2    O     O_R   0.543740 0.718170 0.330000 -0.504736
O3    O     O_R   0.956260 0.218170 0.670000 -0.503567
O4    O     O_R   0.043740 0.218170 0.330000 -0.500867
O5    O     O_R   0.320940 0.626760 0.674370 -0.465990
O6    O     O_R   0.679060 0.626760 0.325630 -0.478210
O7    O     O_R   0.820940 0.126760 0.674370 -0.466174
O8    O     O_R   0.179060 0.126760 0.325630 -0.476727
O9    O     O_3   0.334530 0.834540 0.749640 -0.257270
O10   O     O_3   0.665470 0.834540 0.250360 -0.261501
O11   O     O_3   0.834530 0.334540 0.749640 -0.257020
O12   O     O_R   0.784910 0.709860 0.171870 -0.544551
O13   O     O_3   0.165470 0.334540 0.250360 -0.272611
O14   O     O_R   0.236990 0.958390 0.823710 -0.503084
O15   O     O_R   0.763010 0.958390 0.176290 -0.500695
O16   O     O_R   0.736990 0.458390 0.823710 -0.502628
O17   O     O_R   0.263010 0.458390 0.176290 -0.502085
O18   O     O_R   0.332380 0.074750 0.830850 -0.496883
O19   O     O_R   0.667620 0.074750 0.169150 -0.499477
O20   O     O_R   0.832380 0.574750 0.830850 -0.497617
O21   O     O_R   0.167620 0.574750 0.169150 -0.503011
O22   O     O_R   0.445800 0.917770 0.825070 -0.515617
O23   O     O_R   0.715090 0.209860 0.828130 -0.545493
O24   O     O_R   0.554200 0.917770 0.174930 -0.506902
O25   O     O_R   0.945800 0.417770 0.825070 -0.514389
O26   O     O_R   0.054200 0.417770 0.174930 -0.516498
O27   O     O_R   0.456410 0.716580 0.829970 -0.505025
O28   O     O_R   0.543590 0.716580 0.170030 -0.509239
O29   O     O_R   0.956410 0.216580 0.829970 -0.503981
O30   O     O_R   0.043590 0.216580 0.170030 -0.505482
O31   O     O_R   0.321080 0.625290 0.822650 -0.436327
O32   O     O_R   0.678920 0.625290 0.177350 -0.437277
O33   O     O_R   0.821080 0.125290 0.822650 -0.435276
O34   O     O_R   0.284910 0.209860 0.171870 -0.544932
O35   O     O_R   0.178920 0.125290 0.177350 -0.449501
O36   O     O_R   0.214930 0.711450 0.668160 -0.547341
O37   O     O_R   0.785070 0.711450 0.331840 -0.543611
O38   O     O_R   0.714930 0.211450 0.668160 -0.547175
O39   O     O_R   0.285070 0.211450 0.331840 -0.543024
O40   O     O_R   0.236850 0.959870 0.675420 -0.484183
O41   O     O_R   0.763150 0.959870 0.324580 -0.481793
O42   O     O_R   0.736850 0.459870 0.675420 -0.484135
O43   O     O_R   0.263150 0.459870 0.324580 -0.480837
O44   O     O_R   0.332230 0.076350 0.670880 -0.522655
O45   O     O_R   0.445660 0.919250 0.676780 -0.510637
O46   O     O_R   0.667770 0.076350 0.329120 -0.523257
O47   O     O_R   0.832230 0.576350 0.670880 -0.522860
O48   O     O_R   0.167770 0.576350 0.329120 -0.522002
O49   O     O_3   0.300998 0.491334 0.557471 -0.568097
O50   O     O_3   0.698095 0.492092 0.442904 -0.583632
O51   O     O_3   0.801005 0.991347 0.557468 -0.568060
O52   O     O_3   0.198113 0.992062 0.442898 -0.583466
O53   O     O_3   0.356685 0.480047 0.923479 -0.531127
O54   O     O_3   0.644585 0.472944 0.079675 -0.539820
O55   O     O_3   0.859919 0.987164 0.924480 -0.531815
O56   O     O_R   0.554340 0.919250 0.323220 -0.505475
O57   O     O_3   0.148394 0.963662 0.081718 -0.542966
O58   O     O_R   0.945660 0.419250 0.676780 -0.511481
O59   O     O_R   0.054340 0.419250 0.323220 -0.501017
O60   O     O_R   0.456260 0.718170 0.670000 -0.502853

loop_
_geom_bond_atom_site_label_1
_geom_bond_atom_site_label_2
_ccdc_geom_bond_type
C44   C49   S    
C43   C73   S    
C31   C66   S    
C55   O23   A    
C75   C76   A    
Cr3   O33   S    
C14   H18   S    
C14   C18   S    
C91   H62   S    
Cr11  O13   S    
C61   O48   A    
C7    C55   S    
C72   C76   A    
Cr3   O11   S    
C53   O1    A    
Cr5   O10   S    
Cr7   O39   S    
C84   H41   S    
C24   H36   S    
C15   C19   S    
C6    C19   D    
Cr6   O38   S    
C53   O31   A    
C20   O55   S    
Cr5   O37   S    
C90   H58   S    
Cr9   O56   S    
C56   C76   A    
Cr10  O11   S    
C5    C53   S    
C86   H49   S    
C31   C49   D    
C84   O49   S    
C7    H29   S    
C41   O24   A    
C10   C15   D    
C23   O16   A    
Cr12  O60   S    
C84   H40   S    
C67   C89   A    
C22   H37   S    
Cr2   O6    S    
C88   H55   S    
Cr1   O1    S    
Cr6   O11   S    
C90   O54   S    
C67   H11   S    
C85   H46   S    
Cr3   O3    S    
C31   O49   S    
Cr1   O9    S    
Cr9   O46   S    
C88   O53   S    
C35   C70   S    
C67   C77   A    
C4    H17   S    
Cr10  O20   S    
C13   H26   S    
C24   C27   D    
C88   H54   S    
C40   C72   S    
C85   O50   S    
Cr2   O28   S    
C37   C46   D    
Cr9   O24   S    
C33   C69   S    
Cr11  O48   S    
C41   C71   S    
C27   C28   S    
C1    O18   A    
Cr12  O9    S    
Cr6   O42   S    
C21   O57   S    
C22   C28   D    
C4    C56   A    
C70   O39   A    
C9    H22   S    
C25   H39   S    
C63   O2    A    
C6    C54   S    
C41   O28   A    
C10   H24   S    
C68   O37   A    
C11   H25   S    
C23   O20   A    
C91   H61   S    
C77   C79   A    
Cr11  O59   S    
C55   O33   A    
C66   O5    A    
C42   C74   S    
C65   O59   A    
C90   H57   S    
C8    H30   S    
Cr12  O31   S    
C78   H13   S    
C6    H28   S    
C60   O47   A    
Cr7   O17   S    
C78   C79   A    
Cr4   O35   S    
C40   O22   A    
C5    C18   D    
Cr7   O34   S    
C1    O14   A    
C39   C58   S    
C80   H1    S    
C3    C45   A    
C17   C21   S    
C33   C51   D    
C38   C59   S    
C25   C64   S    
C2    C89   A    
C9    C14   D    
C62   O45   A    
C29   C30   S    
C2    C78   A    
C18   O53   S    
C86   H48   S    
C8    C57   S    
C22   C62   S    
C48   H67   S    
C66   O36   A    
C11   C16   D    
C92   H64   S    
C32   O50   S    
Cr12  O5    S    
C48   C52   S    
C92   H65   S    
C16   C20   S    
C46   H56   S    
C43   O30   A    
C8    C21   D    
C37   H6    S    
C87   H50   S    
C60   O42   A    
C88   H53   S    
Cr4   O8    S    
C64   O3    A    
Cr8   O9    S    
C32   C50   D    
C38   C47   D    
C15   H19   S    
Cr10  O47   S    
Cr2   O2    S    
C33   O51   S    
C34   O21   A    
Cr3   O7    S    
C39   H8    S    
C17   H21   S    
Cr8   O45   S    
C7    C20   D    
C24   C63   S    
Cr8   O22   S    
C74   C79   A    
C65   O4    A    
C9    C34   S    
Cr12  O27   S    
C54   O12   A    
C91   H60   S    
Cr10  O25   S    
C1    C13   S    
C86   O51   S    
C36   C61   S    
C34   O17   A    
Cr7   O13   S    
C47   H66   S    
Cr5   O12   S    
C50   H2    S    
C74   C82   A    
Cr1   O40   S    
C25   C30   D    
Cr5   O15   S    
C12   O19   A    
C57   O35   A    
C64   O58   A    
Cr8   O44   S    
C73   C77   A    
C30   H35   S    
Cr4   O4    S    
C91   O55   S    
C28   H32   S    
C26   C65   S    
Cr4   O13   S    
C19   O54   S    
C42   O25   A    
Cr8   O18   S    
C61   O43   A    
C85   H43   S    
C35   C52   D    
C80   C81   A    
Cr9   O19   S    
C59   O46   A    
C49   H68   S    
C47   C51   S    
C2    H15   S    
C59   O41   A    
Cr4   O30   S    
C63   O56   A    
C40   O27   A    
C84   H42   S    
C10   C23   S    
Cr3   O29   S    
C29   H33   S    
C46   C50   S    
C62   O60   A    
C44   H45   S    
C32   C68   S    
C90   H59   S    
C45   C75   A    
C27   H31   S    
C87   O52   S    
C58   O40   A    
C16   H20   S    
C85   H44   S    
C72   C80   A    
C26   H38   S    
C35   O52   S    
Cr1   O14   S    
C71   C75   A    
C12   O15   A    
C92   H63   S    
C70   O8    A    
Cr7   O43   S    
C92   O57   S    
C54   O32   A    
C57   O34   A    
C81   H12   S    
C68   O6    A    
C73   C83   A    
Cr6   O23   S    
C43   O26   A    
C87   H51   S    
C82   H23   S    
C37   C60   S    
C36   C44   D    
C3    H16   S    
C13   C17   D    
C45   H9    S    
C5    H27   S    
Cr2   O32   S    
C89   H14   S    
C52   H4    S    
C26   C29   D    
C51   H3    S    
C82   C83   A    
C36   H5    S    
Cr10  O58   S    
C56   H10   S    
C87   H52   S    
C42   O29   A    
Cr5   O41   S    
C69   O38   A    
Cr2   O10   S    
C38   H7    S    
C86   H47   S    
Cr1   O36   S    
Cr6   O16   S    
Cr11  O26   S    
C83   H34   S    
C69   O7    A    
Cr9   O10   S    
C3    C4    A    
C11   C12   S    
Cr11  O21   S    
C39   C48   D    
C71   C81   A    
C58   O44   A    
