data_mof_unit_64683.cif
_audit_creation_date              2012-10-26T21:17:24-0400
_audit_creation_method            fapswitch 2.2
_symmetry_space_group_name_H-M    P1
_symmetry_Int_Tables_number       1
_space_group_crystal_system       triclinic
_cell_length_a                    17.747538
_cell_length_b                    16.444408
_cell_length_c                    11.724716
_cell_angle_alpha                 90.000303
_cell_angle_beta                  90.198407
_cell_angle_gamma                 90.000137
_cell_volume                      3421.81153652

loop_
_atom_site_label
_atom_site_type_symbol
_atom_type_description
_atom_site_fract_x
_atom_site_fract_y
_atom_site_fract_z
_atom_type_partial_charge
C1    C     C_R   0.355244 0.500000 0.499874 0.557605
C2    C     C_R   0.114479 0.500000 0.499658 0.107920
C3    C     C_1   0.966228 0.500000 0.500110 0.145683
C4    C     C_1   0.033772 0.500000 0.499890 0.145683
C5    C     C_R   0.499951 0.500000 0.283547 0.555590
C6    C     C_R   0.500048 0.500000 0.716453 0.555590
C7    C     C_R   0.549198 0.828902 0.570714 -0.134420
C8    C     C_R   0.450802 0.171098 0.429286 -0.134420
C9    C     C_R   0.450802 0.828901 0.429286 -0.134421
C10   C     C_R   0.549198 0.171099 0.570714 -0.134421
C11   C     C_R   0.548328 0.743072 0.569465 0.049337
C12   C     C_R   0.644756 0.500000 0.500126 0.557606
C13   C     C_R   0.451671 0.256928 0.430535 0.049337
C14   C     C_R   0.451671 0.743071 0.430536 0.049336
C15   C     C_R   0.548329 0.256929 0.569464 0.049336
C16   C     C_1   0.500000 0.962705 0.500000 -0.016480
C17   C     C_1   0.500000 0.037295 0.500000 -0.016480
C18   C     C_1   0.499960 0.499999 0.162073 -0.016798
C19   C     C_1   0.500040 0.500000 0.837927 -0.016798
C20   C     C_1   0.499983 0.500000 0.059784 -0.033146
C21   C     C_1   0.500017 0.500000 0.940216 -0.033146
C22   C     C_R   0.500000 0.873072 0.500000 0.024856
C23   C     C_R   0.767449 0.573734 0.500471 -0.141809
C24   C     C_R   0.500000 0.126928 0.500000 0.024856
C25   C     C_R   0.846550 0.574263 0.500467 0.209061
C26   C     C_R   0.153450 0.425737 0.499533 0.209061
C27   C     C_R   0.153451 0.574264 0.499641 0.209059
C28   C     C_R   0.846549 0.425736 0.500359 0.209060
C29   C     C_R   0.232551 0.426266 0.499528 -0.141809
C30   C     C_R   0.232551 0.573734 0.499640 -0.141816
C31   C     C_R   0.767449 0.426266 0.500360 -0.141816
C32   C     C_R   0.727655 0.500000 0.500320 -0.050580
C33   C     C_R   0.272345 0.500000 0.499679 -0.050580
C34   C     C_R   0.885521 0.499999 0.500342 0.107920
Cu1   Cu    Cu3+1 0.500000 0.580420 0.500000 0.948580
Cu2   Cu    Cu3+1 0.500000 0.419580 0.500000 0.948580
H1    H     H_    0.588086 0.860469 0.626628 0.104614
H2    H     H_    0.262864 0.369086 0.499441 0.125832
H3    H     H_    0.262865 0.630914 0.499648 0.125849
H4    H     H_    0.737135 0.369086 0.500352 0.125849
H5    H     H_    0.851048 0.692522 0.500642 0.328100
H6    H     H_    0.148952 0.307478 0.499358 0.328100
H7    H     H_    0.148953 0.692525 0.499621 0.328100
H8    H     H_    0.851047 0.307475 0.500379 0.328100
H9    H     H_    0.411914 0.139530 0.373372 0.104614
H10   H     H_    0.411914 0.860468 0.373372 0.104616
H11   H     H_    0.588086 0.139532 0.626627 0.104616
H12   H     H_    0.586565 0.709962 0.624453 0.123513
H13   H     H_    0.413435 0.290038 0.375547 0.123513
H14   H     H_    0.413435 0.709960 0.375547 0.123524
H15   H     H_    0.586565 0.290039 0.624452 0.123524
H16   H     H_    0.737135 0.630914 0.500559 0.125832
N1    N     N_R   0.500000 0.701220 0.500000 -0.218481
N2    N     N_R   0.500000 0.298780 0.500000 -0.218481
O1    O     O_R   0.391260 0.567930 0.500000 -0.503860
O2    O     O_3   0.113176 0.353806 0.499456 -0.667633
O3    O     O_3   0.113177 0.646196 0.499667 -0.667629
O4    O     O_3   0.886823 0.353804 0.500333 -0.667629
O5    O     O_R   0.608740 0.432070 0.500000 -0.503860
O6    O     O_R   0.608740 0.567930 0.500000 -0.503854
O7    O     O_R   0.391260 0.432070 0.500000 -0.503854
O8    O     O_R   0.500010 0.567910 0.337200 -0.495121
O9    O     O_R   0.499990 0.432090 0.662800 -0.495121
O10   O     O_R   0.499990 0.567910 0.662800 -0.495127
O11   O     O_R   0.500010 0.432090 0.337200 -0.495127
O12   O     O_3   0.886824 0.646194 0.500544 -0.667633

loop_
_geom_bond_atom_site_label_1
_geom_bond_atom_site_label_2
_ccdc_geom_bond_type
C29   H2    S    
C6    O9    A    
C2    C4    S    
C9    C14   A    
C8    C13   A    
C5    C18   S    
C28   O4    S    
Cu1   N1    S    
Cu2   O9    S    
C31   C32   A    
C11   N1    A    
C25   C34   A    
Cu2   O5    S    
C10   C24   A    
C23   C32   A    
C7    H1    S    
C1    C33   S    
C9    H10   S    
C2    C26   A    
C3    C34   S    
C14   H14   S    
C12   C32   S    
Cu1   O10   S    
C7    C11   A    
C6    C19   S    
C8    C24   A    
C23   H16   S    
C2    C27   A    
C7    C22   A    
C13   H13   S    
C19   C21   T    
C5    O8    A    
Cu1   O8    S    
C18   C20   T    
C10   C15   A    
C23   C25   A    
C1    O1    A    
C15   H15   S    
C9    C22   A    
C17   C24   S    
Cu2   N2    S    
H7    O3    S    
H5    O12   S    
C28   C34   A    
C3    C4    T    
C12   O6    A    
C15   N2    A    
C29   C33   A    
C10   H11   S    
C14   N1    A    
C1    O7    A    
C20   C21   S    
C26   C29   A    
C5    O11   A    
C13   N2    A    
C27   O3    S    
C6    O10   A    
C30   H3    S    
C8    H9    S    
Cu1   O6    S    
C16   C22   S    
C11   H12   S    
C30   C33   A    
H6    O2    S    
C31   H4    S    
Cu2   O11   S    
C12   O5    A    
Cu1   O1    S    
C28   C31   A    
C25   O12   S    
Cu2   O7    S    
H8    O4    S    
C16   C17   T    
C27   C30   A    
Cu1   Cu2   S    
C26   O2    S    
