data_mof_unit_13324.cif
_audit_creation_date              2012-12-10T18:00:16-0500
_audit_creation_method            fapswitch 2.2
_symmetry_space_group_name_H-M    P1
_symmetry_Int_Tables_number       1
_space_group_crystal_system       triclinic
_cell_length_a                    10.805777
_cell_length_b                    9.532189
_cell_length_c                    10.639874
_cell_angle_alpha                 89.885245
_cell_angle_beta                  90.145291
_cell_angle_gamma                 90.027578
_cell_volume                      1095.92999575

loop_
_atom_site_label
_atom_site_type_symbol
_atom_type_description
_atom_site_fract_x
_atom_site_fract_y
_atom_site_fract_z
_atom_type_partial_charge
C1    C     C_R   0.871460 0.499960 0.500106 -0.330375
C2    C     C_R   0.128540 0.500039 0.499894 -0.330370
C3    C     C_R   0.262393 0.499993 0.499879 0.944076
C4    C     C_R   0.737607 0.500006 0.500121 0.944076
C5    C     C_R   0.499947 0.500189 0.259199 0.828062
C6    C     C_R   0.500053 0.499811 0.740801 0.828063
C7    C     C_3   0.499064 0.633339 0.040572 -0.149060
C8    C     C_3   0.500936 0.366661 0.959428 -0.149059
C9    C     C_3   0.601181 0.567256 0.958282 -0.142564
C10   C     C_3   0.398820 0.432744 0.041718 -0.142567
C11   C     C_3   0.397902 0.565317 0.957758 -0.133513
C12   C     C_3   0.602099 0.434683 0.042242 -0.133511
C13   C     C_3   0.500017 0.499352 0.877683 -0.005217
C14   C     C_3   0.499984 0.500648 0.122316 -0.005217
C15   C     C_R   0.426189 0.074485 0.418869 0.024304
C16   C     C_R   0.573811 0.925515 0.581131 0.024302
C17   C     C_R   0.573853 0.074241 0.581102 0.012174
C18   C     C_R   0.426148 0.925759 0.418898 0.012175
C19   C     C_R   0.064172 0.420861 0.409482 0.309355
C20   C     C_R   0.935827 0.579137 0.590519 0.309355
C21   C     C_R   0.935219 0.420689 0.409671 0.316132
C22   C     C_R   0.064780 0.579311 0.590328 0.316129
Cu1   Cu    Cu3+1 0.500000 0.640660 0.500000 1.017011
Cu2   Cu    Cu3+1 0.500000 0.359340 0.500000 1.017012
H1    H     H_    0.367104 0.130496 0.353761 0.170424
H2    H     H_    0.632897 0.869504 0.646238 0.170422
H3    H     H_    0.633083 0.130088 0.646098 0.136649
H4    H     H_    0.366918 0.869912 0.353902 0.136649
H5    H     H_    0.314276 0.619062 0.921046 0.208594
H6    H     H_    0.685725 0.380938 0.078954 0.208595
H7    H     H_    0.498258 0.742739 0.076187 0.162252
H8    H     H_    0.501743 0.257261 0.923813 0.162252
H9    H     H_    0.684004 0.622610 0.921878 0.205740
H10   H     H_    0.315997 0.377390 0.078121 0.205735
N1    N     N_R   0.500000 0.852070 0.500000 -0.174045
N2    N     N_R   0.500000 0.147930 0.500000 -0.174045
O1    O     O_R   0.319640 0.618740 0.499990 -0.555063
O2    O     O_R   0.680360 0.381260 0.500010 -0.555063
O3    O     O_R   0.680360 0.618740 0.500010 -0.556495
O4    O     O_R   0.319640 0.381260 0.499990 -0.556491
O5    O     O_R   0.499970 0.618770 0.316850 -0.603279
O6    O     O_R   0.500030 0.381230 0.683150 -0.603279
O7    O     O_R   0.500030 0.618770 0.683150 -0.566401
O8    O     O_R   0.499970 0.381230 0.316850 -0.566402
Cl1   Cl    Cl    0.144205 0.326762 0.291642 -0.577933
Cl2   Cl    Cl    0.855793 0.673229 0.708370 -0.577933
Cl3   Cl    Cl    0.854373 0.325524 0.292582 -0.540830
Cl4   Cl    Cl    0.145626 0.674476 0.707415 -0.540830

loop_
_geom_bond_atom_site_label_1
_geom_bond_atom_site_label_2
_ccdc_geom_bond_type
C2    C22   A    
C15   C18   A    
C22   Cl4   S    
Cu1   Cu2   S    
C19   Cl1   S    
C1    C21   A    
C8    C13   S    
C17   N2    A    
Cu2   O6    S    
C18   N1    A    
Cu2   O2    S    
Cu1   O5    S    
C4    O3    A    
C8    C12   S    
C1    C4    S    
C12   H6    S    
C2    C3    S    
C18   H4    S    
C10   H10   S    
C6    C13   S    
C9    H9    S    
C11   C13   S    
C3    O1    A    
C5    C14   S    
Cu2   N2    S    
Cu1   O3    S    
C19   C21   A    
C5    O8    A    
C12   C14   S    
C3    O4    A    
C7    C11   S    
Cu1   N1    S    
C6    O7    A    
C16   N1    A    
C16   H2    S    
Cu2   O8    S    
C9    C12   S    
C15   H1    S    
C7    H7    S    
C10   C11   S    
C20   C22   A    
C17   H3    S    
C15   N2    A    
Cu1   O7    S    
C11   H5    S    
C8    C10   S    
C10   C14   S    
C7    C9    S    
C9    C13   S    
C1    C20   A    
C5    O5    A    
Cu2   O4    S    
C2    C19   A    
Cu1   O1    S    
C6    O6    A    
C7    C14   S    
C20   Cl2   S    
C4    O2    A    
C16   C17   A    
C21   Cl3   S    
C8    H8    S    
