data_mof_unit_39621.cif
_audit_creation_date              2012-12-10T19:07:38-0500
_audit_creation_method            fapswitch 2.2
_symmetry_space_group_name_H-M    P1
_symmetry_Int_Tables_number       1
_space_group_crystal_system       triclinic
_cell_length_a                    10.805688
_cell_length_b                    10.833554
_cell_length_c                    9.544316
_cell_angle_alpha                 90.950833
_cell_angle_beta                  89.689293
_cell_angle_gamma                 90.654109
_cell_volume                      1117.05389968

loop_
_atom_site_label
_atom_site_type_symbol
_atom_type_description
_atom_site_fract_x
_atom_site_fract_y
_atom_site_fract_z
_atom_type_partial_charge
C1    C     C_R   0.496994 0.262455 0.498959 0.812463
C2    C     C_R   0.481037 0.939405 0.626100 0.041098
C3    C     C_3   0.563592 0.934704 0.751464 -0.549443
C4    C     C_R   0.262349 0.504981 0.500270 0.807111
C5    C     C_3   0.569510 0.075172 0.747212 0.331986
C6    C     C_R   0.603761 0.534115 0.073733 0.269798
C7    C     C_R   0.402491 0.453257 0.074033 -0.081338
C8    C     C_R   0.402584 0.453184 0.925261 -0.085793
C9    C     C_R   0.604322 0.532452 0.926258 0.276334
C10   C     C_3   0.670571 0.653116 0.921025 -0.526100
C11   C     C_3   0.667899 0.656657 0.079754 -0.508340
C12   C     C_R   0.935713 0.510634 0.626125 0.105996
C13   C     C_R   0.496179 0.737757 0.500740 0.782946
C14   C     C_R   0.737731 0.503162 0.499887 0.830274
C15   C     C_R   0.062911 0.511725 0.626022 0.079233
C16   C     C_R   0.129578 0.523522 0.501129 -0.212001
C17   C     C_R   0.064973 0.557295 0.378726 0.437622
C18   C     C_R   0.935779 0.550046 0.378663 -0.293029
C19   C     C_R   0.870794 0.518811 0.500972 -0.172853
C20   C     C_3   0.174239 0.705157 0.259658 0.104356
C21   C     C_3   0.081330 0.796161 0.200645 -0.382642
C22   C     C_3   0.136069 0.926589 0.196611 -0.916564
C23   C     C_3   0.928117 0.415095 0.736843 -0.423548
C24   C     C_3   0.757126 0.084200 0.607800 0.083499
C25   C     C_3   0.881147 0.034295 0.657235 -0.351914
C26   C     C_3   0.957668 0.983970 0.534604 -0.937077
C27   C     C_3   0.068571 0.416159 0.736851 -0.465911
C28   C     C_R   0.484931 0.066456 0.623315 0.004237
C29   C     C_R   0.483311 0.129634 0.497687 -0.102860
C30   C     C_R   0.462931 0.062116 0.372798 -0.220058
C31   C     C_R   0.462076 0.933057 0.374406 -0.232842
C32   C     C_R   0.480834 0.870713 0.501061 -0.076788
Cu1   Cu    Cu3+1 0.499990 0.499980 0.640670 0.950105
Cu2   Cu    Cu3+1 0.500010 0.500020 0.359330 0.937756
H1    H     H_    0.652144 0.887091 0.729571 0.196132
H2    H     H_    0.887389 0.451600 0.836112 0.197036
H3    H     H_    0.886742 0.326875 0.697804 0.211983
H4    H     H_    0.107790 0.453851 0.836272 0.201834
H5    H     H_    0.109388 0.328016 0.698393 0.190988
H6    H     H_    0.453995 0.108186 0.273580 0.165687
H7    H     H_    0.452937 0.882862 0.275852 0.156673
H8    H     H_    0.511997 0.901840 0.844974 0.164715
H9    H     H_    0.258967 0.706945 0.193148 0.174175
H10   H     H_    0.203793 0.735796 0.366815 0.113479
H11   H     H_    0.054927 0.766350 0.092772 0.227210
H12   H     H_    0.522338 0.118869 0.838885 0.105892
H13   H     H_    0.996556 0.796948 0.266962 0.213170
H14   H     H_    0.163139 0.958257 0.303542 0.266202
H15   H     H_    0.066140 0.990862 0.155647 0.260103
H16   H     H_    0.218755 0.928970 0.126972 0.249532
H17   H     H_    0.775096 0.162595 0.536599 0.142305
H18   H     H_    0.709237 0.011506 0.544570 0.150700
H19   H     H_    0.934500 0.109060 0.711360 0.221747
H20   H     H_    0.864626 0.959131 0.733118 0.220094
H21   H     H_    0.907614 0.906195 0.481904 0.254754
H22   H     H_    0.047395 0.949641 0.573548 0.258855
H23   H     H_    0.322797 0.416749 0.129056 0.171125
H24   H     H_    0.976393 0.057784 0.457647 0.262508
H25   H     H_    0.323495 0.416043 0.869619 0.140600
H26   H     H_    0.765221 0.645013 0.875967 0.195972
H27   H     H_    0.612495 0.723892 0.874114 0.219503
H28   H     H_    0.761610 0.652319 0.125647 0.188526
H29   H     H_    0.608452 0.730937 0.124037 0.211216
H30   H     H_    0.887519 0.564554 0.281757 0.170376
N1    N     N_R   0.500790 0.500930 0.147930 -0.194800
N2    N     N_R   0.500790 0.500890 0.852020 -0.184624
O1    O     O_R   0.500000 0.319640 0.618810 -0.565944
O2    O     O_3   0.689050 0.129671 0.725223 -0.593105
O3    O     O_R   0.500010 0.319680 0.381230 -0.589384
O4    O     O_R   0.319650 0.499970 0.618810 -0.589082
O5    O     O_R   0.319660 0.500010 0.381230 -0.559314
O6    O     O_R   0.499990 0.680320 0.618770 -0.575332
O7    O     O_R   0.500000 0.680360 0.381190 -0.599626
O8    O     O_R   0.680340 0.499990 0.618770 -0.571419
O9    O     O_R   0.680350 0.500030 0.381190 -0.584346
O10   O     O_3   0.125313 0.583271 0.254145 -0.611830

loop_
_geom_bond_atom_site_label_1
_geom_bond_atom_site_label_2
_ccdc_geom_bond_type
C24   H18   S    
C22   H14   S    
C3    H8    S    
C8    N2    A    
C13   C32   S    
C11   H28   S    
C26   H21   S    
C6    C9    A    
C4    O4    A    
C7    C8    A    
C12   C23   S    
C14   O8    A    
C28   C29   A    
C25   H19   S    
C11   H29   S    
C8    H25   S    
C30   C31   A    
C27   H4    S    
C15   C16   A    
C20   O10   S    
C2    C32   A    
C18   C19   A    
C9    N2    A    
Cu1   O6    S    
C6    N1    A    
C27   H5    S    
C16   C17   A    
C17   O10   S    
C23   C27   S    
C9    C10   S    
Cu2   O9    S    
C22   H16   S    
C24   H17   S    
C21   C22   S    
C5    O2    S    
Cu2   N1    S    
C20   H10   S    
Cu1   N2    S    
Cu1   Cu2   S    
C21   H11   S    
C25   H20   S    
C6    C11   S    
C25   C26   S    
C23   H3    S    
C1    O3    A    
C4    C16   S    
C10   H26   S    
C29   C30   A    
C7    N1    A    
C5    C28   S    
C15   C27   S    
C31   C32   A    
C12   C15   A    
C3    H1    S    
C1    C29   S    
C17   C18   A    
C30   H6    S    
C24   C25   S    
C26   H24   S    
Cu2   O3    S    
Cu1   O4    S    
C22   H15   S    
C13   O7    A    
C10   H27   S    
C20   H9    S    
Cu1   O1    S    
C31   H7    S    
C14   C19   S    
C3    C5    S    
C26   H22   S    
C13   O6    A    
C5    H12   S    
C14   O9    A    
C2    C3    S    
C18   H30   S    
C12   C19   A    
C1    O1    A    
C10   C11   S    
C24   O2    S    
Cu2   O7    S    
Cu1   O8    S    
C20   C21   S    
C23   H2    S    
C2    C28   A    
Cu2   O5    S    
C7    H23   S    
C4    O5    A    
C21   H13   S    
