data_mof_unit_63711.cif
_audit_creation_date              2012-12-10T19:27:20-0500
_audit_creation_method            fapswitch 2.2
_symmetry_space_group_name_H-M    P1
_symmetry_Int_Tables_number       1
_space_group_crystal_system       triclinic
_cell_length_a                    18.857644
_cell_length_b                    18.562106
_cell_length_c                    18.768406
_cell_angle_alpha                 108.855137
_cell_angle_beta                  109.325506
_cell_angle_gamma                 109.324044
_cell_volume                      5113.1768122

loop_
_atom_site_label
_atom_site_type_symbol
_atom_type_description
_atom_site_fract_x
_atom_site_fract_y
_atom_site_fract_z
_atom_type_partial_charge
C1    C     C_R   0.378893 0.379927 0.499082 1.027175
C2    C     C_R   0.608436 0.336118 0.614890 0.435263
C3    C     C_R   0.301932 0.229866 0.469129 -0.047779
C4    C     C_R   0.619512 0.499007 0.619505 1.015206
C5    C     C_R   0.312932 0.314236 0.499715 -0.300816
C6    C     C_R   0.258689 0.334001 0.529356 0.582323
C7    C     C_R   0.192579 0.268615 0.525756 0.565515
C8    C     C_R   0.183188 0.184880 0.496660 -0.275453
C9    C     C_R   0.236458 0.165408 0.466763 -0.139737
C10   C     C_3   0.210323 0.100208 0.377853 0.113766
C11   C     C_3   0.283855 0.170864 0.381331 0.693071
C12   C     C_R   0.757977 0.580252 0.754499 -0.149737
C13   C     C_R   0.311698 0.487335 0.238013 -0.080089
C14   C     C_R   0.312485 0.498508 0.315086 -0.285983
C15   C     C_R   0.245387 0.508128 0.326803 0.581171
C16   C     C_R   0.619959 0.620197 0.500265 1.052369
C17   C     C_R   0.180302 0.506371 0.261262 0.578522
C18   C     C_R   0.183947 0.498308 0.185469 -0.286290
C19   C     C_R   0.251829 0.490338 0.177186 -0.094581
C20   C     C_3   0.290015 0.479028 0.118883 0.221633
C21   C     C_3   0.358417 0.473509 0.188713 0.243019
C22   C     C_R   0.770877 0.707898 0.545583 -0.070509
C23   C     C_R   0.815751 0.501087 0.812695 0.026167
C24   C     C_R   0.685643 0.688155 0.502527 -0.323790
C25   C     C_R   0.668091 0.748172 0.480544 0.561003
C26   C     C_R   0.732779 0.815002 0.483259 0.626318
C27   C     C_R   0.816023 0.824153 0.512788 -0.265983
C28   C     C_R   0.379544 0.499728 0.380344 0.981244
C29   C     C_R   0.835624 0.776764 0.553330 -0.155906
C30   C     C_3   0.889290 0.733094 0.552481 0.474737
C31   C     C_3   0.816128 0.655173 0.541240 0.635636
C32   C     C_R   0.001663 0.379987 0.880782 0.991701
C33   C     C_R   0.880541 0.500999 0.880305 1.056417
C34   C     C_R   0.754671 0.422057 0.734755 -0.209403
C35   C     C_R   0.002699 0.620624 0.122227 1.007018
C36   C     C_R   0.119464 0.498616 0.119138 0.962550
C37   C     C_R   0.998383 0.118323 0.619500 0.961202
C38   C     C_R   0.119179 0.118779 0.498138 0.981808
C39   C     C_R   0.997171 0.877083 0.379901 0.946856
C40   C     C_R   0.773582 0.662043 0.758080 0.545600
C41   C     C_R   0.880383 0.882252 0.503092 1.028459
C42   C     C_R   0.932537 0.230930 0.763149 -0.025786
C43   C     C_R   0.002357 0.315950 0.812568 -0.157876
C44   C     C_R   0.069394 0.338257 0.790605 0.151758
C45   C     C_R   0.682239 0.419187 0.677374 -0.213291
C46   C     C_R   0.071806 0.270725 0.731905 0.144675
C47   C     C_R   0.000250 0.186396 0.683837 -0.171985
C48   C     C_R   0.928924 0.168604 0.695851 -0.064035
C49   C     C_3   0.882643 0.096493 0.709983 1.042275
C50   C     C_3   0.889214 0.165733 0.786984 0.131354
C51   C     C_R   0.013766 0.684171 0.264844 -0.243353
C52   C     C_R   0.830047 0.739489 0.836083 -0.004921
C53   C     C_R   0.009064 0.689471 0.191282 -0.160817
C54   C     C_R   0.013307 0.765081 0.187272 0.242623
C55   C     C_R   0.988818 0.813815 0.237295 0.113178
C56   C     C_R   0.687243 0.499317 0.684391 0.023450
C57   C     C_R   0.996347 0.810310 0.313299 -0.153740
C58   C     C_R   0.014026 0.747857 0.328790 -0.163620
C59   C     C_3   0.962932 0.680659 0.345738 1.075368
C60   C     C_3   0.963049 0.611711 0.275448 1.057772
C61   C     C_R   0.871154 0.736458 0.910770 0.511910
C62   C     C_R   0.864493 0.657456 0.905831 0.477751
C63   C     C_R   0.813597 0.579593 0.825295 -0.214370
C64   C     C_R   0.762180 0.345246 0.712663 0.426209
C65   C     C_R   0.692908 0.265593 0.643299 0.484506
C66   C     C_R   0.614617 0.260183 0.598602 0.472677
F1    F     F_    0.544889 0.180869 0.538467 -0.535738
F2    F     F_    0.840043 0.642471 0.612317 -0.629338
F3    F     F_    0.799619 0.038547 0.641768 -0.569016
F4    F     F_    0.928924 0.055052 0.730896 -0.653463
F5    F     F_    0.009121 0.693081 0.427395 -0.549171
F6    F     F_    0.881547 0.670770 0.326041 -0.597464
F7    F     F_    0.009279 0.573746 0.305417 -0.528531
F8    F     F_    0.882000 0.551883 0.204371 -0.601912
F9    F     F_    0.918132 0.810595 0.987903 -0.567115
F10   F     F_    0.901862 0.655979 0.980158 -0.651313
F11   F     F_    0.837279 0.347286 0.754353 -0.637956
F12   F     F_    0.135530 0.285874 0.546736 -0.582154
F13   F     F_    0.700953 0.192810 0.620431 -0.522631
F14   F     F_    0.529471 0.327243 0.573337 -0.633367
F15   F     F_    0.265817 0.414606 0.556324 -0.542663
F16   F     F_    0.256048 0.199357 0.323185 -0.618264
F17   F     F_    0.241529 0.516819 0.399898 -0.539844
F18   F     F_    0.115344 0.514370 0.272540 -0.531610
F19   F     F_    0.737790 0.668076 0.686171 -0.623289
F20   F     F_    0.588019 0.739627 0.452860 -0.582949
F21   F     F_    0.713264 0.868058 0.454665 -0.537068
F22   F     F_    0.901021 0.716341 0.481405 -0.572954
H1    H     H_    0.950102 0.767300 0.614755 0.138887
I1    I     I_    0.219448 0.988709 0.380729 -0.185936
I2    I     I_    0.188323 0.292310 0.726088 -0.102068
I3    I     I_    0.849645 0.860720 0.841501 0.027238
I4    I     I_    0.768168 0.152994 0.775455 0.045221
I5    I     I_    0.969210 0.181544 0.909602 -0.110474
I6    I     I_    0.073489 0.821128 0.125620 -0.020113
I7    I     I_    0.902183 0.849477 0.170974 -0.033966
I8    I     I_    0.086693 0.065797 0.280428 -0.069555
I9    I     I_    0.388822 0.150763 0.379063 0.045176
I10   I     I_    0.201238 0.363096 0.996369 -0.236132
I11   I     I_    0.333003 0.591766 0.101478 -0.103297
I12   I     I_    0.354464 0.349037 0.155993 -0.102289
I13   I     I_    0.490139 0.575742 0.257830 -0.114752
I14   I     I_    0.753838 0.537256 0.420572 0.011538
I15   I     I_    0.169189 0.469562 0.841205 -0.075332
O1    O     O_R   0.408400 0.356680 0.448290 -0.569249
O2    O     O_R   0.948300 0.091670 0.539990 -0.583533
O3    O     O_R   0.143340 0.091640 0.551750 -0.609796
O4    O     O_R   0.408370 0.460100 0.551700 -0.573972
O5    O     O_R   0.039900 0.091690 0.448360 -0.586379
O6    O     O_R   0.051700 0.908430 0.460110 -0.585278
O7    O     O_R   0.948260 0.908480 0.356720 -0.615197
O8    O     O_R   0.960100 0.908410 0.551740 -0.599274
O9    O     O_R   0.856660 0.908460 0.448350 -0.569935
O10   O     O_R   0.591630 0.448290 0.539910 -0.587231
O11   O     O_R   0.591590 0.551710 0.643320 -0.612944
O12   O     O_R   0.051700 0.460090 0.908430 -0.611663
O13   O     O_R   0.591630 0.539900 0.448300 -0.637505
O14   O     O_R   0.591600 0.643320 0.551710 -0.551736
O15   O     O_R   0.408410 0.448290 0.356680 -0.615788
O16   O     O_R   0.408370 0.551710 0.460090 -0.559391
O17   O     O_R   0.948260 0.356680 0.908450 -0.594525
O18   O     O_R   0.856640 0.448300 0.908430 -0.600093
O19   O     O_R   0.960090 0.551710 0.908400 -0.593649
O20   O     O_R   0.948250 0.539920 0.091630 -0.556415
O21   O     O_R   0.051690 0.643330 0.091610 -0.604303
O22   O     O_R   0.039870 0.448310 0.091660 -0.577481
O23   O     O_R   0.143310 0.551720 0.091640 -0.616699
O24   O     O_R   0.051740 0.091620 0.643380 -0.598801
Zn1   Zn    Zn3+2 0.500020 0.430950 0.430950 1.135889
Zn2   Zn    Zn3+2 0.499980 0.569050 0.569050 1.187390
Zn3   Zn    Zn3+2 0.930910 0.430960 0.000050 1.168293
Zn4   Zn    Zn3+2 0.069050 0.569060 0.000020 1.122571
Zn5   Zn    Zn3+2 0.069070 0.000020 0.569080 1.131569
Zn6   Zn    Zn3+2 0.930930 0.000080 0.431020 1.167384

loop_
_geom_bond_atom_site_label_1
_geom_bond_atom_site_label_2
_ccdc_geom_bond_type
C8    C9    A    
C65   F13   S    
C22   C29   A    
O19   Zn4   S    
C35   C53   S    
C64   F11   S    
C4    O11   A    
C19   C20   S    
O8    Zn5   S    
C44   I15   S    
C7    C8    A    
C53   C54   A    
C61   F9    S    
C26   C27   A    
C29   C30   S    
C11   I9    S    
C3    C9    A    
C4    O10   A    
C35   O20   A    
C52   C61   A    
C30   C31   S    
C27   C29   A    
C39   C57   S    
C60   F7    S    
C18   C19   A    
C60   F8    S    
C38   O3    A    
C35   O21   A    
O23   Zn4   S    
C46   C47   A    
C39   O6    A    
C45   C56   A    
C26   F21   S    
C23   C33   S    
C41   O8    A    
C20   I11   S    
C37   C47   S    
O13   Zn1   S    
C9    C10   S    
O4    Zn2   S    
C59   F6    S    
C37   O24   A    
C21   I12   S    
C23   C63   A    
C66   F1    S    
C59   C60   S    
C2    C45   A    
C6    F15   S    
C49   F3    S    
C13   C14   A    
C4    C56   S    
C62   F10   S    
C8    C38   S    
O17   Zn3   S    
C30   H1    S    
C44   C46   A    
C11   F16   S    
C31   F2    S    
C22   C31   S    
C13   C19   A    
C3    C11   S    
C24   C25   A    
C28   O16   A    
C51   C58   A    
C12   C63   A    
C50   I5    S    
C15   F17   S    
C46   I2    S    
C2    C66   A    
C25   C26   A    
C40   C52   A    
O20   Zn3   S    
C51   C53   A    
C31   I14   S    
C40   F19   S    
C12   C40   A    
C10   I8    S    
C43   C44   A    
C62   C63   A    
O14   Zn2   S    
C16   O14   A    
C27   C41   S    
C47   C48   A    
O12   Zn4   S    
C23   C34   A    
C34   C64   A    
C17   C18   A    
C13   C21   S    
C50   I4    S    
C34   C45   A    
C42   C48   A    
C32   O12   A    
C38   O5    A    
C54   I6    S    
C12   C56   A    
C42   C50   S    
C7    F12   S    
C21   I13   S    
C48   C49   S    
C65   C66   A    
O9    Zn6   S    
C55   C57   A    
C33   O18   A    
O10   Zn1   S    
C1    C5    S    
C52   I3    S    
C36   O23   A    
C42   C43   A    
C30   F22   S    
O18   Zn3   S    
C15   C17   A    
C54   C55   A    
O5    Zn6   S    
C32   O17   A    
C36   O22   A    
C41   O9    A    
C55   I7    S    
C3    C5    A    
C28   O15   A    
O1    Zn1   S    
O7    Zn6   S    
C6    C7    A    
C49   F4    S    
C17   F18   S    
C64   C65   A    
C58   C59   S    
C37   O2    A    
O3    Zn5   S    
O24   Zn5   S    
O16   Zn2   S    
O21   Zn4   S    
C57   C58   A    
C5    C6    A    
C20   I10   S    
O22   Zn3   S    
C39   O7    A    
C25   F20   S    
O15   Zn1   S    
C32   C43   S    
C22   C24   A    
C61   C62   A    
C2    F14   S    
C10   C11   S    
C1    O4    A    
O2    Zn6   S    
C20   C21   S    
C10   I1    S    
C16   C24   S    
C49   C50   S    
C59   F5    S    
C33   O19   A    
C14   C15   A    
O6    Zn5   S    
C51   C60   S    
C14   C28   S    
C16   O13   A    
C18   C36   S    
C1    O1    A    
O11   Zn2   S    
