data_mof_unit_48842.cif
_audit_creation_date              2012-12-11T15:42:41-0500
_audit_creation_method            fapswitch 2.2
_symmetry_space_group_name_H-M    P1
_symmetry_Int_Tables_number       1
_space_group_crystal_system       triclinic
_cell_length_a                    6.931604
_cell_length_b                    14.553444
_cell_length_c                    16.201459
_cell_angle_alpha                 90.452742
_cell_angle_beta                  90.102632
_cell_angle_gamma                 89.939218
_cell_volume                      1634.3277528

loop_
_atom_site_label
_atom_site_type_symbol
_atom_type_description
_atom_site_fract_x
_atom_site_fract_y
_atom_site_fract_z
_atom_type_partial_charge
O1    O     O_R   0.505810 0.583360 0.413880 -0.542550
O2    O     O_R   0.175870 0.595480 0.585520 -0.543882
O3    O     O_R   0.005540 0.416640 0.586120 -0.517695
C1    C     C_R   0.344949 0.617519 0.614759 0.711383
O4    O     O_R   0.176100 0.594390 0.414490 -0.544652
O5    O     O_R   0.005770 0.415540 0.413870 -0.542568
C2    C     C_R   0.344835 0.616094 0.385618 0.685239
O6    O     O_R   0.505580 0.584460 0.586130 -0.541501
O7    O     O_3   0.339190 0.441320 0.500000 -0.362912
V1    V     V_3+5 0.064350 0.510890 0.500000 1.443734
O8    O     O_R   0.676050 0.404520 0.414480 -0.547023
C3    C     C_R   0.845081 0.382100 0.385712 0.680794
O9    O     O_R   0.675830 0.405610 0.585510 -0.535034
C4    C     C_R   0.844804 0.387301 0.616411 0.696211
V2    V     V_3+5 0.564340 0.489110 0.500000 1.441353
O10   O     O_3   0.839370 0.558680 0.500000 -0.377416
C5    C     C_2   0.723355 0.209526 0.785804 -0.084501
C6    C     C_2   0.886896 0.173580 0.816922 -0.280461
H1    H     H_    0.584915 0.189227 0.811047 0.143123
H2    H     H_    0.024374 0.188480 0.788056 0.132504
C7    C     C_2   0.720898 0.270482 0.712308 -0.184596
C8    C     C_2   0.857288 0.333859 0.694006 -0.162791
H3    H     H_    0.599363 0.261474 0.670606 0.146495
C9    C     C_R   0.047422 0.222948 0.219486 -0.150967
H4    H     H_    0.188256 0.204298 0.195859 0.117138
C10   C     C_R   0.036104 0.286948 0.284282 -0.143974
H5    H     H_    0.168821 0.315798 0.308411 0.118464
C11   C     C_R   0.856356 0.313360 0.317304 -0.045036
C12   C     C_R   0.688236 0.274051 0.283637 -0.151486
H6    H     H_    0.547402 0.292708 0.307260 0.115436
C13   C     C_R   0.699554 0.210050 0.218841 -0.142528
H7    H     H_    0.566838 0.181204 0.194707 0.117625
C14   C     C_R   0.879308 0.183610 0.185843 -0.047233
C15   C     C_R   0.188241 0.723198 0.719222 -0.145579
H8    H     H_    0.047357 0.705045 0.695216 0.114801
C16   C     C_R   0.199573 0.785417 0.785559 -0.143817
H9    H     H_    0.066826 0.813524 0.810276 0.117519
C17   C     C_R   0.379308 0.811197 0.819256 -0.044627
C18   C     C_R   0.547353 0.772778 0.784699 -0.138914
H10   H     H_    0.688231 0.790890 0.808736 0.117783
C19   C     C_R   0.536021 0.710563 0.718358 -0.140088
H11   H     H_    0.668763 0.682424 0.693665 0.117985
C20   C     C_R   0.356308 0.684948 0.684537 -0.049649
C21   C     C_R   0.213245 0.749876 0.305189 -0.141863
H12   H     H_    0.092254 0.754715 0.347214 0.120243
C22   C     C_R   0.227631 0.813207 0.240720 -0.130772
H13   H     H_    0.117467 0.865645 0.235262 0.148839
C23   C     C_R   0.382551 0.810025 0.184549 -0.130869
C24   C     C_R   0.524134 0.740272 0.194657 0.007914
C25   C     C_R   0.510116 0.678384 0.260570 -0.182374
H14   H     H_    0.619158 0.625460 0.267350 0.124721
C26   C     C_R   0.355770 0.682568 0.316488 -0.064148
O11   O     O_R   0.230120 0.912300 0.917180 -0.545446
O12   O     O_R   0.559740 0.902430 0.088770 -0.523270
O13   O     O_R   0.729930 0.081310 0.089370 -0.540474
C27   C     C_R   0.391283 0.879095 0.116677 0.693941
O14   O     O_R   0.559840 0.901330 0.917750 -0.543986
O15   O     O_R   0.730030 0.080210 0.917120 -0.542054
C28   C     C_R   0.390718 0.879002 0.888737 0.683330
O16   O     O_R   0.230020 0.913400 0.089430 -0.536521
O17   O     O_3   0.396460 0.055470 0.003290 -0.372619
V3    V     V_3+5 0.671360 0.985960 0.003250 1.453953
O18   O     O_R   0.059740 0.091300 0.917690 -0.543822
C29   C     C_R   0.891144 0.111248 0.888189 0.741384
O19   O     O_R   0.059640 0.092400 0.088720 -0.544885
C30   C     C_R   0.890603 0.114808 0.117488 0.696585
V4    V     V_3+5 0.171350 0.007820 0.003190 1.425707
O20   O     O_3   0.896380 0.938200 0.003220 -0.361948
C31   C     C_2   0.682862 0.726063 0.135446 0.750417
O21   O     O_2   0.675859 0.661693 0.086618 -0.552980
O22   O     O_R   0.843139 0.784059 0.137306 -0.655926
H15   H     H_    0.943393 0.766350 0.094539 0.300870
C32   C     C_2   0.009530 0.361216 0.754519 0.764004
O23   O     O_2   0.173600 0.377253 0.731050 -0.561189
O24   O     O_R   0.963399 0.371096 0.838144 -0.645753
H16   H     H_    0.078424 0.390222 0.872970 0.302885

loop_
_geom_bond_atom_site_label_1
_geom_bond_atom_site_label_2
_ccdc_geom_bond_type
O15   V3    S    
C32   O24   S    
C32   O23   D    
C1    O6    A    
O11   C28   A    
O14   V3    S    
C18   C19   A    
C10   H5    S    
C3    C11   S    
C11   C12   A    
C9    C10   A    
C2    C26   S    
O5    C3    A    
C17   C18   A    
O14   C28   A    
V2    O10   S    
O13   V3    S    
C15   H8    S    
C19   H11   S    
C31   O22   S    
O8    V2    S    
O16   V4    S    
O19   V4    S    
C25   C26   A    
C13   C14   A    
O1    V2    S    
O7    V1    S    
C6    H2    S    
C21   C26   A    
C24   C31   S    
O9    C4    A    
C19   C20   A    
C31   O21   D    
C21   C22   A    
C14   C30   S    
C5    C6    D    
O12   C27   A    
C7    H3    S    
O15   C29   A    
O18   V4    S    
V4    O20   S    
C9    H4    S    
C18   H10   S    
O4    C2    A    
O12   V3    S    
C5    C7    S    
C27   O16   A    
O2    C1    A    
O24   H16   S    
C12   H6    S    
O17   V4    S    
C13   H7    S    
C25   H14   S    
O3    C4    A    
C23   C24   A    
C24   C25   A    
O6    V2    S    
O9    V2    S    
O2    V1    S    
O13   C30   A    
C21   H12   S    
C23   C27   S    
C22   H13   S    
C16   H9    S    
O1    C2    A    
C15   C20   A    
O18   C29   A    
O5    V1    S    
O8    C3    A    
C1    C20   S    
C10   C11   A    
C9    C14   A    
V3    O20   S    
C4    C8    S    
C16   C17   A    
O7    V2    S    
O22   H15   S    
C12   C13   A    
O3    V1    S    
V1    O10   S    
C6    C29   S    
C5    H1    S    
C15   C16   A    
O17   V3    S    
O11   V4    S    
C17   C28   S    
C22   C23   A    
O4    V1    S    
O19   C30   A    
C8    C32   S    
C7    C8    D    
