data_mof_unit_18739.cif
_audit_creation_date              2012-12-10T16:53:55-0500
_audit_creation_method            fapswitch 2.2
_symmetry_space_group_name_H-M    P1
_symmetry_Int_Tables_number       1
_space_group_crystal_system       triclinic
_cell_length_a                    7.787476
_cell_length_b                    8.57688
_cell_length_c                    10.623747
_cell_angle_alpha                 91.784596
_cell_angle_beta                  84.909706
_cell_angle_gamma                 93.579758
_cell_volume                      705.172397037

loop_
_atom_site_label
_atom_site_type_symbol
_atom_type_description
_atom_site_fract_x
_atom_site_fract_y
_atom_site_fract_z
_atom_type_partial_charge
C1    C     C_R   0.545552 0.793911 0.489312 0.853108
C2    C     C_3   0.499420 0.498418 0.121410 -0.156064
C3    C     C_3   0.400133 0.343741 0.075483 0.671807
C4    C     C_3   0.689235 0.502237 0.058973 -0.381064
C5    C     C_2   0.568837 0.955532 0.465436 0.287795
C6    C     C_2   0.433408 0.041694 0.499841 -0.379456
C7    C     C_R   0.500861 0.500495 0.742034 0.980908
C8    C     C_R   0.454787 0.205342 0.498933 0.957960
C9    C     C_R   0.499695 0.500165 0.257927 0.928558
C10   C     C_3   0.415607 0.647678 0.936860 0.462125
C11   C     C_3   0.415948 0.648417 0.081894 0.151673
C12   C     C_3   0.403777 0.345455 0.928825 0.126974
C13   C     C_3   0.689704 0.503316 0.915995 -0.420814
C14   C     C_3   0.500897 0.499560 0.878289 -0.243660
H1    H     H_    0.280098 0.650617 0.912463 0.039245
H2    H     H_    0.756530 0.398881 0.085610 0.241980
H3    H     H_    0.480765 0.247374 0.888845 0.214427
H4    H     H_    0.308689 0.992639 0.539289 0.167857
H5    H     H_    0.280187 0.650405 0.124670 0.054979
H6    H     H_    0.756492 0.399973 0.874676 0.210164
H7    H     H_    0.765126 0.609639 0.879604 0.269288
H8    H     H_    0.765362 0.607730 0.091651 0.244780
N1    N     N_2   0.950330 0.457950 0.465890 0.284782
N2    N     N_2   0.049670 0.542050 0.534110 0.148069
O1    O     O_R   0.389250 0.738570 0.508370 -0.656894
O2    O     O_R   0.678390 0.711620 0.486510 -0.591412
O3    O     O_R   0.355430 0.513500 0.696140 -0.627645
O4    O     O_R   0.644580 0.486550 0.674270 -0.598675
O5    O     O_R   0.321610 0.288380 0.513490 -0.570494
O6    O     O_R   0.610750 0.261430 0.491630 -0.539815
O7    O     O_R   0.355420 0.513450 0.325730 -0.583561
O8    O     O_R   0.644570 0.486500 0.303860 -0.623133
Zn1   Zn    Zn3+2 0.306940 0.517990 0.514600 1.086687
Zn2   Zn    Zn3+2 0.693060 0.482010 0.485400 1.136674
O9    O     O_3   0.488067 0.213159 0.106736 -0.724332
H9    H     H_    0.462379 0.195830 0.198627 0.357282
O10   O     O_3   0.721641 0.018535 0.404431 -0.675378
H10   H     H_    0.799215 0.934068 0.377798 0.362213
F1    F     F_    0.030029 0.354723 0.388224 -0.510816
O11   O     O_3   0.969511 0.644289 0.612969 -0.663225
H11   H     H_    0.063163 0.699236 0.657344 0.343209
F2    F     F_    0.503085 0.781393 0.887461 -0.608326
O12   O     O_3   0.508397 0.782888 0.125570 -0.683077
H12   H     H_    0.431632 0.870973 0.124588 0.390973
O13   O     O_3   0.238427 0.315618 0.885452 -0.704892
H13   H     H_    0.170587 0.408659 0.903689 0.323032
O14   O     O_3   0.228978 0.326096 0.132601 -0.663593
H14   H     H_    0.164341 0.416616 0.113045 0.309780

loop_
_geom_bond_atom_site_label_1
_geom_bond_atom_site_label_2
_ccdc_geom_bond_type
C12   H3    S    
C4    H2    S    
C2    C4    S    
O12   H12   S    
O7    Zn1   S    
C11   O12   S    
O10   H10   S    
C5    O10   S    
C10   F2    S    
C4    H8    S    
N2    Zn1   S    
C9    O8    A    
C3    O9    S    
N1    N2    D    
N1    Zn2   S    
C8    O6    A    
C2    C3    S    
O4    Zn2   S    
C13   C14   S    
O3    Zn1   S    
C1    O1    A    
C11   H5    S    
C5    C6    D    
N1    F1    S    
C2    C11   S    
C3    O14   S    
O11   H11   S    
N2    O11   S    
C12   C14   S    
C9    O7    A    
C10   H1    S    
C1    O2    A    
C6    H4    S    
C1    C5    S    
C10   C11   S    
C8    O5    A    
C13   H7    S    
O5    Zn1   S    
C7    O3    A    
C10   C14   S    
C4    C13   S    
O6    Zn2   S    
C6    C8    S    
C3    C12   S    
C13   H6    S    
O13   H13   S    
C2    C9    S    
O2    Zn2   S    
C7    C14   S    
C7    O4    A    
O14   H14   S    
O1    Zn1   S    
C12   O13   S    
O9    H9    S    
O8    Zn2   S    
