data_mof_unit_51089.cif
_audit_creation_date              2013-03-05T16:12:32-0500
_audit_creation_method            fapswitch 2.2
_symmetry_space_group_name_H-M    P1
_symmetry_Int_Tables_number       1
_space_group_crystal_system       triclinic
_cell_length_a                    23.616992
_cell_length_b                    7.221351
_cell_length_c                    20.993737
_cell_angle_alpha                 89.983066
_cell_angle_beta                  105.022915
_cell_angle_gamma                 90.025855
_cell_volume                      3458.03940569

loop_
_atom_site_label
_atom_site_type_symbol
_atom_site_description
_atom_site_fract_x
_atom_site_fract_y
_atom_site_fract_z
_atom_type_partial_charge
O1    O     O_R   0.449110 0.494310 0.552140 -0.589512
O2    O     O_R   0.550890 0.994310 0.447860 -0.582526
O3    O     O_R   0.440010 0.824420 0.415850 -0.581926
O4    O     O_R   0.559990 0.324420 0.584150 -0.584959
C1    C     C_R   0.425463 0.656108 0.391508 1.019819
C2    C     C_R   0.574437 0.155845 0.608312 1.014811
O5    O     O_R   0.442260 0.824040 0.549660 -0.584487
O6    O     O_R   0.557740 0.324040 0.450340 -0.591768
O7    O     O_R   0.553160 0.993960 0.582620 -0.561881
O8    O     O_R   0.446840 0.493960 0.417380 -0.578875
C3    C     C_R   0.428606 0.655648 0.567516 0.988950
C4    C     C_R   0.571426 0.155728 0.432525 0.984169
O9    O     O_3   0.536380 0.660670 0.510660 -0.278329
O10   O     O_3   0.463620 0.160670 0.489340 -0.286309
V1    V     V_3+5 0.493250 0.935680 0.498020 1.261634
V2    V     V_3+5 0.506750 0.435680 0.501980 1.250517
C5    C     C_R   0.808217 0.943405 0.156109 -0.168448
C6    C     C_R   0.192879 0.444321 0.845646 -0.169280
H1    H     H_    0.775794 0.837273 0.156466 0.210918
H2    H     H_    0.225572 0.338716 0.845894 0.210445
C7    C     C_R   0.847608 0.917845 0.116937 0.375336
C8    C     C_R   0.153477 0.419494 0.884861 0.369258
C9    C     C_R   0.890500 0.055985 0.115697 -0.529639
C10   C     C_R   0.110180 0.556626 0.885222 -0.525597
C11   C     C_R   0.893955 0.210415 0.157992 0.746106
C12   C     C_R   0.106582 0.710252 0.842500 0.745064
C13   C     C_R   0.853957 0.235647 0.196983 0.200884
C14   C     C_R   0.146621 0.734888 0.803518 0.201023
C15   C     C_R   0.810575 0.100242 0.195622 -0.177887
C16   C     C_R   0.190218 0.599924 0.805419 -0.176751
C17   C     C_1   0.769879 0.113164 0.236861 0.226884
C18   C     C_1   0.230876 0.612290 0.764100 0.226207
C19   C     C_1   0.735747 0.121617 0.271082 0.143809
C20   C     C_1   0.264919 0.620646 0.729760 0.145994
C21   C     C_R   0.671844 0.966842 0.331666 0.824287
C22   C     C_R   0.331274 0.466844 0.672116 0.831214
C23   C     C_R   0.632079 0.975310 0.370936 -0.214538
C24   C     C_R   0.370839 0.475534 0.632602 -0.236572
H3    H     H_    0.615296 0.846762 0.385354 0.190136
H4    H     H_    0.389752 0.347660 0.620752 0.194696
C25   C     C_R   0.614263 0.147060 0.391188 -0.231891
C26   C     C_R   0.385911 0.646700 0.609032 -0.233790
C27   C     C_R   0.637627 0.310074 0.371034 -0.071122
C28   C     C_R   0.360008 0.808881 0.626117 -0.046469
H5    H     H_    0.625118 0.444940 0.385345 0.180653
H6    H     H_    0.370320 0.943251 0.609140 0.177521
C29   C     C_R   0.677471 0.301242 0.331850 -0.117098
C30   C     C_R   0.320312 0.799831 0.665486 -0.112558
H7    H     H_    0.694777 0.428343 0.316992 0.232029
H8    H     H_    0.300960 0.926344 0.677848 0.228250
C31   C     C_R   0.694758 0.129891 0.311898 -0.130616
C32   C     C_R   0.305773 0.629080 0.688768 -0.132512
C33   C     C_R   0.634639 0.192664 0.791938 -0.128172
C34   C     C_R   0.361450 0.758434 0.211771 -0.139051
H9    H     H_    0.617981 0.221133 0.834319 0.209669
H10   H     H_    0.377048 0.808786 0.170840 0.210999
C35   C     C_R   0.615001 0.149754 0.674447 -0.295105
C36   C     C_R   0.384574 0.655793 0.325089 -0.296148
C37   C     C_R   0.898714 0.004042 0.772077 0.597066
C38   C     C_R   0.101615 0.506315 0.228269 0.589021
C39   C     C_R   0.859643 0.966207 0.711815 0.640186
C40   C     C_R   0.137121 0.528038 0.291761 0.649208
C41   C     C_R   0.799088 0.981559 0.703452 0.076393
C42   C     C_R   0.194699 0.593048 0.302848 0.073213
C43   C     C_R   0.776875 0.062496 0.754236 -0.128900
C44   C     C_R   0.219896 0.618459 0.248595 -0.141285
C45   C     C_R   0.816988 0.086535 0.818324 -0.173587
C46   C     C_R   0.181436 0.614149 0.182925 -0.172208
C47   C     C_R   0.715971 0.112073 0.744446 0.192132
C48   C     C_R   0.281770 0.650005 0.257340 0.198087
C49   C     C_R   0.694957 0.161217 0.799596 -0.128531
C50   C     C_R   0.301662 0.716961 0.203472 -0.123317
C51   C     C_R   0.733855 0.175348 0.862258 0.250713
C52   C     C_R   0.262528 0.732380 0.140816 0.239697
C53   C     C_R   0.793635 0.138745 0.871489 0.294662
C54   C     C_R   0.204612 0.669503 0.129887 0.293620
C55   C     C_R   0.675244 0.122094 0.681398 -0.124271
C56   C     C_R   0.325138 0.609886 0.316939 -0.156851
C57   C     C_R   0.594288 0.182902 0.730394 0.328200
C58   C     C_R   0.402796 0.731196 0.271872 0.334836
C59   C     C_R   0.878806 0.052698 0.826967 -0.484846
C60   C     C_R   0.121179 0.556651 0.173233 -0.479228
H11   H     H_    0.689384 0.116116 0.636581 0.150566
H12   H     H_    0.314021 0.541822 0.357794 0.157729
O11   O     O_R   0.053190 0.709680 0.082610 -0.604398
O12   O     O_R   0.946810 0.209680 0.917390 -0.598208
O13   O     O_R   0.057740 0.380240 0.950340 -0.564123
O14   O     O_R   0.942260 0.880240 0.049660 -0.561560
C61   C     C_R   0.069570 0.547730 0.930027 1.119943
C62   C     C_R   0.930850 0.047528 0.070485 1.126413
O15   O     O_R   0.060000 0.379940 0.084150 -0.565153
O16   O     O_R   0.940000 0.879940 0.915850 -0.571912
O17   O     O_R   0.949110 0.210100 0.052140 -0.518947
O18   O     O_R   0.050890 0.710100 0.947860 -0.518435
C63   C     C_R   0.076064 0.548790 0.108113 1.163080
C64   C     C_R   0.924153 0.048528 0.891805 1.164703
O19   O     O_3   0.963630 0.543720 0.989330 -0.268799
O20   O     O_3   0.036370 0.043720 0.010670 -0.269260
V3    V     V_3+5 0.006750 0.268680 0.001980 1.388753
V4    V     V_3+5 0.993250 0.768680 0.998020 1.385152
N1    N     N_R   0.712791 0.226474 0.918165 0.260337
O21   O     O_R   0.712850 0.106423 0.964402 -0.279572
O22   O     O_R   0.696021 0.395678 0.924225 -0.298533
N2    N     N_R   0.282745 0.797809 0.085934 0.262982
O23   O     O_R   0.287203 0.684460 0.039314 -0.279396
O24   O     O_R   0.295866 0.971753 0.082148 -0.297618
F1    F     F_    0.956837 0.979054 0.778167 -0.565007
F2    F     F_    0.045578 0.448728 0.220724 -0.566843
N3    N     N_R   0.761701 0.887387 0.648050 0.256502
O25   O     O_R   0.724871 0.762901 0.657594 -0.377032
O26   O     O_R   0.769425 0.907869 0.589282 -0.296328
N4    N     N_R   0.223225 0.658321 0.367915 0.260893
O27   O     O_R   0.221512 0.561084 0.419590 -0.290180
O28   O     O_R   0.245326 0.824470 0.375939 -0.364079
F3    F     F_    0.881017 0.897114 0.662565 -0.552933
F4    F     F_    0.113468 0.498049 0.343320 -0.545396
N5    N     N_R   0.828431 0.131851 0.937502 0.195073
O29   O     O_R   0.833166 0.971999 0.966572 -0.409566
O30   O     O_R   0.836843 0.282388 0.972762 -0.340300
N6    N     N_R   0.171595 0.649305 0.063323 0.198389
O31   O     O_R   0.169348 0.485576 0.037297 -0.409446
O32   O     O_R   0.160851 0.794189 0.025228 -0.336714
N7    N     N_R   0.842690 0.750233 0.079314 0.276159
O33   O     O_R   0.791385 0.697083 0.044295 -0.262896
O34   O     O_R   0.884676 0.629000 0.094094 -0.281183
N8    N     N_R   0.158855 0.253895 0.923625 0.274169
O35   O     O_R   0.210113 0.205777 0.960160 -0.259049
O36   O     O_R   0.117962 0.128954 0.908463 -0.279000
F5    F     F_    0.937054 0.337191 0.161923 -0.566234
F6    F     F_    0.063397 0.836961 0.838227 -0.568232
N9    N     N_R   0.857853 0.398868 0.237388 0.266465
O37   O     O_R   0.908550 0.472890 0.264852 -0.216863
O38   O     O_R   0.810612 0.481502 0.243577 -0.374002
N10   N     N_R   0.142557 0.897100 0.762571 0.266632
O39   O     O_R   0.091765 0.969749 0.734666 -0.215180
O40   O     O_R   0.189714 0.980317 0.756336 -0.373607
F7    F     F_    0.687892 0.799280 0.312882 -0.688221
F8    F     F_    0.317998 0.299887 0.694224 -0.683866
N11   N     N_R   0.532897 0.211909 0.725604 0.233346
O41   O     O_R   0.492834 0.121441 0.682624 -0.412159
O42   O     O_R   0.516874 0.315778 0.768498 -0.341073
N12   N     N_R   0.463298 0.777629 0.277572 0.235114
O43   O     O_R   0.505398 0.678161 0.313925 -0.410840
O44   O     O_R   0.476557 0.908808 0.241418 -0.351735

loop_
_geom_bond_atom_site_label_1
_geom_bond_atom_site_label_2
_geom_bond_distance
_ccdc_geom_bond_type
C44   C46   1.441370 A    
C41   C43   1.429722 A    
C7    N7    1.433621 S    
N1    O21   1.301000 A    
C13   C15   1.410870 A    
C5    C15   1.396597 A    
C35   C57   1.405079 A    
C47   C55   1.422092 A    
O1    C3    1.333361 A    
C11   F5    1.355239 S    
C10   C61   1.508767 S    
C2    O7    1.330191 A    
N2    O24   1.300963 A    
C45   C53   1.418310 A    
N7    O33   1.301484 A    
C29   H7    1.082742 S    
O5    C3    1.336134 A    
C54   N6    1.420301 S    
C52   C54   1.402316 A    
C1    C36   1.476070 S    
C14   N10   1.441205 S    
C8    C10   1.425215 A    
C21   C23   1.402429 A    
C10   C12   1.415044 A    
C24   C26   1.410647 A    
N5    O30   1.301234 A    
C42   N4    1.437015 S    
C48   C56   1.426243 A    
C55   H11   1.077751 S    
O16   C64   1.333845 A    
C13   N9    1.441290 S    
C3    C26   1.495350 S    
C38   C40   1.387452 A    
C61   O18   1.340132 A    
C47   C49   1.418123 A    
N2    O23   1.301132 A    
C40   C42   1.399674 A    
N7    O34   1.298889 A    
C38   C60   1.398909 A    
N6    O32   1.301230 A    
C14   C16   1.411100 A    
C43   C45   1.441203 A    
C53   N5    1.417043 S    
C39   F3    1.357907 S    
C17   C19   1.212406 T    
C6    C16   1.397055 A    
C16   C18   1.454000 S    
O17   V3    1.970607 S    
C34   C58   1.394802 A    
C12   F6    1.356036 S    
C36   C58   1.406620 A    
C30   H8    1.082996 S    
O2    C4    1.333362 A    
O6    V2    1.988370 S    
C51   C53   1.399692 A    
C2    C35   1.468955 S    
C26   C28   1.410386 A    
N4    O28   1.301670 A    
N4    O27   1.301484 A    
C28   H6    1.082806 S    
O13   V3    1.987436 S    
C33   H9    1.081804 S    
C60   C63   1.500793 S    
C34   H10   1.081713 S    
C37   C39   1.386146 A    
C35   C55   1.406443 A    
O4    C2    1.328880 A    
C57   N11   1.442483 S    
C49   C51   1.399420 A    
C59   C64   1.498334 S    
C29   C31   1.400952 A    
N9    O38   1.301344 A    
C37   F1    1.357373 S    
C42   C44   1.426955 A    
O4    V2    2.019397 S    
C40   F4    1.357867 S    
C4    C25   1.495237 S    
O2    V1    1.970689 S    
O10   V1    1.759940 S    
O18   V4    1.971008 S    
O6    C4    1.336017 A    
C39   C41   1.399408 A    
C9    C62   1.510551 S    
O1    V2    1.971087 S    
C46   C54   1.419374 A    
N11   O42   1.301562 A    
O12   V3    2.008932 S    
C27   H5    1.082819 S    
O14   V4    1.988136 S    
O12   C64   1.334133 A    
C50   C52   1.402352 A    
O14   C62   1.335966 A    
C45   C59   1.444650 A    
C58   N12   1.442005 S    
C7    C9    1.426417 A    
C21   C31   1.402493 A    
N12   O44   1.301547 A    
C11   C13   1.413028 A    
N9    O37   1.301327 A    
C33   C49   1.410067 A    
O19   V4    1.759166 S    
O3    V1    2.019352 S    
N6    O31   1.297906 A    
O16   V4    2.019489 S    
C62   O17   1.340868 A    
C52   N2    1.436476 S    
N1    O22   1.301033 A    
N8    O36   1.299259 A    
C51   N1    1.436840 S    
C33   C57   1.394334 A    
C6    C8    1.404555 A    
C20   C32   1.451056 S    
C25   C27   1.410457 A    
C37   C59   1.397729 A    
O3    C1    1.328701 A    
C38   F2    1.356578 S    
N10   O40   1.301357 A    
N11   O41   1.301307 A    
N10   O39   1.301316 A    
C19   C31   1.450866 S    
C22   C32   1.402668 A    
C12   C14   1.412973 A    
C46   C60   1.445125 A    
N3    O26   1.301482 A    
O7    V1    2.007645 S    
C1    O8    1.333777 A    
C15   C17   1.453798 S    
O11   V4    2.008980 S    
O8    V2    2.007695 S    
N5    O29   1.296851 A    
C21   F7    1.357004 S    
C22   C24   1.402484 A    
C24   H4    1.082699 S    
O11   C63   1.333647 A    
C44   C48   1.442779 A    
C27   C29   1.402728 A    
N8    O35   1.301304 A    
C43   C47   1.444457 A    
O5    V1    1.987666 S    
C5    H1    1.084550 S    
C6    H2    1.084534 S    
C9    C11   1.414816 A    
C23   C25   1.410536 A    
C5    C7    1.404514 A    
C8    N8    1.433332 S    
C36   C56   1.408775 A    
O15   C63   1.335952 A    
C56   H12   1.078221 S    
C30   C32   1.401243 A    
C34   C50   1.409239 A    
C23   H3    1.082663 S    
O20   V3    1.759651 S    
O9    V2    1.759456 S    
O13   C61   1.335648 A    
N12   O43   1.301509 A    
C48   C50   1.417126 A    
O15   V3    2.019445 S    
N3    O25   1.301692 A    
C22   F8    1.357238 S    
C28   C30   1.402808 A    
C18   C20   1.212535 T    
C41   N3    1.436112 S    
