data_mof_unit_48385.cif
_audit_creation_date              2012-12-10T18:45:04-0500
_audit_creation_method            fapswitch 2.2
_symmetry_space_group_name_H-M    P1
_symmetry_Int_Tables_number       1
_space_group_crystal_system       triclinic
_cell_length_a                    11.176908
_cell_length_b                    10.284775
_cell_length_c                    11.474264
_cell_angle_alpha                 89.191345
_cell_angle_beta                  90.058341
_cell_angle_gamma                 92.51242
_cell_volume                      1317.59017745

loop_
_atom_site_label
_atom_site_type_symbol
_atom_type_description
_atom_site_fract_x
_atom_site_fract_y
_atom_site_fract_z
_atom_type_partial_charge
C1    C     C_R   0.262275 0.498939 0.507426 0.893239
C2    C     C_R   0.740872 0.504607 0.500446 0.868393
C3    C     C_R   0.953440 0.627188 0.539833 0.174797
C4    C     C_R   0.073652 0.609686 0.563954 0.160524
C5    C     C_R   0.583822 0.074729 0.557167 0.300221
C6    C     C_R   0.415442 0.068672 0.439595 0.199056
C7    C     C_R   0.584745 0.937040 0.552431 -0.215293
C8    C     C_R   0.415424 0.928511 0.443355 -0.142925
C9    C     C_R   0.497003 0.504154 0.261734 0.893407
C10   C     C_R   0.498449 0.504442 0.740724 0.875279
C11   C     C_R   0.471155 0.770348 0.124327 0.239380
C12   C     C_R   0.498566 0.774927 0.893078 0.232596
C13   C     C_R   0.447403 0.877358 0.061252 -0.198145
C14   C     C_R   0.507419 0.882596 0.962037 -0.246753
C15   C     C_R   0.492238 0.646156 0.942093 -0.002241
C16   C     C_R   0.489984 0.644810 0.069478 -0.010811
C17   C     C_R   0.488698 0.520992 0.130902 -0.212705
C18   C     C_R   0.488609 0.523919 0.876381 -0.206960
C19   C     C_R   0.452729 0.413255 0.066358 0.169719
C20   C     C_R   0.457707 0.414795 0.943311 0.179673
C21   C     C_R   0.061712 0.400131 0.470707 -0.226170
C22   C     C_R   0.937210 0.403640 0.469583 -0.191823
C23   C     C_R   0.877276 0.515890 0.502120 -0.105638
C24   C     C_R   0.131204 0.501635 0.517347 -0.099407
H1    H     H_    0.429522 0.968497 0.104081 0.158779
H2    H     H_    0.546430 0.972059 0.927397 0.173009
H3    H     H_    0.102811 0.316113 0.436033 0.225073
H4    H     H_    0.887747 0.317836 0.437999 0.192119
H5    H     H_    0.643465 0.898825 0.609532 0.157777
H6    H     H_    0.438119 0.981368 0.363478 0.136718
N1    N     N_R   0.500000 0.857200 0.500000 -0.132897
N2    N     N_R   0.500000 0.142810 0.500000 -0.121974
O1    O     O_R   0.316770 0.614620 0.499990 -0.625609
O2    O     O_R   0.683230 0.614620 0.500010 -0.644625
O3    O     O_R   0.316800 0.385290 0.500000 -0.575614
O4    O     O_R   0.683200 0.385290 0.500000 -0.572372
O5    O     O_R   0.500010 0.614690 0.316770 -0.638599
O6    O     O_R   0.499990 0.614690 0.683230 -0.601827
O7    O     O_R   0.500040 0.385360 0.316770 -0.597022
O8    O     O_R   0.499960 0.385360 0.683230 -0.554568
Zn1   Zn    Zn3+2 0.500000 0.653120 0.500000 0.934709
Zn2   Zn    Zn3+2 0.500000 0.346880 0.500000 1.046172
N3    N     N_2   0.377365 0.317109 0.121889 -0.291666
H7    H     H_    0.411780 0.243433 0.171833 0.267442
C25   C     C_3   0.250356 0.326311 0.103231 -0.688783
H8    H     H_    0.201243 0.241699 0.144637 0.262737
H9    H     H_    0.228354 0.326329 0.008980 0.225580
H10   H     H_    0.219350 0.417681 0.141380 0.234215
N4    N     N_2   0.418370 0.304755 0.884165 -0.284944
H11   H     H_    0.336647 0.303545 0.841318 0.222562
C26   C     C_3   0.472334 0.189933 0.918711 -0.736092
H12   H     H_    0.439703 0.124439 0.859831 0.241373
H13   H     H_    0.436558 0.150171 0.000833 0.228378
H14   H     H_    0.571629 0.200932 0.916433 0.266019
N5    N     N_2   0.515637 0.815584 0.228689 -0.305987
H15   H     H_    0.450162 0.805511 0.288897 0.264392
C27   C     C_3   0.641578 0.810486 0.253944 -0.671995
H16   H     H_    0.648826 0.798216 0.347259 0.262545
H17   H     H_    0.688324 0.903139 0.226711 0.220833
H18   H     H_    0.682764 0.726220 0.212206 0.230115
N6    N     N_2   0.486913 0.806157 0.777058 -0.236837
H19   H     H_    0.570130 0.839695 0.753642 0.215229
C28   C     C_3   0.394349 0.894117 0.749267 -0.677842
H20   H     H_    0.387616 0.917913 0.660058 0.219026
H21   H     H_    0.430402 0.987575 0.757234 0.189683
H22   H     H_    0.307420 0.870373 0.793778 0.248789
N7    N     N_2   0.929515 0.762641 0.542554 -0.324041
H23   H     H_    0.989426 0.823001 0.494364 0.253777
C29   C     C_3   0.819764 0.817710 0.543252 -0.759099
H24   H     H_    0.767123 0.765705 0.612541 0.278687
H25   H     H_    0.832814 0.921945 0.566929 0.250285
H26   H     H_    0.788103 0.817910 0.453996 0.255118
N8    N     N_2   0.135197 0.707051 0.632346 -0.306754
H27   H     H_    0.086073 0.738416 0.702835 0.240198
C30   C     C_3   0.193796 0.811757 0.567291 -0.727836
H28   H     H_    0.171690 0.910392 0.597242 0.234818
H29   H     H_    0.180235 0.804946 0.471693 0.243345
H30   H     H_    0.285615 0.797655 0.577721 0.310603
Br1   Br    Br    0.697360 0.160383 0.658840 -0.545577
Br2   Br    Br    0.276504 0.147095 0.372738 -0.594960

loop_
_geom_bond_atom_site_label_1
_geom_bond_atom_site_label_2
_ccdc_geom_bond_type
C15   C18   A    
C6    N2    A    
N5    H15   S    
C28   H21   S    
C7    H5    S    
N8    H27   S    
O4    Zn2   S    
C19   C20   A    
N3    H7    S    
C1    O1    A    
C25   H8    S    
C4    C24   A    
C27   H17   S    
C15   C16   A    
C9    O7    A    
C10   O8    A    
C29   H25   S    
O3    Zn2   S    
C3    C23   A    
C16   C17   A    
N4    C26   S    
C5    Br1   S    
C5    N2    A    
C2    O2    A    
O8    Zn2   S    
C21   H3    S    
C28   H22   S    
C22   H4    S    
C13   C14   A    
N8    C30   S    
C13   H1    S    
N6    H19   S    
O2    Zn1   S    
C19   N3    S    
O7    Zn2   S    
C25   H9    S    
C7    N1    A    
C26   H12   S    
O6    Zn1   S    
C5    C7    A    
C27   H18   S    
C6    C8    A    
N7    H23   S    
C26   H13   S    
C29   H26   S    
C30   H28   S    
C20   N4    S    
N3    C25   S    
C11   C16   A    
C6    Br2   S    
C12   C15   A    
C9    O5    A    
C14   H2    S    
C30   H29   S    
C4    N8    S    
C9    C17   S    
C12   C14   A    
N5    C27   S    
C3    C4    A    
C11   N5    S    
C1    O3    A    
C25   H10   S    
C2    O4    A    
N1    Zn1   S    
C8    N1    A    
N6    C28   S    
C3    N7    S    
C10   O6    A    
C26   H14   S    
C8    H6    S    
O1    Zn1   S    
C12   N6    S    
C11   C13   A    
C27   H16   S    
C10   C18   S    
C17   C19   A    
C18   C20   A    
O5    Zn1   S    
C29   H24   S    
C30   H30   S    
C28   H20   S    
C1    C24   S    
N4    H11   S    
C21   C24   A    
C2    C23   S    
N2    Zn2   S    
C22   C23   A    
N7    C29   S    
C21   C22   A    
