data_mof_unit_26213.cif
_audit_creation_date              2012-12-10T19:34:15-0500
_audit_creation_method            fapswitch 2.2
_symmetry_space_group_name_H-M    P1
_symmetry_Int_Tables_number       1
_space_group_crystal_system       triclinic
_cell_length_a                    13.018401
_cell_length_b                    15.846589
_cell_length_c                    17.117519
_cell_angle_alpha                 96.291509
_cell_angle_beta                  91.580428
_cell_angle_gamma                 86.535666
_cell_volume                      3502.83285903

loop_
_atom_site_label
_atom_site_type_symbol
_atom_type_description
_atom_site_fract_x
_atom_site_fract_y
_atom_site_fract_z
_atom_type_partial_charge
C1    C     C_R   0.499034 0.489672 0.348612 0.816140
C2    C     C_R   0.500978 0.510330 0.651386 0.816126
C3    C     C_R   0.504208 0.552481 0.143578 -0.195179
C4    C     C_R   0.495903 0.447585 0.856441 -0.195182
C5    C     C_R   0.497067 0.473291 0.097661 0.309549
C6    C     C_R   0.503344 0.526757 0.902342 0.309333
C7    C     C_R   0.489429 0.399142 0.135279 0.246783
C8    C     C_R   0.511143 0.600872 0.864699 0.246881
C9    C     C_R   0.490634 0.405070 0.217449 -0.226185
C10   C     C_R   0.509758 0.594927 0.782527 -0.226481
C11   C     C_R   0.442590 0.741116 0.456840 -0.064908
C12   C     C_R   0.558416 0.258409 0.542213 -0.063160
C13   C     C_R   0.427352 0.827760 0.447893 0.124713
C14   C     C_R   0.572167 0.171830 0.551965 0.124819
C15   C     C_R   0.486162 0.886786 0.493196 0.304070
C16   C     C_R   0.510537 0.113390 0.508330 0.300699
C17   C     C_R   0.558333 0.855651 0.548209 -0.324617
C18   C     C_R   0.436966 0.145079 0.454642 -0.327985
C19   C     C_R   0.571720 0.766858 0.555432 0.413029
C20   C     C_R   0.424978 0.233793 0.446871 0.407854
C21   C     C_R   0.301468 0.515783 0.500179 0.825111
C22   C     C_R   0.698671 0.484252 0.499618 0.826994
C23   C     C_R   0.810977 0.475319 0.500851 -0.123252
C24   C     C_R   0.189455 0.524932 0.499277 -0.096393
C25   C     C_R   0.031273 0.611083 0.485287 0.262377
C26   C     C_R   0.969662 0.388896 0.516109 0.271829
C27   C     C_R   0.138559 0.602441 0.486354 -0.247377
C28   C     C_R   0.861900 0.397327 0.512643 -0.223817
C29   C     C_R   0.133387 0.454921 0.510118 -0.258067
C30   C     C_R   0.867163 0.545931 0.491846 -0.242069
C31   C     C_R   0.026011 0.460865 0.507690 0.050541
C32   C     C_R   0.974396 0.539907 0.495102 0.084393
C33   C     C_R   0.497997 0.483970 0.262558 -0.087787
C34   C     C_R   0.502113 0.516045 0.737439 -0.088208
C35   C     C_R   0.504479 0.557523 0.224999 -0.243895
C36   C     C_R   0.495494 0.442525 0.775019 -0.244519
Cu1   Cu    Cu3+1 0.494970 0.415610 0.496200 0.929663
Cu2   Cu    Cu3+1 0.505030 0.584390 0.503800 0.930499
H1    H     H_    0.826878 0.605676 0.481803 0.195819
H2    H     H_    0.174284 0.395513 0.520100 0.179624
H3    H     H_    0.603004 0.899852 0.585562 0.179929
H4    H     H_    0.389588 0.101401 0.419061 0.186684
H5    H     H_    0.817118 0.343799 0.520893 0.166459
H6    H     H_    0.182014 0.656422 0.476631 0.156741
H7    H     H_    0.489724 0.380827 0.741545 0.169063
H8    H     H_    0.510020 0.619237 0.258487 0.168322
H9    H     H_    0.490580 0.389187 0.883135 0.163727
H10   H     H_    0.509385 0.610903 0.116897 0.163434
H11   H     H_    0.486544 0.347618 0.245918 0.178211
H12   H     H_    0.513938 0.652356 0.754036 0.178929
H13   H     H_    0.606321 0.302220 0.576975 0.158829
H14   H     H_    0.395897 0.697044 0.421238 0.160558
N1    N     N_2   0.495427 0.465972 0.014239 -0.267133
N2    N     N_2   0.505037 0.534084 0.985767 -0.267183
N3    N     N_R   0.512580 0.711160 0.509520 -0.217269
N4    N     N_R   0.487420 0.288840 0.490480 -0.216492
N5    N     N_2   0.470616 0.974953 0.480081 -0.209892
N6    N     N_2   0.524917 0.025249 0.521760 -0.208717
O1    O     O_R   0.495300 0.420890 0.382510 -0.596474
O2    O     O_R   0.504700 0.579110 0.617490 -0.597930
O3    O     O_R   0.503790 0.563430 0.388930 -0.594651
O4    O     O_R   0.496210 0.436570 0.611070 -0.593893
O5    O     O_R   0.345440 0.440310 0.497300 -0.590700
O6    O     O_R   0.654560 0.559690 0.502700 -0.588742
O7    O     O_R   0.353930 0.582840 0.503720 -0.593840
O8    O     O_R   0.646070 0.417160 0.496280 -0.594558
N7    N     N_2   0.643549 0.736482 0.611656 -0.427368
H15   H     H_    0.641915 0.672798 0.617423 0.293678
C37   C     C_3   0.747384 0.763332 0.608189 -0.741198
H16   H     H_    0.798083 0.730003 0.649702 0.230735
H17   H     H_    0.750317 0.832626 0.625760 0.230954
H18   H     H_    0.776875 0.747435 0.547814 0.252287
N8    N     N_2   0.350363 0.264756 0.392858 -0.432688
H19   H     H_    0.353416 0.327922 0.385249 0.291979
C38   C     C_3   0.246319 0.239208 0.399779 -0.705814
H20   H     H_    0.193245 0.274710 0.361415 0.235445
H21   H     H_    0.220808 0.253097 0.461461 0.242037
H22   H     H_    0.241349 0.170422 0.380465 0.231103
N9    N     N_2   0.981068 0.690606 0.471787 -0.451206
H23   H     H_    0.997456 0.708727 0.417639 0.252894
C39   C     C_3   0.995404 0.758219 0.534448 -0.726243
H24   H     H_    0.945408 0.814954 0.522862 0.231558
H25   H     H_    0.076671 0.776290 0.537862 0.223391
H26   H     H_    0.974304 0.737920 0.591702 0.245418
N10   N     N_2   0.022508 0.309903 0.529872 -0.448018
H27   H     H_    0.064104 0.311413 0.582109 0.245702
C40   C     C_3   0.973800 0.231071 0.506625 -0.711328
H28   H     H_    0.032283 0.177128 0.506918 0.229668
H29   H     H_    0.940338 0.230778 0.446179 0.244351
H30   H     H_    0.913188 0.222065 0.548768 0.218524
N11   N     N_2   0.483171 0.317817 0.091194 -0.430463
H31   H     H_    0.511004 0.312919 0.034972 0.263023
C41   C     C_3   0.385169 0.280068 0.094623 -0.680825
H32   H     H_    0.388854 0.216030 0.060866 0.228952
H33   H     H_    0.323282 0.320261 0.068489 0.227758
H34   H     H_    0.366397 0.272621 0.156307 0.237419
N12   N     N_2   0.517726 0.682182 0.908762 -0.430276
H35   H     H_    0.490211 0.687117 0.965081 0.262873
C42   C     C_3   0.615718 0.719865 0.904984 -0.681242
H36   H     H_    0.612278 0.783879 0.938786 0.228878
H37   H     H_    0.634104 0.727359 0.843234 0.237787
H38   H     H_    0.677747 0.679603 0.930869 0.227616
N13   N     N_2   0.646103 0.144562 0.608346 -0.421173
H39   H     H_    0.667443 0.190823 0.651954 0.238649
C43   C     C_3   0.731036 0.087753 0.578453 -0.645713
H40   H     H_    0.805235 0.117148 0.593766 0.198281
H41   H     H_    0.726238 0.072868 0.513464 0.231048
H42   H     H_    0.730769 0.027540 0.605971 0.232408
N14   N     N_2   0.352961 0.855102 0.392105 -0.414917
H43   H     H_    0.342152 0.810765 0.344210 0.241297
C44   C     C_3   0.256345 0.888816 0.425902 -0.677733
H44   H     H_    0.218246 0.838383 0.452708 0.208894
H45   H     H_    0.204678 0.911979 0.379134 0.223595
H46   H     H_    0.268789 0.943096 0.471310 0.246824

loop_
_geom_bond_atom_site_label_1
_geom_bond_atom_site_label_2
_ccdc_geom_bond_type
C40   H28   S    
C4    C36   A    
C41   H32   S    
N8    C38   S    
N8    H19   S    
C44   H44   S    
C24   C27   A    
C20   N4    A    
C12   H13   S    
Cu1   O4    S    
C14   N13   S    
C1    C33   S    
N1    N2    D    
C43   H41   S    
C5    N1    S    
C18   H4    S    
C33   C35   A    
C2    O2    A    
C3    H10   S    
C15   C17   A    
C37   H17   S    
C24   C29   A    
C22   O8    A    
C13   N14   S    
C11   H14   S    
N14   C44   S    
C17   C19   A    
Cu1   O5    S    
Cu1   N4    S    
C27   H6    S    
N13   C43   S    
Cu2   N3    S    
C42   H36   S    
C20   N8    S    
C19   N7    S    
C18   C20   A    
Cu2   O3    S    
C2    C34   S    
C25   C32   A    
C26   C31   A    
C41   H33   S    
C9    C33   A    
C15   N5    S    
C6    N2    S    
N12   C42   S    
N12   H35   S    
Cu2   O6    S    
N10   C40   S    
C43   H42   S    
N7    H15   S    
C10   C34   A    
C23   C30   A    
C9    H11   S    
C4    C6    A    
N11   H31   S    
N9    C39   S    
C6    C8    A    
N10   H27   S    
C39   H24   S    
N7    C37   S    
C37   H18   S    
C38   H20   S    
Cu1   Cu2   S    
N11   C41   S    
C31   C32   A    
Cu2   O7    S    
C3    C35   A    
C7    N11   S    
Cu1   O8    S    
C36   H7    S    
C44   H45   S    
C16   N6    S    
C23   C28   A    
C38   H21   S    
Cu1   O1    S    
Cu2   O2    S    
C16   C18   A    
C42   H37   S    
C12   C14   A    
C41   H34   S    
C13   C15   A    
C14   C16   A    
C40   H30   S    
C10   H12   S    
C39   H26   S    
C11   N3    A    
C5    C7    A    
C19   N3    A    
C7    C9    A    
C21   O7    A    
C25   N9    S    
C26   N10   S    
C3    C5    A    
C1    O3    A    
C39   H25   S    
C25   C27   A    
C43   H40   S    
C28   H5    S    
C26   C28   A    
C1    O1    A    
C29   C31   A    
N14   H43   S    
C30   C32   A    
C11   C13   A    
N5    N6    D    
C8    N12   S    
C29   H2    S    
C12   N4    A    
C30   H1    S    
C44   H46   S    
C34   C36   A    
C37   H16   S    
C38   H22   S    
C17   H3    S    
C21   O5    A    
C22   O6    A    
N9    H23   S    
C42   H38   S    
C8    C10   A    
C21   C24   S    
N13   H39   S    
C40   H29   S    
C22   C23   S    
C35   H8    S    
C2    O4    A    
C4    H9    S    
