data_mof_unit_51524.cif
_audit_creation_date              2013-03-05T16:11:50-0500
_audit_creation_method            fapswitch 2.2
_symmetry_space_group_name_H-M    P1
_symmetry_Int_Tables_number       1
_space_group_crystal_system       triclinic
_cell_length_a                    10.775439
_cell_length_b                    9.710574
_cell_length_c                    23.47752
_cell_angle_alpha                 90.284532
_cell_angle_beta                  89.27738
_cell_angle_gamma                 89.850045
_cell_volume                      2456.35220096

loop_
_atom_site_label
_atom_site_type_symbol
_atom_site_description
_atom_site_fract_x
_atom_site_fract_y
_atom_site_fract_z
_atom_type_partial_charge
O1    O     O_R   0.317570 0.620260 0.500030 -0.609314
O2    O     O_R   0.317570 0.379740 0.500030 -0.620009
C1    C     C_R   0.260522 0.499903 0.501068 0.749929
O3    O     O_R   0.499840 0.620290 0.417900 -0.575168
O4    O     O_R   0.499840 0.379710 0.417900 -0.577116
C2    C     C_R   0.498952 0.500029 0.391236 0.806102
Cu1   Cu    Cu3+1 0.499860 0.642410 0.500030 0.924435
Cu2   Cu    Cu3+1 0.499860 0.357590 0.500030 0.919239
O5    O     O_R   0.682190 0.620260 0.500010 -0.587064
O6    O     O_R   0.682190 0.379740 0.500010 -0.589914
O7    O     O_R   0.499920 0.620230 0.582140 -0.567952
O8    O     O_R   0.499920 0.379770 0.582140 -0.570681
C3    C     C_R   0.739000 0.499655 0.501004 0.786154
C4    C     C_R   0.502497 0.500690 0.608350 0.768871
C5    C     C_R   0.553745 0.620083 0.880310 0.533389
N1    N     N_R   0.538652 0.500155 0.850217 -0.471080
C6    C     C_R   0.524813 0.376164 0.877204 0.535610
C7    C     C_R   0.523891 0.369700 0.936913 -0.013979
C8    C     C_R   0.536798 0.492465 0.968464 -0.016118
C9    C     C_R   0.552683 0.618818 0.940065 -0.013536
C10   C     C_R   0.508451 0.244172 0.965688 -0.161024
C11   C     C_R   0.504239 0.240808 0.025108 -0.162140
C12   C     C_R   0.515362 0.362900 0.056989 -0.017856
C13   C     C_R   0.532556 0.489083 0.028553 -0.018728
C14   C     C_R   0.544472 0.612096 0.060052 -0.020603
C15   C     C_R   0.561728 0.737327 0.031325 -0.160143
C16   C     C_R   0.565764 0.740661 0.971942 -0.163176
C17   C     C_R   0.508459 0.362683 0.116739 0.538041
N2    N     N_R   0.518317 0.483527 0.146574 -0.465535
C18   C     C_R   0.537578 0.606621 0.119662 0.542685
O9    O     O_2   0.569693 0.740096 0.852444 -0.522325
O10   O     O_2   0.509845 0.259876 0.846356 -0.521647
H1    H     H_    0.498689 0.148274 0.942421 0.189371
H2    H     H_    0.491407 0.142455 0.045920 0.186188
O11   O     O_2   0.490959 0.243254 0.144816 -0.520084
O12   O     O_2   0.549176 0.723293 0.150603 -0.514875
H3    H     H_    0.571247 0.833267 0.054588 0.189541
H4    H     H_    0.578232 0.839089 0.951145 0.186350
C19   C     C_R   0.613321 0.452553 0.238864 -0.171224
H5    H     H_    0.698948 0.427064 0.216344 0.154989
C20   C     C_R   0.611555 0.462492 0.298070 -0.055996
C21   C     C_R   0.501762 0.499579 0.327803 -0.166691
C22   C     C_R   0.396212 0.536527 0.295664 -0.061399
C23   C     C_R   0.397844 0.523810 0.235578 0.165386
C24   C     C_R   0.507980 0.482051 0.207551 0.329606
C25   C     C_R   0.433317 0.572715 0.763134 -0.084822
H6    H     H_    0.362643 0.623769 0.788811 0.147515
C26   C     C_R   0.424309 0.573233 0.703964 -0.233749
H7    H     H_    0.347641 0.626803 0.684772 0.140279
C27   C     C_R   0.512863 0.503444 0.670378 -0.006346
C28   C     C_R   0.615021 0.441420 0.696319 -0.170235
H8    H     H_    0.688634 0.395778 0.670729 0.146383
C29   C     C_R   0.624331 0.441073 0.755523 -0.085484
H9    H     H_    0.702830 0.391402 0.775241 0.147854
C30   C     C_R   0.532463 0.505048 0.789220 0.336929
C31   C     C_3   0.067750 0.481975 0.564711 -0.018999
C32   C     C_3   0.071532 0.373171 0.466867 -0.054921
H10   H     H_    0.086464 0.374314 0.578499 0.145608
H11   H     H_    0.111180 0.276234 0.484284 0.151326
C33   C     C_3   0.924055 0.502780 0.564517 -0.385934
C34   C     C_3   0.929193 0.364315 0.474416 -0.359616
H12   H     H_    0.878968 0.420486 0.590264 0.139378
H13   H     H_    0.906824 0.275040 0.502324 0.141267
H14   H     H_    0.897268 0.603089 0.584345 0.202125
H15   H     H_    0.883299 0.341379 0.433814 0.229358
H16   H     H_    0.092759 0.723711 0.505242 0.169690
H17   H     H_    0.113286 0.657682 0.435719 0.201402
H18   H     H_    0.887636 0.723192 0.487941 0.173191
H19   H     H_    0.905296 0.620815 0.424776 0.207486
C35   C     C_3   0.069942 0.634906 0.477288 -0.378517
C36   C     C_3   0.121533 0.498745 0.502375 0.154184
C37   C     C_3   0.877095 0.498423 0.502404 0.077037
C38   C     C_3   0.929022 0.626313 0.470629 -0.364469
C39   C     C_3   0.610085 0.081676 0.531687 -0.129578
C40   C     C_3   0.617229 0.917993 0.525123 -0.131866
H20   H     H_    0.697129 0.123283 0.512912 0.110683
H21   H     H_    0.695642 0.897960 0.495082 0.085659
C41   C     C_3   0.383731 0.082513 0.528664 0.128622
C42   C     C_3   0.390568 0.918186 0.534100 0.111309
C43   C     C_3   0.502577 0.083994 0.440237 0.160651
C44   C     C_3   0.491123 0.914405 0.440881 0.140209
N3    N     N_3   0.500250 0.143650 0.501250 -0.183992
N4    N     N_3   0.500250 0.856350 0.501250 -0.186354
H22   H     H_    0.304868 0.101714 0.499849 0.116747
H23   H     H_    0.303738 0.879636 0.515118 0.136503
C45   C     C_3   0.127885 0.574699 0.609602 -0.907190
H24   H     H_    0.084989 0.555241 0.652065 0.251024
H25   H     H_    0.227724 0.549221 0.612394 0.212695
H26   H     H_    0.116284 0.685361 0.599529 0.243166
C46   C     C_3   0.108154 0.375958 0.403291 -0.820191
H27   H     H_    0.056848 0.457385 0.380613 0.283995
H28   H     H_    0.208756 0.394422 0.397489 0.222051
H29   H     H_    0.085829 0.275427 0.383153 0.240746
C47   C     C_1   0.618590 0.125113 0.591787 0.308565
N5    N     N_1   0.627385 0.154655 0.639339 -0.298481
C48   C     C_1   0.661891 0.846669 0.576495 0.327460
N6    N     N_1   0.698747 0.792413 0.616728 -0.298351
C49   C     C_3   0.333774 0.153246 0.584136 -0.750717
H30   H     H_    0.390553 0.132070 0.621946 0.252361
H31   H     H_    0.317272 0.263746 0.581908 0.262292
H32   H     H_    0.238401 0.115414 0.593138 0.163153
C50   C     C_3   0.371202 0.863431 0.595562 -0.759433
H33   H     H_    0.452441 0.876581 0.623204 0.254683
H34   H     H_    0.291449 0.912088 0.617779 0.186905
H35   H     H_    0.337257 0.757082 0.594541 0.248882
C51   C     C_3   0.399694 0.149162 0.399870 -0.756633
H36   H     H_    0.337524 0.084756 0.374822 0.194401
H37   H     H_    0.336401 0.218680 0.423141 0.253217
H38   H     H_    0.440254 0.203084 0.362323 0.232644
C52   C     C_3   0.367427 0.863602 0.412596 -0.781773
H39   H     H_    0.284570 0.923134 0.426655 0.176025
H40   H     H_    0.374108 0.865851 0.365256 0.230541
H41   H     H_    0.338504 0.760289 0.423671 0.281725
C53   C     C_1   0.622367 0.128440 0.412882 0.281258
N7    N     N_1   0.714940 0.161542 0.391593 -0.301821
C54   C     C_1   0.593041 0.856590 0.403889 0.324641
N8    N     N_1   0.672389 0.813249 0.375209 -0.280622
C55   C     C_1   0.729072 0.452056 0.325598 0.310409
N9    N     N_1   0.825876 0.445789 0.345783 -0.330154
C56   C     C_1   0.288530 0.598762 0.322118 0.219964
N10   N     N_1   0.200859 0.651676 0.340759 -0.332407
C57   C     C_3   0.282731 0.557259 0.201799 -0.765608
H42   H     H_    0.293375 0.534547 0.155685 0.225786
H43   H     H_    0.203574 0.494821 0.217807 0.230696
H44   H     H_    0.259715 0.668236 0.206718 0.247072

loop_
_geom_bond_atom_site_label_1
_geom_bond_atom_site_label_2
_geom_bond_distance
_ccdc_geom_bond_type
Cu1   N4    2.077551 S    
C7    C10   1.405817 A    
C20   C21   1.411057 A    
C39   C47   1.474708 S    
C8    C9    1.409131 A    
C53   N7    1.157104 T    
Cu1   Cu2   2.765765 S    
C19   C20   1.392772 A    
C4    C27   1.462060 S    
C29   H9    1.082768 S    
C23   C24   1.407460 A    
Cu1   O7    1.940802 S    
C15   C16   1.394856 A    
C39   H20   1.109323 S    
Cu2   N3    2.077814 S    
C17   N2    1.368688 A    
O4    C2    1.328315 A    
O7    C4    1.316915 A    
C45   H25   1.106081 S    
C32   H11   1.114414 S    
C10   H1    1.083307 S    
C51   H36   1.092800 S    
C33   C37   1.549981 S    
C16   H4    1.083339 S    
C5    N1    1.370236 A    
C43   C51   1.598882 S    
C54   N8    1.158594 T    
C50   H35   1.096729 S    
C33   H12   1.113315 S    
C7    C8    1.408517 A    
C34   H13   1.114321 S    
O5    C3    1.320500 A    
C55   N9    1.152726 T    
C52   H39   1.108256 S    
C31   C45   1.533706 S    
C17   O11   1.349309 S    
N1    C6    1.370940 A    
C25   C30   1.401783 A    
C41   C49   1.558590 S    
C12   C13   1.409826 A    
C42   C50   1.552118 S    
H19   C38   1.110650 S    
C35   C36   1.554451 S    
C20   C55   1.432510 S    
C22   C56   1.439349 S    
C19   C24   1.390095 A    
C26   C27   1.401377 A    
C10   C11   1.395747 A    
C50   H33   1.103555 S    
C39   N3    1.515055 S    
O3    Cu1   1.939080 S    
C44   N4    1.532128 S    
C40   C48   1.478881 S    
C27   C28   1.400894 A    
C29   C30   1.401384 A    
C5    C9    1.402902 A    
C11   H2    1.083339 S    
C25   C26   1.393813 A    
C39   C40   1.597715 S    
C28   H8    1.081701 S    
C13   C14   1.408799 A    
C43   N3    1.542343 S    
C32   C46   1.539458 S    
C19   H5    1.085037 S    
C41   C42   1.603009 S    
C43   C44   1.651882 S    
C14   C15   1.405126 A    
C5    O9    1.349629 S    
O6    C3    1.317207 A    
C31   C33   1.561042 S    
N2    C24   1.434658 S    
C28   C29   1.394865 A    
C1    C36   1.497668 S    
C22   C23   1.415331 A    
N2    C18   1.369874 A    
C34   H15   1.101434 S    
C41   N3    1.526563 S    
C46   H28   1.106062 S    
Cu2   O8    1.938676 S    
C31   C36   1.576577 S    
C48   N6    1.157946 T    
C35   C38   1.530912 S    
C6    C7    1.403426 A    
C12   C17   1.403839 A    
C32   C36   1.573794 S    
C50   H34   1.103608 S    
C40   H21   1.109933 S    
C52   H41   1.083227 S    
C34   C37   1.556017 S    
O3    C2    1.322385 A    
C26   H7    1.079622 S    
C3    C37   1.488833 S    
C43   C53   1.499878 S    
C49   H31   1.088813 S    
C21   C22   1.419101 A    
C57   H43   1.110528 S    
C42   H23   1.106729 S    
C56   N10   1.154465 T    
C45   H24   1.110812 S    
C46   H29   1.110819 S    
C14   C18   1.401807 A    
Cu1   O5    1.975860 S    
C25   H6    1.082864 S    
O1    Cu1   1.976554 S    
O2    Cu2   1.975435 S    
O8    C4    1.323482 A    
C37   C38   1.553773 S    
C45   H26   1.108544 S    
O4    Cu2   1.941201 S    
C15   H3    1.083333 S    
C32   C34   1.544420 S    
C9    C16   1.405193 A    
C49   H32   1.110419 S    
C18   O12   1.349724 S    
C33   H14   1.113308 S    
H17   C35   1.100298 S    
C57   H44   1.110323 S    
C8    C13   1.411431 A    
H18   C38   1.112890 S    
N1    C30   1.435469 S    
C42   N4    1.523442 S    
C40   N4    1.509883 S    
C46   H27   1.106188 S    
H16   C35   1.111031 S    
C51   H37   1.097214 S    
C44   C54   1.497786 S    
C23   C57   1.516001 S    
C31   H10   1.114598 S    
O2    C1    1.317425 A    
C47   N5    1.156398 T    
C52   H40   1.113154 S    
C41   H22   1.108811 S    
C44   C52   1.575900 S    
Cu2   O6    1.976979 S    
C49   H30   1.104281 S    
C2    C21   1.489139 S    
C6    O10   1.349610 S    
C11   C12   1.405120 A    
O1    C1    1.322150 A    
C57   H42   1.108280 S    
C51   H38   1.112789 S    
