data_mof_unit_45581.cif
_audit_creation_date              2012-10-26T20:40:14-0400
_audit_creation_method            fapswitch 2.2
_symmetry_space_group_name_H-M    P1
_symmetry_Int_Tables_number       1
_space_group_crystal_system       triclinic
_cell_length_a                    15.093291
_cell_length_b                    10.819167
_cell_length_c                    9.687002
_cell_angle_alpha                 91.126357
_cell_angle_beta                  90.009159
_cell_angle_gamma                 92.575216
_cell_volume                      1579.95304989

loop_
_atom_site_label
_atom_site_type_symbol
_atom_type_description
_atom_site_fract_x
_atom_site_fract_y
_atom_site_fract_z
_atom_type_partial_charge
C1    C     C_R   0.501501 0.262044 0.499066 0.618845
C2    C     C_R   0.183202 0.394693 0.453780 0.183237
C3    C     C_R   0.233482 0.499647 0.501427 -0.000232
C4    C     C_R   0.329650 0.498888 0.500103 0.508729
C5    C     C_R   0.192379 0.603428 0.557777 0.219218
C6    C     C_R   0.563353 0.119815 0.736334 -0.045254
C7    C     C_R   0.558319 0.067455 0.867725 0.303135
C8    C     C_R   0.509920 0.954426 0.883238 0.348373
C9    C     C_R   0.477430 0.890398 0.766088 -0.046979
C10   C     C_R   0.489640 0.938701 0.632546 -0.078108
C11   C     C_R   0.518606 0.062732 0.621551 -0.039586
C12   C     C_R   0.910841 0.610371 0.551164 0.077020
C13   C     C_R   0.499084 0.125908 0.498613 0.042257
C14   C     C_R   0.461037 0.059785 0.383886 0.276666
C15   C     C_R   0.448297 0.930499 0.389193 0.215749
C16   C     C_R   0.489484 0.735888 0.502233 0.494590
C17   C     C_R   0.472030 0.868889 0.509707 -0.038275
C18   C     C_R   0.645552 0.611096 0.140842 0.006162
C19   C     C_R   0.727704 0.584846 0.078840 0.255478
C20   C     C_R   0.728951 0.572242 0.934271 0.299936
C21   C     C_R   0.650607 0.595847 0.864105 0.070379
C22   C     C_R   0.570348 0.555617 0.927208 0.030992
C23   C     C_R   0.946676 0.282518 0.446931 -0.105810
C24   C     C_R   0.569311 0.557812 0.074974 0.014813
C25   C     C_R   0.434737 0.439282 0.074626 0.380167
C26   C     C_R   0.434805 0.439098 0.925471 0.115535
C27   C     C_R   0.670771 0.502970 0.500233 0.534306
C28   C     C_R   0.818274 0.614724 0.525687 0.000776
C29   C     C_R   0.767879 0.503142 0.502173 -0.027972
C30   C     C_R   0.810076 0.392307 0.473900 0.004018
C31   C     C_R   0.903387 0.392049 0.475494 -0.019764
C32   C     C_R   0.954015 0.500713 0.514318 0.018785
C33   C     C_2   0.776813 0.733297 0.491741 0.285898
C34   C     C_R   0.038589 0.278961 0.447756 0.036077
C35   C     C_2   0.638519 0.738722 0.196807 0.287076
C36   C     C_2   0.654194 0.717535 0.798419 0.321010
C37   C     C_2   0.756652 0.278598 0.433414 0.249746
C38   C     C_2   0.366178 0.363626 0.850939 0.277369
C39   C     C_2   0.076896 0.154812 0.437282 0.318876
C40   C     C_2   0.104097 0.836962 0.621326 0.311946
C41   C     C_2   0.920060 0.814949 0.686852 0.300193
C42   C     C_R   0.090452 0.390039 0.472012 0.019306
C43   C     C_R   0.047844 0.499550 0.514440 -0.048064
C44   C     C_R   0.098860 0.607953 0.554766 0.049928
C45   C     C_R   0.054941 0.716417 0.596149 0.015791
C46   C     C_R   0.961836 0.713174 0.607395 0.012067
Cu1   Cu    Cu3+1 0.499990 0.499990 0.640660 0.973303
Cu2   Cu    Cu3+1 0.500010 0.500010 0.359340 1.063231
H1    H     H_    0.602130 0.205394 0.726004 0.179057
H2    H     H_    0.792875 0.601927 0.249354 0.343504
H3    H     H_    0.855060 0.543347 0.923048 0.377916
H4    H     H_    0.642880 0.726067 0.690328 0.116921
H5    H     H_    0.771659 0.228377 0.338826 0.143288
H6    H     H_    0.302261 0.401564 0.830464 0.107205
H7    H     H_    0.137414 0.136274 0.491953 0.178963
H8    H     H_    0.285530 0.294658 0.408982 0.362148
H9    H     H_    0.300024 0.710185 0.574953 0.330120
H10   H     H_    0.097530 0.886517 0.718996 0.099145
H11   H     H_    0.946012 0.909777 0.680534 0.116040
H12   H     H_    0.439341 0.804959 0.782393 0.184989
H13   H     H_    0.404152 0.067985 0.201616 0.394280
H14   H     H_    0.908991 0.196291 0.428891 0.168155
H15   H     H_    0.705575 0.739655 0.490710 0.099358
H16   H     H_    0.626634 0.205822 0.952983 0.326765
H17   H     H_    0.523432 0.954854 0.082823 0.391319
H18   H     H_    0.374025 0.794876 0.313116 0.352949
H19   H     H_    0.321174 0.344272 0.089315 0.323956
H20   H     H_    0.574685 0.779494 0.202976 0.183710
N1    N     N_R   0.500860 0.501210 0.147910 -0.211120
N2    N     N_R   0.500890 0.501290 0.852040 -0.278186
O1    O     O_R   0.499990 0.319640 0.618810 -0.488696
O2    O     O_3   0.597475 0.126419 0.981541 -0.660915
O3    O     O_3   0.495793 0.900835 0.009712 -0.664420
O4    O     O_3   0.408873 0.867562 0.278187 -0.673810
O5    O     O_3   0.371065 0.373612 0.149173 -0.604523
O6    O     O_2   0.704220 0.804651 0.223527 -0.420049
O7    O     O_3   0.806751 0.596265 0.150025 -0.648136
O8    O     O_3   0.806293 0.562647 0.859700 -0.645303
O9    O     O_2   0.674484 0.810899 0.866199 -0.437849
O10   O     O_2   0.697470 0.238420 0.507717 -0.517278
O11   O     O_2   0.378583 0.255986 0.819804 -0.491814
O12   O     O_R   0.500000 0.319660 0.381240 -0.394569
O13   O     O_2   0.039855 0.070759 0.370226 -0.433986
O14   O     O_3   0.222229 0.298209 0.384012 -0.679895
O15   O     O_3   0.242410 0.697995 0.622568 -0.665267
O16   O     O_2   0.150086 0.883222 0.530595 -0.436470
O17   O     O_2   0.857061 0.793345 0.762691 -0.404662
O18   O     O_3   0.434598 0.124248 0.269894 -0.621190
O19   O     O_R   0.370250 0.499960 0.618800 -0.517366
O20   O     O_R   0.370260 0.499980 0.381230 -0.445260
O21   O     O_R   0.500000 0.680340 0.618760 -0.554936
O22   O     O_R   0.500010 0.680360 0.381190 -0.521159
O23   O     O_R   0.629740 0.500020 0.618770 -0.507618
O24   O     O_R   0.629750 0.500040 0.381200 -0.525663
O25   O     O_2   0.821332 0.822055 0.450350 -0.420583

loop_
_geom_bond_atom_site_label_1
_geom_bond_atom_site_label_2
_ccdc_geom_bond_type
C27   C29   S    
C25   N1    A    
C2    O14   S    
C19   C20   A    
C34   C42   A    
Cu2   N1    S    
C7    C8    A    
C21   C36   S    
C45   C46   A    
C1    O1    A    
Cu2   O24   S    
C12   C28   A    
C18   C24   A    
C28   C29   A    
C30   C31   A    
C10   C17   A    
H18   O4    S    
H17   O3    S    
C18   C19   A    
C40   O16   D    
C19   O7    S    
C23   H14   S    
C39   H7    S    
C31   C32   A    
Cu2   O12   S    
C8    C9    A    
C41   C46   S    
C18   C35   S    
C36   H4    S    
C5    O15   S    
Cu2   O20   S    
C21   C22   A    
C12   C32   A    
Cu1   O19   S    
C33   O25   D    
C24   N1    A    
H8    O14   S    
C4    O20   A    
C40   C45   S    
C41   O17   D    
C37   O10   D    
C35   O6    D    
C40   H10   S    
C34   C39   S    
C41   H11   S    
C12   C46   A    
C6    C11   A    
C26   C38   S    
C14   O18   S    
C1    O12   A    
C30   C37   S    
C25   O5    S    
C23   C31   A    
C43   C44   A    
Cu1   N2    S    
C29   C30   A    
H13   O18   S    
Cu1   Cu2   S    
C38   H6    S    
C33   H15   S    
C23   C34   A    
Cu1   O23   S    
Cu1   O1    S    
C5    C44   A    
C28   C33   S    
C16   O22   A    
C38   O11   D    
C26   N2    A    
C22   C24   A    
C27   O23   A    
C1    C13   S    
C42   C43   A    
C3    C4    S    
H2    O7    S    
C7    O2    S    
C44   C45   A    
C4    O19   A    
C9    C10   A    
C15   C17   A    
Cu1   O21   S    
C3    C5    A    
C36   O9    D    
C6    C7    A    
C20   O8    S    
C9    H12   S    
C2    C3    A    
C25   C26   A    
H3    O8    S    
C37   H5    S    
C11   C13   A    
C16   C17   S    
C35   H20   S    
C2    C42   A    
C8    O3    S    
C32   C43   A    
H9    O15   S    
H16   O2    S    
C6    H1    S    
C10   C11   A    
C39   O13   D    
C15   O4    S    
H19   O5    S    
C20   C21   A    
C16   O21   A    
Cu2   O22   S    
C14   C15   A    
C27   O24   A    
C13   C14   A    
C22   N2    A    
