data_mof_unit_48374.cif
_audit_creation_date              2012-12-11T16:14:43-0500
_audit_creation_method            fapswitch 2.2
_symmetry_space_group_name_H-M    P1
_symmetry_Int_Tables_number       1
_space_group_crystal_system       triclinic
_cell_length_a                    13.635089
_cell_length_b                    13.605845
_cell_length_c                    28.375555
_cell_angle_alpha                 89.738167
_cell_angle_beta                  90.44098
_cell_angle_gamma                 60.514634
_cell_volume                      4581.99373633

loop_
_atom_site_label
_atom_site_type_symbol
_atom_type_description
_atom_site_fract_x
_atom_site_fract_y
_atom_site_fract_z
_atom_type_partial_charge
C1    C     C_R   0.280826 0.618877 0.566356 0.539614
C2    C     C_1   0.644403 0.667886 0.649701 0.073754
C3    C     C_3   0.862317 0.798986 0.683093 -0.229324
C4    C     C_3   0.850071 0.892817 0.649840 -0.470805
C5    C     C_3   0.933457 0.168294 0.714045 0.002651
C6    C     C_3   0.882870 0.278495 0.742042 -0.211820
C7    C     C_3   0.977014 0.292081 0.765478 -0.388166
C8    C     C_3   0.506641 0.085748 0.821919 0.014607
C9    C     C_3   0.421587 0.109828 0.861098 -0.269711
C10   C     C_3   0.426729 0.002962 0.880720 -0.427641
C11   C     C_1   0.631633 0.232531 0.612537 0.050370
C12   C     C_R   0.621886 0.600850 0.566290 0.548123
C13   C     C_R   0.771118 0.145962 0.724506 0.234903
C14   C     C_R   0.784585 0.118093 0.773316 0.158390
C15   C     C_R   0.585798 0.172208 0.778463 0.252603
C16   C     C_R   0.573017 0.194189 0.729985 0.254292
C17   C     C_R   0.665476 0.179630 0.703129 -0.004105
C18   C     C_R   0.689437 0.143124 0.800149 -0.020817
C19   C     C_1   0.699310 0.129635 0.850168 0.067794
C20   C     C_1   0.639326 0.638534 0.610502 0.057459
C21   C     C_1   0.650164 0.204575 0.653344 0.083943
C22   C     C_1   0.707157 0.105505 0.891003 0.034118
C23   C     C_1   0.234055 0.629389 0.611768 0.037707
C24   C     C_R   0.600065 0.280033 0.566211 0.541587
C25   C     C_R   0.144745 0.576726 0.723526 0.256067
C26   C     C_R   0.111561 0.594821 0.770861 0.286863
C27   C     C_R   0.155663 0.749104 0.773045 0.248676
C28   C     C_R   0.180728 0.734919 0.724994 0.274280
C29   C     C_R   0.175364 0.648805 0.700548 -0.039405
C30   C     C_R   0.113987 0.684818 0.795339 -0.056727
C31   C     C_3   0.731116 0.742121 0.751873 0.243124
C32   C     C_1   0.075893 0.712234 0.843006 0.059453
C33   C     C_1   0.204585 0.635373 0.651794 0.075995
C34   C     C_1   0.045410 0.734516 0.883077 0.044241
C35   C     C_1   0.639510 0.639784 0.390302 -0.010983
C36   C     C_R   0.275216 0.621679 0.434735 0.539789
C37   C     C_R   0.745131 0.690260 0.282021 -0.190693
C38   C     C_R   0.753481 0.695886 0.233158 -0.174045
C39   C     C_R   0.574567 0.699244 0.222602 0.302450
C40   C     C_R   0.564535 0.697538 0.271674 0.305567
C41   C     C_R   0.651990 0.688627 0.301322 -0.015364
C42   C     C_3   0.658457 0.728657 0.790415 -0.006577
C43   C     C_R   0.669930 0.697541 0.203409 -0.008402
C44   C     C_1   0.682999 0.698644 0.153350 -0.022637
C45   C     C_1   0.649302 0.665455 0.350683 -0.036624
C46   C     C_1   0.698575 0.703799 0.112036 -0.002991
C47   C     C_1   0.635157 0.223224 0.389826 0.003464
C48   C     C_R   0.620518 0.601395 0.434523 0.542919
C49   C     C_R   0.569184 0.194514 0.273796 0.305230
C50   C     C_R   0.576896 0.186380 0.224657 0.310302
C51   C     C_R   0.779715 0.111250 0.230919 -0.169812
C52   C     C_R   0.771860 0.121071 0.279789 -0.170905
C53   C     C_3   0.752022 0.630197 0.730115 0.219465
C54   C     C_R   0.666856 0.163659 0.301172 -0.013728
C55   C     C_R   0.682350 0.146007 0.203393 -0.001025
C56   C     C_1   0.692056 0.127974 0.153743 -0.018741
C57   C     C_1   0.655512 0.189808 0.350200 -0.027860
C58   C     C_1   0.700389 0.102197 0.113115 -0.005397
C59   C     C_1   0.206020 0.645636 0.393411 -0.016772
C60   C     C_R   0.599911 0.277755 0.433949 0.546183
C61   C     C_R   0.076146 0.774986 0.285265 -0.195077
C62   C     C_R   0.068356 0.779752 0.236258 -0.186194
C63   C     C_R   0.128939 0.579399 0.234118 0.277820
C64   C     C_3   0.646442 0.696087 0.698897 -0.057113
C65   C     C_R   0.133621 0.575384 0.283678 0.329894
C66   C     C_R   0.114589 0.671851 0.308901 -0.002404
C67   C     C_R   0.099464 0.681408 0.210514 0.001508
C68   C     C_1   0.096126 0.688615 0.159991 0.001893
C69   C     C_1   0.157504 0.659967 0.356244 -0.028369
C70   C     C_1   0.084034 0.701696 0.118016 0.012346
C71   C     C_R   0.719961 0.057220 0.936279 0.534536
C72   C     C_3   0.624600 0.809464 0.720139 0.120135
C73   C     C_R   0.732167 0.720905 0.931015 0.540928
C74   C     C_R   0.008021 0.758987 0.930546 0.550889
C75   C     C_3   0.678749 0.617481 0.767958 0.218734
C76   C     C_R   0.715569 0.054902 0.067526 0.543425
C77   C     C_R   0.727172 0.717358 0.065167 0.549751
C78   C     C_R   0.050582 0.729050 0.069841 0.551191
C79   C     C_3   0.552216 0.794915 0.758636 0.239674
C80   C     C_1   0.701643 0.718188 0.882810 0.029996
C81   C     C_3   0.366736 0.930431 0.739202 0.064532
C82   C     C_3   0.325897 0.057340 0.735349 -0.258848
C83   C     C_3   0.243866 0.114220 0.694450 -0.425225
C84   C     C_3   0.119018 0.475805 0.833958 0.017530
C85   C     C_3   0.247892 0.425428 0.838598 -0.271291
C86   C     C_3   0.572949 0.683122 0.736791 0.231659
C87   C     C_3   0.286325 0.391669 0.889626 -0.463376
C88   C     C_3   0.133059 0.899363 0.684424 0.005456
C89   C     C_3   0.130869 0.897785 0.630413 -0.275149
C90   C     C_3   0.064547 0.015644 0.608668 -0.472975
C91   C     C_3   0.415663 0.797060 0.176820 0.013260
C92   C     C_3   0.303178 0.798735 0.171396 -0.237879
C93   C     C_3   0.210646 0.912148 0.152473 -0.488997
C94   C     C_3   0.397023 0.802181 0.307830 -0.010076
C95   C     C_3   0.312059 0.790619 0.338063 -0.238427
C96   C     C_3   0.223726 0.903175 0.358160 -0.484997
C97   C     C_1   0.678237 0.725783 0.841413 0.057192
C98   C     C_3   0.449961 0.154140 0.314480 0.015778
C99   C     C_3   0.325073 0.200553 0.323741 -0.224018
C100  C     C_3   0.301381 0.110107 0.343271 -0.518676
C101  C     C_3   0.461456 0.135062 0.185832 0.021613
C102  C     C_3   0.399217 0.160766 0.138471 -0.225899
C103  C     C_3   0.379455 0.064426 0.123388 -0.486034
C104  C     C_3   0.070515 0.461905 0.315037 0.012363
C105  C     C_3   0.031059 0.492199 0.365916 -0.290637
C106  C     C_3   0.947991 0.452213 0.379008 -0.467448
C107  C     C_3   0.825462 0.842287 0.733577 0.035763
Cl1   Cl    Cl    0.438761 0.245878 0.703657 -0.508229
Cl2   Cl    Cl    0.149625 0.461470 0.693246 -0.464781
Cl3   Cl    Cl    0.182424 0.843893 0.805534 -0.502288
Cl4   Cl    Cl    0.581079 0.929011 0.681935 -0.695133
Cl5   Cl    Cl    0.164192 0.455364 0.202341 -0.583961
Cl6   Cl    Cl    0.472255 0.638328 0.726028 -0.474289
Cl7   Cl    Cl    0.704175 0.496824 0.802016 -0.575265
Cl8   Cl    Cl    0.883253 0.527456 0.707234 -0.549259
Cl9   Cl    Cl    0.917214 0.044796 0.801951 -0.615471
Cr1   Cr    Cr6+3 0.413560 0.417690 0.499580 1.068612
Cr2   Cr    Cr6+3 0.418030 0.668340 0.500400 1.026967
Cr3   Cr    Cr6+3 0.668390 0.413960 0.499990 1.039448
Cr4   Cr    Cr6+3 0.919710 0.916540 0.003080 1.058366
Cr5   Cr    Cr6+3 0.665300 0.919470 0.999630 1.002527
Cr6   Cr    Cr6+3 0.916060 0.665490 0.000390 1.046649
H1    H     H_    0.812329 0.684303 0.304579 0.122209
H2    H     H_    0.398174 0.070421 0.729088 0.265264
H3    H     H_    0.277213 0.066362 0.661347 0.178365
H4    H     H_    0.230203 0.200982 0.689149 0.247714
H5    H     H_    0.161911 0.121258 0.702703 0.095168
H6    H     H_    0.101659 0.404706 0.838688 0.157007
H7    H     H_    0.073170 0.533300 0.863156 0.145123
H8    H     H_    0.289833 0.350855 0.815437 0.238623
H9    H     H_    0.275878 0.486028 0.827834 0.190020
H10   H     H_    0.248993 0.467608 0.912315 0.170823
H11   H     H_    0.379488 0.351863 0.892032 0.185774
H12   H     H_    0.826771 0.695669 0.218496 0.143081
H13   H     H_    0.259937 0.331365 0.902821 0.136853
H14   H     H_    0.150758 0.966544 0.695164 0.143429
H15   H     H_    0.048795 0.921875 0.698681 0.155038
H16   H     H_    0.218576 0.857735 0.617221 0.217024
H17   H     H_    0.090387 0.848733 0.618465 0.142324
H18   H     H_    0.974817 0.055604 0.618928 0.195778
H19   H     H_    0.068581 0.009249 0.569659 0.154183
H20   H     H_    0.100967 0.069149 0.619798 0.149945
H21   H     H_    0.442413 0.811089 0.141699 0.140123
H22   H     H_    0.403261 0.867933 0.200246 0.086232
H23   H     H_    0.861472 0.077258 0.214559 0.125523
H24   H     H_    0.313232 0.731021 0.146844 0.193610
H25   H     H_    0.277559 0.781764 0.206243 0.192237
H26   H     H_    0.195398 0.980410 0.177632 0.141282
H27   H     H_    0.131307 0.908986 0.147891 0.157889
H28   H     H_    0.234717 0.931371 0.117754 0.161895
H29   H     H_    0.351898 0.861334 0.278119 0.120252
H30   H     H_    0.439424 0.837933 0.330081 0.117542
H31   H     H_    0.270437 0.755048 0.315896 0.190471
H32   H     H_    0.357699 0.730624 0.367337 0.208857
H33   H     H_    0.264149 0.936342 0.382638 0.159021
H34   H     H_    0.847041 0.097756 0.300760 0.124552
H35   H     H_    0.160851 0.890863 0.378134 0.156260
H36   H     H_    0.179260 0.965345 0.329322 0.136680
H37   H     H_    0.496798 0.125741 0.348552 0.133694
H38   H     H_    0.479569 0.079768 0.290807 0.086128
H39   H     H_    0.296147 0.270583 0.349417 0.211991
H40   H     H_    0.277640 0.233533 0.290048 0.214768
H41   H     H_    0.323576 0.043053 0.316719 0.132535
H42   H     H_    0.210294 0.148204 0.351184 0.145856
H43   H     H_    0.350786 0.072650 0.376188 0.153590
H44   H     H_    0.407808 0.127303 0.213210 0.146348
H45   H     H_    0.059427 0.850233 0.304447 0.122895
H46   H     H_    0.540910 0.052242 0.183109 0.093772
H47   H     H_    0.316690 0.239494 0.141217 0.225195
H48   H     H_    0.449536 0.174074 0.111129 0.190478
H49   H     H_    0.328087 0.050866 0.150049 0.136885
H50   H     H_    0.461158 0.985400 0.119299 0.154050
H51   H     H_    0.333538 0.085858 0.089089 0.159001
H52   H     H_    0.095488 0.372100 0.309228 0.159363
H53   H     H_    0.998732 0.511227 0.290060 0.132484
H54   H     H_    0.104833 0.452035 0.390357 0.186026
H55   H     H_    0.989698 0.585234 0.370127 0.152387
H56   H     H_    0.042262 0.859483 0.218341 0.120126
H57   H     H_    0.876413 0.486112 0.353534 0.165542
H58   H     H_    0.914919 0.482082 0.414841 0.170018
H59   H     H_    0.990630 0.358500 0.378887 0.148263
H60   H     H_    0.889060 0.862175 0.748571 0.169988
H61   H     H_    0.744695 0.923061 0.734506 0.170533
H62   H     H_    0.951155 0.731178 0.683749 0.179856
H63   H     H_    0.812322 0.762244 0.668230 0.231461
H64   H     H_    0.760022 0.956560 0.644723 0.215681
H65   H     H_    0.886076 0.856649 0.615035 0.145375
H66   H     H_    0.894935 0.935265 0.664135 0.167100
H67   H     H_    0.294088 0.920296 0.749001 0.239199
H68   H     H_    0.976398 0.181222 0.683608 0.142505
H69   H     H_    0.000979 0.097905 0.734254 0.196658
H70   H     H_    0.831739 0.350780 0.717962 0.230825
H71   H     H_    0.827639 0.279023 0.770376 0.237795
H72   H     H_    0.028625 0.219220 0.789294 0.165154
H73   H     H_    0.940851 0.369936 0.786853 0.242053
H74   H     H_    0.032406 0.297839 0.738469 0.208047
H75   H     H_    0.592066 0.026969 0.836092 0.124307
H76   H     H_    0.492585 0.040315 0.793118 0.193485
H77   H     H_    0.440251 0.152225 0.890346 0.181123
H78   H     H_    0.395297 0.890220 0.704094 0.191273
H79   H     H_    0.334987 0.166744 0.847486 0.165335
H80   H     H_    0.393570 0.966318 0.854552 0.227470
H81   H     H_    0.373863 0.023917 0.912667 0.148742
H82   H     H_    0.514420 0.940148 0.890570 0.177710
H83   H     H_    0.285493 0.099548 0.768793 0.165840
O1    O     O_R   0.503010 0.303330 0.550820 -0.481098
O2    O     O_R   0.827060 0.642880 0.947470 -0.499260
O3    O     O_R   0.013800 0.673690 0.954100 -0.516258
O4    O     O_R   0.320040 0.522690 0.547470 -0.478901
O5    O     O_R   0.031250 0.825430 0.055080 -0.513397
O6    O     O_R   0.814180 0.011990 0.050320 -0.496127
O7    O     O_R   0.640680 0.032900 0.051920 -0.516380
O8    O     O_R   0.671090 0.815590 0.046300 -0.500774
O9    O     O_R   0.822940 0.642440 0.050310 -0.489073
O10   O     O_R   0.009970 0.673280 0.049430 -0.478409
O11   O     O_3   0.833690 0.833830 0.001040 -0.281598
O12   O     O_R   0.522480 0.657560 0.452870 -0.499920
O13   O     O_R   0.303930 0.694040 0.551750 -0.522561
O14   O     O_R   0.523510 0.657900 0.548240 -0.492298
O15   O     O_R   0.694770 0.503160 0.551780 -0.497997
O16   O     O_R   0.657990 0.319990 0.547370 -0.500527
O17   O     O_R   0.501900 0.302960 0.447930 -0.505153
O18   O     O_R   0.319020 0.522350 0.452090 -0.486007
O19   O     O_R   0.302820 0.693680 0.448870 -0.527634
O20   O     O_3   0.448542 0.881131 0.775789 -0.568806
O21   O     O_3   0.071106 0.526962 0.789736 -0.471892
O22   O     O_3   0.222409 0.797246 0.702719 -0.511388
O23   O     O_R   0.693670 0.502790 0.448900 -0.510838
O24   O     O_3   0.496933 0.689585 0.194160 -0.522776
O25   O     O_3   0.473113 0.694231 0.290301 -0.527618
O26   O     O_3   0.464225 0.241317 0.294238 -0.496881
O27   O     O_3   0.480048 0.225710 0.197322 -0.497044
O28   O     O_3   0.166272 0.474608 0.307188 -0.529458
O29   O     O_3   0.822460 0.760155 0.763262 -0.528851
O30   O     O_3   0.856357 0.137004 0.694914 -0.598554
O31   O     O_3   0.493611 0.189963 0.805036 -0.552231
O32   O     O_R   0.656970 0.319650 0.452000 -0.498463
O33   O     O_3   0.499990 0.499990 0.499990 -0.256569
O34   O     O_R   0.035380 0.825870 0.952240 -0.467365
O35   O     O_R   0.818010 0.012400 0.954990 -0.487621
O36   O     O_R   0.644810 0.033340 0.949080 -0.528618
O37   O     O_R   0.674910 0.816000 0.950960 -0.514294

loop_
_geom_bond_atom_site_label_1
_geom_bond_atom_site_label_2
_ccdc_geom_bond_type
C84   H6    S    
C15   C18   A    
C96   H36   S    
C55   C56   S    
C63   C65   A    
C102  H48   S    
C101  C102  S    
C31   C42   S    
C80   C97   T    
C70   C78   S    
C14   C18   A    
C93   H27   S    
C95   C96   S    
Cr3   O16   S    
C36   C59   S    
C84   O21   S    
C81   H78   S    
C81   C82   S    
C8    H75   S    
C77   O8    A    
C74   O3    A    
C24   O16   A    
Cr4   O5    S    
Cr5   O36   S    
C88   O22   S    
C42   C75   S    
C81   O20   S    
C62   C67   A    
C91   O24   S    
C86   Cl6   S    
C92   H25   S    
C4    H65   S    
C65   O28   S    
C28   C29   A    
C26   O21   S    
C5    H68   S    
C39   O24   S    
C72   C79   S    
C5    C6    S    
C48   O23   A    
C53   C64   S    
C79   O20   S    
C66   C69   S    
C106  H57   S    
C51   H23   S    
C94   H30   S    
C15   C16   A    
C64   C86   S    
C29   C33   S    
C11   C24   S    
C103  H51   S    
Cr6   O10   S    
C93   H26   S    
C18   C19   S    
Cr5   O7    S    
C82   H2    S    
C63   Cl5   S    
C34   C74   S    
C2    C20   T    
C87   H11   S    
C47   C60   S    
C37   H1    S    
C8    H76   S    
C61   C66   A    
C73   O37   A    
C27   Cl3   S    
C52   C54   A    
C16   C17   A    
C89   H17   S    
C105  H54   S    
C15   O31   S    
C77   O9    A    
C50   O27   S    
C1    O13   A    
C53   C75   S    
C100  H41   S    
C10   H81   S    
C78   O5    A    
C12   O14   A    
C74   O34   A    
C25   Cl2   S    
C13   O30   S    
Cr2   O33   S    
Cr4   O6    S    
C38   H12   S    
C96   H35   S    
C73   O2    A    
C72   Cl4   S    
C42   C79   S    
C49   C54   A    
C99   H39   S    
C13   C14   A    
C27   C30   A    
C103  H49   S    
C93   H28   S    
C102  C103  S    
C83   H3    S    
C35   C48   S    
C3    H63   S    
C28   O22   S    
C106  H58   S    
C104  C105  S    
C2    C64   S    
Cr3   O23   S    
C104  H53   S    
C91   H21   S    
C48   O12   A    
C85   C87   S    
C25   C29   A    
Cr5   O37   S    
C31   O29   S    
C63   C67   A    
C107  H60   S    
C92   H24   S    
C67   C68   S    
C89   H16   S    
Cr5   O11   S    
Cr6   O3    S    
C19   C22   T    
C84   C85   S    
C88   H14   S    
Cr1   O1    S    
C42   C97   S    
C105  H55   S    
C91   C92   S    
C8    C9    S    
C39   C43   A    
C44   C46   T    
C23   C33   T    
C94   H29   S    
C1    O4    A    
C11   C21   T    
C17   C21   S    
Cr6   O9    S    
C107  H61   S    
C100  H43   S    
C95   H31   S    
Cr5   O8    S    
C87   H10   S    
C49   O26   S    
C101  H46   S    
C43   C44   S    
C106  H59   S    
Cr2   O13   S    
C37   C38   A    
C87   H13   S    
C85   H8    S    
C47   C57   T    
C99   H40   S    
C75   C86   S    
C90   H18   S    
C99   C100  S    
C81   H67   S    
C12   C20   S    
Cr2   O12   S    
C94   C95   S    
C100  H42   S    
C75   Cl7   S    
C31   C53   S    
C7    H72   S    
C10   H80   S    
C36   O18   A    
C5    H69   S    
C90   H20   S    
C9    H79   S    
Cr4   O35   S    
C8    O31   S    
C76   O6    A    
C31   C72   S    
C107  O29   S    
C98   H38   S    
Cr1   O33   S    
C49   C50   A    
C82   C83   S    
C59   C69   T    
Cr2   O19   S    
C103  H50   S    
C6    H71   S    
C98   H37   S    
Cr1   O18   S    
C52   H34   S    
C83   H4    S    
C7    H73   S    
C3    C4    S    
C35   C45   T    
C22   C71   S    
C39   C40   A    
C94   O25   S    
C91   H22   S    
C9    C10   S    
C36   O19   A    
C104  O28   S    
C1    C23   S    
C58   C76   S    
Cr6   O2    S    
Cr3   O32   S    
C83   H5    S    
C60   O17   A    
C78   O10   A    
C62   H56   S    
C46   C77   S    
C104  H52   S    
Cr3   O33   S    
C26   C30   A    
C6    C7    S    
Cr4   O11   S    
C101  H44   S    
C105  C106  S    
C50   C55   A    
C13   C17   A    
Cr1   O17   S    
C95   H32   S    
C3    C107  S    
C71   O35   A    
C4    H66   S    
C3    H62   S    
Cr1   O4    S    
C25   C26   A    
C71   O36   A    
C51   C52   A    
C65   C66   A    
C85   H9    S    
C4    H64   S    
C30   C32   S    
C76   O7    A    
Cr3   O15   S    
C10   H82   S    
C102  H47   S    
C14   Cl9   S    
C79   C86   S    
C24   O1    A    
C92   C93   S    
C73   C80   S    
C56   C58   T    
C101  O27   S    
C51   C55   A    
C84   H7    S    
C64   C72   S    
C37   C41   A    
C61   C62   A    
C88   H15   S    
C90   H19   S    
Cr6   O11   S    
C16   Cl1   S    
Cr4   O34   S    
C98   O26   S    
C96   H33   S    
C9    H77   S    
C38   C43   A    
C88   C89   S    
C68   C70   T    
C98   C99   S    
C5    O30   S    
C6    H70   S    
C27   C28   A    
C41   C45   S    
C40   C41   A    
C60   O32   A    
C61   H45   S    
C7    H74   S    
C89   C90   S    
C40   O25   S    
C12   O15   A    
C82   H83   S    
C53   Cl8   S    
C32   C34   T    
Cr2   O14   S    
C54   C57   S    
