data_mof_unit_8464.cif
_audit_creation_date              2012-12-11T14:08:40-0500
_audit_creation_method            fapswitch 2.2
_symmetry_space_group_name_H-M    P1
_symmetry_Int_Tables_number       1
_space_group_crystal_system       triclinic
_cell_length_a                    28.139005
_cell_length_b                    7.196865
_cell_length_c                    17.196032
_cell_angle_alpha                 90.000045
_cell_angle_beta                  101.798221
_cell_angle_gamma                 90.0
_cell_volume                      3408.84311695

loop_
_atom_site_label
_atom_site_type_symbol
_atom_type_description
_atom_site_fract_x
_atom_site_fract_y
_atom_site_fract_z
_atom_type_partial_charge
O1    O     O_R   0.000700 0.436510 0.857920 -0.532376
O2    O     O_R   0.999300 0.563490 0.142080 -0.533554
O3    O     O_R   0.999300 0.936510 0.642080 -0.532376
O4    O     O_R   0.000700 0.063490 0.357920 -0.533554
O5    O     O_R   0.930080 0.766380 0.721890 -0.543086
O6    O     O_R   0.069920 0.233620 0.278110 -0.541554
O7    O     O_R   0.069920 0.266380 0.778110 -0.543087
O8    O     O_R   0.930080 0.733620 0.221890 -0.541554
C1    C     C_R   0.910479 0.597692 0.709833 0.709248
C2    C     C_R   0.089388 0.402191 0.291750 0.710155
C3    C     C_R   0.089521 0.097692 0.790167 0.709249
C4    C     C_R   0.910612 0.902191 0.208250 0.710154
O9    O     O_R   0.996180 0.766230 0.862310 -0.543956
O10   O     O_R   0.003820 0.233770 0.137690 -0.542864
O11   O     O_R   0.003820 0.266230 0.637690 -0.543956
O12   O     O_R   0.996180 0.733770 0.362310 -0.542864
O13   O     O_R   0.065870 0.936460 0.783500 -0.538157
O14   O     O_R   0.934130 0.063540 0.216500 -0.539605
O15   O     O_R   0.934130 0.436460 0.716500 -0.538157
O16   O     O_R   0.065870 0.563540 0.283500 -0.539605
C5    C     C_R   0.998479 0.596450 0.894479 0.759893
C6    C     C_R   0.001511 0.403550 0.105519 0.760794
C7    C     C_R   0.001520 0.096450 0.605520 0.759893
C8    C     C_R   0.998488 0.903550 0.394481 0.760794
O17   O     O_3   0.022790 0.603020 0.723980 -0.378285
O18   O     O_3   0.977210 0.396980 0.276020 -0.378769
O19   O     O_3   0.977210 0.103020 0.776020 -0.378285
O20   O     O_3   0.022790 0.896980 0.223980 -0.378769
V1    V     V_3+5 0.995770 0.877900 0.754830 1.407047
V2    V     V_3+5 0.004230 0.122100 0.245170 1.405800
V3    V     V_3+5 0.004230 0.377900 0.745170 1.407047
V4    V     V_3+5 0.995770 0.622100 0.254830 1.405799
C9    C     C_2   0.001717 0.082624 0.519568 -0.332352
C10   C     C_2   0.998307 0.917378 0.480439 -0.330964
C11   C     C_2   0.998283 0.582624 0.980432 -0.332352
C12   C     C_2   0.001693 0.417378 0.019561 -0.330963
H1    H     H_    0.004509 0.211412 0.487874 0.153297
H2    H     H_    0.995518 0.788589 0.512134 0.153773
H3    H     H_    0.995491 0.711412 0.012126 0.153297
H4    H     H_    0.004481 0.288589 0.987866 0.153773
C13   C     C_R   0.685120 0.937947 0.012528 0.646902
C14   C     C_R   0.318586 0.102092 0.960743 0.642839
C15   C     C_R   0.314880 0.437947 0.487472 0.646901
C16   C     C_R   0.681414 0.602092 0.539257 0.642839
O21   O     O_2   0.716059 0.929093 0.962197 -0.480115
O22   O     O_2   0.289342 0.148143 0.010859 -0.467003
O23   O     O_2   0.283941 0.429093 0.537803 -0.480115
O24   O     O_2   0.710657 0.648142 0.489141 -0.467002
N1    N     N_R   0.703579 0.935577 0.092665 -0.578237
N2    N     N_R   0.298137 0.063179 0.883202 -0.576760
N3    N     N_R   0.296421 0.435577 0.407334 -0.578237
N4    N     N_R   0.701863 0.563178 0.616798 -0.576759
C17   C     C_R   0.673681 0.941548 0.145997 0.571453
C18   C     C_R   0.326134 0.014863 0.830158 0.569637
C19   C     C_R   0.326319 0.441548 0.354003 0.571453
C20   C     C_R   0.673866 0.514863 0.669842 0.569636
C21   C     C_R   0.781440 0.091658 0.152334 0.332833
C22   C     C_R   0.222888 0.243063 0.831077 0.327497
C23   C     C_R   0.218560 0.591658 0.347666 0.332833
C24   C     C_R   0.777111 0.743063 0.668923 0.327497
C25   C     C_R   0.832005 0.080696 0.180222 -0.201873
C26   C     C_R   0.171885 0.249416 0.809844 -0.200099
C27   C     C_R   0.167995 0.580696 0.319778 -0.201873
C28   C     C_R   0.828115 0.749416 0.690156 -0.200099
C29   C     C_R   0.830422 0.751707 0.150495 -0.192176
C30   C     C_R   0.167398 0.920585 0.837146 -0.191924
C31   C     C_R   0.169577 0.251707 0.349505 -0.192176
C32   C     C_R   0.832602 0.420585 0.662854 -0.191924
C33   C     C_R   0.780389 0.761993 0.120891 -0.129284
C34   C     C_R   0.218014 0.913551 0.859552 -0.136172
C35   C     C_R   0.219611 0.261993 0.379109 -0.129283
C36   C     C_R   0.781986 0.413551 0.640448 -0.136171
C37   C     C_R   0.755491 0.930351 0.121621 0.304490
C38   C     C_R   0.246074 0.073582 0.857316 0.314216
C39   C     C_R   0.244509 0.430351 0.378379 0.304490
C40   C     C_R   0.753926 0.573582 0.642684 0.314216
C41   C     C_R   0.603263 0.968531 0.037397 -0.124813
C42   C     C_R   0.399044 0.043787 0.933931 -0.120304
C43   C     C_R   0.396736 0.468531 0.462603 -0.124813
C44   C     C_R   0.600956 0.543787 0.566069 -0.120304
C45   C     C_R   0.634277 0.953010 0.982763 -0.107624
C46   C     C_R   0.369694 0.095358 0.987975 -0.112038
C47   C     C_R   0.365723 0.453011 0.517237 -0.107624
C48   C     C_R   0.630306 0.595358 0.512025 -0.112038
C49   C     C_R   0.614018 0.956395 0.900544 0.315393
C50   C     C_R   0.392004 0.141179 0.066882 0.316750
C51   C     C_R   0.385982 0.456395 0.599456 0.315393
C52   C     C_R   0.607996 0.641179 0.433118 0.316750
C53   C     C_R   0.623272 0.960230 0.119601 0.004965
C54   C     C_R   0.376919 0.002977 0.854538 0.005130
C55   C     C_R   0.376728 0.460231 0.380399 0.004965
C56   C     C_R   0.623081 0.502977 0.645462 0.005129
C57   C     C_R   0.856970 0.911146 0.180126 -0.108858
C58   C     C_R   0.143555 0.088987 0.812694 -0.106742
C59   C     C_R   0.143029 0.411147 0.319873 -0.108858
C60   C     C_R   0.856445 0.588987 0.687306 -0.106743
H5    H     H_    0.848396 0.619144 0.148801 0.150926
H6    H     H_    0.146973 0.794142 0.840038 0.147669
H7    H     H_    0.151604 0.119145 0.351199 0.150926
H8    H     H_    0.853027 0.294142 0.659962 0.147669
H9    H     H_    0.760740 0.638339 0.097246 0.161126
H10   H     H_    0.235575 0.783258 0.879498 0.161574
H11   H     H_    0.239260 0.138340 0.402754 0.161126
H12   H     H_    0.764425 0.283258 0.620502 0.161574
C61   C     C_R   0.479739 0.985275 0.903543 0.110107
C62   C     C_R   0.522204 0.017435 0.066593 0.110854
C63   C     C_R   0.520261 0.485276 0.596457 0.110107
C64   C     C_R   0.477796 0.517436 0.433407 0.110854
C65   C     C_R   0.472075 0.059935 0.039953 -0.033126
C66   C     C_R   0.531564 0.985914 0.928048 -0.031911
C67   C     C_R   0.527925 0.559935 0.460047 -0.033126
C68   C     C_R   0.468436 0.485914 0.571952 -0.031912
C69   C     C_R   0.450383 0.029534 0.959265 -0.009143
C70   C     C_R   0.552229 0.989860 0.010444 -0.011197
C71   C     C_R   0.549616 0.529534 0.540735 -0.009142
C72   C     C_R   0.447770 0.489860 0.489556 -0.011197
C73   C     C_R   0.455964 0.934865 0.825890 -0.109813
C74   C     C_R   0.542958 0.993927 0.147937 -0.103687
C75   C     C_R   0.544036 0.434865 0.674110 -0.109813
C76   C     C_R   0.457042 0.493927 0.352063 -0.103686
C77   C     C_R   0.405767 0.946682 0.801587 -0.182748
C78   C     C_R   0.592567 0.968310 0.173925 -0.161868
C79   C     C_R   0.594233 0.446682 0.698412 -0.182748
C80   C     C_R   0.407433 0.468310 0.326075 -0.161869
O25   O     O_2   0.304881 0.978391 0.754017 -0.519590
O26   O     O_2   0.692762 0.930195 0.224513 -0.511324
O27   O     O_2   0.695119 0.478391 0.745983 -0.519590
O28   O     O_2   0.307238 0.430195 0.275487 -0.511324
C81   C     C_R   0.563429 0.987511 0.873494 0.231812
C82   C     C_R   0.443333 0.137858 0.090617 0.226019
C83   C     C_R   0.436571 0.487512 0.626506 0.231812
C84   C     C_R   0.556667 0.637858 0.409383 0.226018
H13   H     H_    0.154478 0.380987 0.791506 0.142795
H14   H     H_    0.851862 0.205784 0.201424 0.142279
H15   H     H_    0.845522 0.880987 0.708494 0.142795
H16   H     H_    0.148138 0.705784 0.298576 0.142279
H17   H     H_    0.389547 0.908299 0.741051 0.175414
H18   H     H_    0.606803 0.955313 0.237126 0.170219
H19   H     H_    0.610453 0.408299 0.758949 0.175414
H20   H     H_    0.393197 0.455314 0.262874 0.170219
H21   H     H_    0.475189 0.876861 0.783462 0.203795
H22   H     H_    0.521062 0.988135 0.192620 0.183786
H23   H     H_    0.524811 0.376861 0.716538 0.203795
H24   H     H_    0.478938 0.488135 0.307380 0.183786
O29   O     O_3   0.643950 0.928947 0.847078 -0.610218
H25   H     H_    0.624947 0.868245 0.798853 0.301059
O30   O     O_3   0.363420 0.189987 0.120154 -0.593535
H26   H     H_    0.380992 0.159089 0.174650 0.305107
O31   O     O_3   0.356050 0.428947 0.652922 -0.610218
H27   H     H_    0.375053 0.368245 0.701147 0.301059
O32   O     O_3   0.636579 0.689987 0.379846 -0.593534
H28   H     H_    0.619008 0.659089 0.325350 0.305106
N5    N     N_2   0.250242 0.408666 0.827909 -0.553772
H29   H     H_    0.284741 0.408669 0.862636 0.267681
C85   C     C_3   0.249091 0.479218 0.748771 -0.448088
H30   H     H_    0.270649 0.609300 0.752557 0.234163
H31   H     H_    0.211302 0.511563 0.718194 0.193861
H32   H     H_    0.265034 0.375721 0.713491 0.256352
N6    N     N_2   0.757501 0.266531 0.152026 -0.545884
H33   H     H_    0.723682 0.275330 0.115316 0.263995
C86   C     C_3   0.759148 0.348610 0.229398 -0.480705
H34   H     H_    0.741909 0.254551 0.266750 0.242029
H35   H     H_    0.739068 0.482430 0.222499 0.215682
H36   H     H_    0.797168 0.377584 0.259706 0.194052
N7    N     N_2   0.749757 0.908666 0.672091 -0.553772
H37   H     H_    0.715259 0.908669 0.637365 0.267681
C87   C     C_3   0.750909 0.979218 0.751229 -0.448088
H38   H     H_    0.729351 0.109300 0.747444 0.234163
H39   H     H_    0.788698 0.011563 0.781806 0.193862
H40   H     H_    0.734966 0.875722 0.786509 0.256352
N8    N     N_2   0.242499 0.766531 0.347974 -0.545884
H41   H     H_    0.276318 0.775330 0.384684 0.263994
C88   C     C_3   0.240852 0.848610 0.270601 -0.480705
H42   H     H_    0.258091 0.754551 0.233250 0.242029
H43   H     H_    0.260932 0.982430 0.277501 0.215682
H44   H     H_    0.202832 0.877583 0.240294 0.194051
O33   O     O_3   0.545504 0.038763 0.795547 -0.661130
H45   H     H_    0.572090 0.088440 0.771794 0.296043
O34   O     O_3   0.466126 0.227595 0.159234 -0.656888
H46   H     H_    0.444862 0.328496 0.171457 0.293663
O35   O     O_3   0.454496 0.538762 0.704453 -0.661130
H47   H     H_    0.427910 0.588440 0.728206 0.296043
O36   O     O_3   0.533874 0.727595 0.340766 -0.656888
H48   H     H_    0.555137 0.828497 0.328544 0.293663

loop_
_geom_bond_atom_site_label_1
_geom_bond_atom_site_label_2
_ccdc_geom_bond_type
O17   V3    S    
C47   C51   A    
N8    H41   S    
N1    C17   A    
O1    C5    A    
N7    H37   S    
C79   H19   S    
O19   V1    S    
O13   V1    S    
C63   C68   A    
C64   C76   A    
O3    C7    A    
O30   H26   S    
C14   C46   A    
C61   C66   A    
O15   V3    S    
C50   O30   S    
C86   H34   S    
O4    V2    S    
C87   H39   S    
C88   H42   S    
C42   C54   A    
O7    C3    A    
N8    C88   S    
C41   C53   A    
O5    C1    A    
C32   C60   A    
C62   C70   A    
C26   H13   S    
O9    V1    S    
N3    C39   S    
C18   C54   A    
N2    C38   S    
C84   O36   S    
C74   C78   A    
O4    C8    A    
C25   C57   A    
C85   H31   S    
C53   C78   A    
C77   H17   S    
C27   C59   A    
C15   C47   A    
O1    V3    S    
C75   H23   S    
C66   C81   A    
O2    V4    S    
C14   O22   S    
C20   O27   S    
C51   C83   A    
O3    V1    S    
C73   C77   A    
C19   C55   A    
C49   C81   A    
C1    O15   A    
C11   C12   D    
C2    O16   A    
C7    C9    S    
C76   H24   S    
O2    C6    A    
O32   H28   S    
N6    C86   S    
C33   C37   A    
O14   V2    S    
N5    C85   S    
C66   C70   A    
C31   C35   A    
C65   C69   A    
C30   C58   A    
C16   N4    A    
O11   C7    A    
C21   N6    S    
C28   H15   S    
O12   C8    A    
C43   C72   A    
C62   C74   A    
C85   H32   S    
C31   C59   A    
C61   C73   A    
O10   V2    S    
C23   N8    S    
C63   C75   A    
C86   H35   S    
C25   H14   S    
O29   H25   S    
C87   H40   S    
O5    V1    S    
C88   H43   S    
C73   H21   S    
C18   O25   S    
C85   H30   S    
O7    V3    S    
C44   C48   A    
O8    V4    S    
C12   H4    S    
C78   H18   S    
C17   O26   S    
C56   C79   A    
C87   H38   S    
O18   V4    S    
C50   C82   A    
C75   C79   A    
C36   H12   S    
C16   C48   A    
O35   H47   S    
C81   O33   S    
C24   C40   A    
C8    C10   S    
C32   C36   A    
C44   C56   A    
C11   H3    S    
O36   H48   S    
C32   H8    S    
C34   C38   A    
C22   N5    S    
C42   C46   A    
N6    H33   S    
C44   C71   A    
C41   C45   A    
O8    C4    A    
C13   C45   A    
C9    C10   D    
O9    C5    A    
C36   C40   A    
N2    C18   A    
C21   C25   A    
C1    C60   S    
C63   C71   A    
C22   C26   A    
C14   N2    A    
C3    C58   S    
O6    V2    S    
C33   H9    S    
C55   C80   A    
C26   C58   A    
C17   C53   A    
O10   C6    A    
C54   C77   A    
N1    C37   S    
C4    C57   S    
C42   C69   A    
C52   C84   A    
C41   C70   A    
C23   C39   A    
C68   C72   A    
C86   H36   S    
C22   C38   A    
O16   V4    S    
C88   H44   S    
C61   C69   A    
C35   H11   S    
C3    O13   A    
C10   H2    S    
C21   C37   A    
C80   H20   S    
C48   C52   A    
C49   O29   S    
C74   H22   S    
O6    C2    A    
C34   H10   S    
O11   V3    S    
C5    C11   S    
C31   H7    S    
O12   V4    S    
C13   N1    A    
C6    C12   S    
C23   C27   A    
C24   N7    S    
C64   C67   A    
N4    C40   S    
C24   C28   A    
C27   H16   S    
C64   C72   A    
O20   V2    S    
C30   H6    S    
C29   H5    S    
C46   C50   A    
O31   H27   S    
C35   C39   A    
C83   O35   S    
C15   N3    A    
C30   C34   A    
N4    C20   A    
C2    C59   S    
C29   C33   A    
C29   C57   A    
C52   O32   S    
C28   C60   A    
N3    C19   A    
C68   C83   A    
C43   C55   A    
C9    H1    S    
C82   O34   S    
O34   H46   S    
C43   C47   A    
C76   C80   A    
C67   C84   A    
C20   C56   A    
C19   O28   S    
N7    C87   S    
O33   H45   S    
C51   O31   S    
C4    O14   A    
C65   C82   A    
C13   O21   S    
C67   C71   A    
N5    H29   S    
C15   O23   S    
C45   C49   A    
C16   O24   S    
C62   C65   A    
