data_mof_unit_63954.cif
_audit_creation_date              2012-12-10T19:15:42-0500
_audit_creation_method            fapswitch 2.2
_symmetry_space_group_name_H-M    P1
_symmetry_Int_Tables_number       1
_space_group_crystal_system       triclinic
_cell_length_a                    24.391401
_cell_length_b                    24.391401
_cell_length_c                    43.159769
_cell_angle_alpha                 90.000022
_cell_angle_beta                  90.0
_cell_angle_gamma                 89.999938
_cell_volume                      25677.4920775

loop_
_atom_site_label
_atom_site_type_symbol
_atom_type_description
_atom_site_fract_x
_atom_site_fract_y
_atom_site_fract_z
_atom_type_partial_charge
C1    C     C_R   0.271270 0.228730 0.250000 -0.146584
C2    C     C_R   0.728706 0.228706 0.250000 -0.145311
C3    C     C_R   1.000000 0.500000 0.967667 -0.318244
C4    C     C_R   1.000000 0.500000 0.532333 -0.318243
C5    C     C_R   1.000000 0.500000 0.467594 -0.521026
C6    C     C_R   0.500000 0.000000 0.532405 -0.521026
C7    C     C_R   0.500000 0.000000 0.467667 -0.318244
C8    C     C_R   0.001198 0.450400 0.384680 -0.138183
C9    C     C_R   0.001055 0.549531 0.615327 -0.262369
C10   C     C_R   0.549531 0.001055 0.384673 -0.262370
C11   C     C_R   0.450400 0.001198 0.615320 -0.138183
C12   C     C_R   0.998802 0.549600 0.384680 -0.138184
C13   C     C_R   0.771270 0.728730 0.750000 -0.146584
C14   C     C_R   0.998945 0.450469 0.615327 -0.262369
C15   C     C_R   0.450469 0.998945 0.384673 -0.262369
C16   C     C_R   0.549600 0.998802 0.615320 -0.138184
C17   C     C_R   0.501198 0.950400 0.884680 -0.138183
C18   C     C_R   0.501055 0.049531 0.115327 -0.262369
C19   C     C_R   0.049531 0.501055 0.884673 -0.262370
C20   C     C_R   0.950400 0.501198 0.115320 -0.138183
C21   C     C_R   0.498802 0.049600 0.884680 -0.138184
C22   C     C_R   0.498945 0.950469 0.115327 -0.262369
C23   C     C_R   0.950469 0.498945 0.884673 -0.262369
C24   C     C_R   0.228708 0.271292 0.250000 -0.143433
C25   C     C_R   0.049600 0.498802 0.115320 -0.138184
C26   C     C_R   0.001201 0.449672 0.417159 0.012823
C27   C     C_R   0.001037 0.550463 0.582905 -0.005472
C28   C     C_R   0.550463 0.001037 0.417095 -0.005471
C29   C     C_R   0.449672 0.001201 0.582841 0.012823
C30   C     C_R   0.998799 0.550328 0.417159 0.012823
C31   C     C_R   0.998963 0.449537 0.582905 -0.005471
C32   C     C_R   0.449537 0.998963 0.417095 -0.005472
C33   C     C_R   0.550328 0.998799 0.582841 0.012823
C34   C     C_R   0.501201 0.949672 0.917159 0.012823
C35   C     C_R   0.728731 0.228731 0.750000 -0.145640
C36   C     C_R   0.501037 0.050463 0.082905 -0.005472
C37   C     C_R   0.050463 0.501037 0.917095 -0.005472
C38   C     C_R   0.949672 0.501201 0.082841 0.012823
C39   C     C_R   0.498799 0.050328 0.917159 0.012823
C40   C     C_R   0.498963 0.949537 0.082905 -0.005471
C41   C     C_R   0.949537 0.498963 0.917095 -0.005472
C42   C     C_R   0.050328 0.498799 0.082841 0.012823
C43   C     C_R   0.000000 0.500000 0.433493 0.158216
C44   C     C_R   0.000000 0.500000 0.566407 0.260766
C45   C     C_R   0.500000 0.000000 0.433593 0.260766
C46   C     C_R   0.271294 0.771294 0.250000 -0.145311
C47   C     C_R   0.500000 1.000000 0.566507 0.158215
C48   C     C_R   0.500000 1.000000 0.933493 0.158216
C49   C     C_R   0.500000 1.000000 0.066407 0.260766
C50   C     C_R   0.000000 0.500000 0.933593 0.260766
C51   C     C_R   0.000000 0.500000 0.066507 0.158215
C52   C     C_R   0.500000 0.000000 0.334171 0.818803
C53   C     C_R   0.500000 1.000000 0.665830 0.821645
C54   C     C_R   1.000000 0.500000 0.334170 0.821646
C55   C     C_R   1.000000 0.500000 0.665829 0.818802
C56   C     C_R   1.000000 0.500000 0.834171 0.818803
C57   C     C_R   0.228730 0.271270 0.750000 -0.146584
C58   C     C_R   1.000000 0.500000 0.165830 0.821645
C59   C     C_R   0.500000 1.000000 0.834170 0.821646
C60   C     C_R   0.500000 0.000000 0.165829 0.818802
C61   C     C_R   0.605062 0.105062 0.250000 0.803787
C62   C     C_R   0.394932 0.894932 0.750000 0.809039
C63   C     C_R   0.894938 0.605062 0.250000 0.800945
C64   C     C_R   0.105068 0.394932 0.750000 0.810413
C65   C     C_R   0.394938 0.894938 0.250000 0.803785
C66   C     C_R   0.605068 0.105068 0.750000 0.809041
C67   C     C_R   0.105062 0.394938 0.250000 0.800945
C68   C     C_R   0.771292 0.728707 0.250000 -0.143433
C69   C     C_R   0.894932 0.605068 0.750000 0.810413
C70   C     C_R   0.605062 0.894938 0.750000 0.800945
C71   C     C_R   0.394932 0.105068 0.250000 0.810414
C72   C     C_R   0.894938 0.394938 0.750000 0.803786
C73   C     C_R   0.105068 0.605068 0.250000 0.809040
C74   C     C_R   0.394938 0.105062 0.750000 0.800945
C75   C     C_R   0.605068 0.894932 0.250000 0.810413
C76   C     C_R   0.105062 0.605062 0.750000 0.803787
C77   C     C_R   0.894932 0.394932 0.250000 0.809039
C78   C     C_R   1.000000 0.500000 0.368331 -0.098142
C79   C     C_R   0.256922 0.174204 0.244135 0.703256
C80   C     C_R   1.000000 0.500000 0.631666 0.014177
C81   C     C_R   0.500000 0.000000 0.368334 0.014177
C82   C     C_R   0.500000 1.000000 0.631668 -0.098142
C83   C     C_R   0.500000 1.000000 0.868332 -0.098142
C84   C     C_R   0.500000 1.000000 0.131666 0.014177
C85   C     C_R   1.000000 0.500000 0.868334 0.014177
C86   C     C_R   0.000000 0.500000 0.131668 -0.098142
C87   C     C_R   0.049835 0.499649 0.483799 0.528532
C88   C     C_R   0.950153 0.500367 0.516115 0.601250
C89   C     C_R   0.500367 0.950153 0.483884 0.601251
C90   C     C_R   0.700954 0.783717 0.722533 0.705173
C91   C     C_R   0.499649 0.049835 0.516201 0.528532
C92   C     C_R   0.950165 0.500351 0.483799 0.528532
C93   C     C_R   0.049847 0.499633 0.516115 0.601251
C94   C     C_R   0.499633 0.049847 0.483884 0.601251
C95   C     C_R   0.500351 0.950165 0.516201 0.528532
C96   C     C_R   0.549835 0.999649 0.983799 0.528532
C97   C     C_R   0.450153 0.000367 0.016115 0.601250
C98   C     C_R   0.000367 0.450153 0.983884 0.601251
C99   C     C_R   0.999649 0.549835 0.016201 0.528532
C100  C     C_R   0.450165 0.000351 0.983799 0.528532
C101  C     C_R   0.825800 0.256916 0.244153 0.704013
C102  C     C_R   0.549847 0.999633 0.016115 0.601251
C103  C     C_R   0.999633 0.549847 0.983884 0.601251
C104  C     C_R   0.000351 0.450165 0.016201 0.528532
C105  C     C_2   0.002369 0.396151 0.433723 0.552387
C106  C     C_2   0.002100 0.605442 0.567811 0.522039
C107  C     C_2   0.605442 0.002100 0.432189 0.522040
C108  C     C_2   0.396151 0.002369 0.566277 0.552387
C109  C     C_2   0.997631 0.603849 0.433723 0.552387
C110  C     C_2   0.997900 0.394558 0.567811 0.522041
C111  C     C_2   0.394558 0.997900 0.432189 0.522042
C112  C     C_R   0.728708 0.771292 0.750000 -0.143433
C113  C     C_R   0.200920 0.716314 0.777462 0.705233
C114  C     C_2   0.603849 0.997631 0.566277 0.552387
C115  C     C_2   0.502369 0.896151 0.933723 0.552387
C116  C     C_2   0.502100 0.105442 0.067811 0.522039
C117  C     C_2   0.105442 0.502100 0.932189 0.522040
C118  C     C_2   0.896151 0.502369 0.066277 0.552387
C119  C     C_2   0.497631 0.103849 0.933723 0.552387
C120  C     C_2   0.497900 0.894558 0.067811 0.522041
C121  C     C_2   0.894558 0.497900 0.932189 0.522042
C122  C     C_2   0.103849 0.497631 0.066277 0.552387
C123  C     C_2   0.281712 0.075594 0.235730 0.608689
C124  C     C_R   0.743078 0.825796 0.244135 0.703256
C125  C     C_2   0.628411 0.834602 0.693117 0.612787
C126  C     C_2   0.924415 0.281699 0.235763 0.614200
C127  C     C_2   0.128341 0.665462 0.806869 0.601666
C128  C     C_2   0.718288 0.924406 0.235730 0.608690
C129  C     C_2   0.371589 0.165398 0.693117 0.612787
C130  C     C_2   0.075585 0.718300 0.235763 0.614198
C131  C     C_2   0.871659 0.334538 0.806869 0.601665
C132  C     C_2   0.281699 0.924415 0.764237 0.614199
C133  C     C_2   0.665462 0.128341 0.193131 0.601666
C134  C     C_2   0.924406 0.718288 0.764270 0.608689
C135  C     C_R   0.299046 0.216283 0.722533 0.705173
C136  C     C_2   0.165398 0.371589 0.306883 0.612787
C137  C     C_2   0.718301 0.075585 0.764237 0.614200
C138  C     C_2   0.334538 0.871658 0.193131 0.601666
C139  C     C_2   0.075594 0.281712 0.764270 0.608689
C140  C     C_2   0.834602 0.628411 0.306883 0.612787
C141  C     C_2   0.781712 0.575594 0.735730 0.608689
C142  C     C_2   0.128411 0.334602 0.193117 0.612787
C143  C     C_2   0.424415 0.781699 0.735763 0.614199
C144  C     C_2   0.628341 0.165462 0.306869 0.601666
C145  C     C_2   0.218288 0.424406 0.735730 0.608689
C146  C     C_R   0.174200 0.743084 0.244153 0.704013
C147  C     C_2   0.871589 0.665398 0.193117 0.612787
C148  C     C_2   0.575585 0.218300 0.735763 0.614200
C149  C     C_2   0.371658 0.834538 0.306869 0.601666
C150  C     C_2   0.781699 0.424415 0.264237 0.614200
C151  C     C_2   0.165462 0.628341 0.693131 0.601666
C152  C     C_2   0.424406 0.218288 0.264269 0.608689
C153  C     C_2   0.665398 0.871589 0.806883 0.612787
C154  C     C_2   0.218300 0.575585 0.264237 0.614200
C155  C     C_2   0.834538 0.371659 0.693131 0.601666
C156  C     C_2   0.575594 0.781712 0.264269 0.608689
C157  C     C_R   0.799080 0.283686 0.777462 0.705236
C158  C     C_2   0.334602 0.128411 0.806883 0.612787
C159  C     C_R   0.256916 0.825800 0.755847 0.704013
C160  C     C_R   0.716314 0.200920 0.222538 0.705235
C161  C     C_R   0.825796 0.743078 0.755865 0.703256
C162  C     C_R   0.216283 0.299046 0.277467 0.705173
C163  C     C_R   0.743084 0.174200 0.755847 0.704012
C164  C     C_R   0.771269 0.271269 0.250000 -0.145641
C165  C     C_R   0.283686 0.799080 0.222538 0.705234
C166  C     C_R   0.174204 0.256922 0.755865 0.703256
C167  C     C_R   0.783717 0.700954 0.277467 0.705173
C168  C     C_R   0.756922 0.674204 0.744135 0.703256
C169  C     C_R   0.200954 0.283717 0.222533 0.705173
C170  C     C_R   0.325800 0.756916 0.744153 0.704013
C171  C     C_R   0.700920 0.216314 0.277462 0.705234
C172  C     C_R   0.243078 0.325796 0.744135 0.703256
C173  C     C_R   0.799046 0.716283 0.222533 0.705173
C174  C     C_R   0.674200 0.243084 0.744153 0.704012
C175  C     C_R   0.228706 0.728706 0.750000 -0.145311
C176  C     C_R   0.299080 0.783686 0.277462 0.705234
C177  C     C_R   0.756916 0.325800 0.255847 0.704013
C178  C     C_R   0.216313 0.700920 0.722538 0.705234
C179  C     C_R   0.325796 0.243078 0.255865 0.703256
C180  C     C_R   0.716283 0.799046 0.777467 0.705173
C181  C     C_R   0.243084 0.674200 0.255847 0.704013
C182  C     C_R   0.783686 0.299080 0.722538 0.705235
C183  C     C_R   0.674204 0.756922 0.255865 0.703256
C184  C     C_R   0.283717 0.200954 0.777467 0.705173
C185  C     C_R   0.297173 0.133076 0.243751 -0.205148
C186  C     C_R   0.728730 0.771270 0.250000 -0.146584
C187  C     C_R   0.659787 0.823928 0.722187 -0.201068
C188  C     C_R   0.866927 0.297168 0.243768 -0.204308
C189  C     C_R   0.159752 0.676104 0.777806 -0.198309
C190  C     C_R   0.702827 0.866924 0.243751 -0.205148
C191  C     C_R   0.340214 0.176072 0.722187 -0.201068
C192  C     C_R   0.133072 0.702832 0.243768 -0.204307
C193  C     C_R   0.840248 0.323896 0.777806 -0.198308
C194  C     C_R   0.297168 0.866927 0.756231 -0.204307
C195  C     C_R   0.676104 0.159752 0.222194 -0.198309
C196  C     C_R   0.866924 0.702827 0.756249 -0.205148
C197  C     C_R   0.271292 0.228708 0.750000 -0.143433
C198  C     C_R   0.176072 0.340214 0.277813 -0.201068
C199  C     C_R   0.702832 0.133072 0.756231 -0.204308
C200  C     C_R   0.323896 0.840248 0.222194 -0.198308
C201  C     C_R   0.133076 0.297173 0.756248 -0.205148
C202  C     C_R   0.823928 0.659787 0.277813 -0.201068
C203  C     C_R   0.797173 0.633076 0.743751 -0.205148
C204  C     C_R   0.159786 0.323928 0.222187 -0.201068
C205  C     C_R   0.366927 0.797168 0.743768 -0.204307
C206  C     C_R   0.659752 0.176104 0.277806 -0.198309
C207  C     C_R   0.202826 0.366924 0.743751 -0.205148
C208  C     C_R   0.228731 0.728731 0.250000 -0.145641
C209  C     C_R   0.840213 0.676072 0.222187 -0.201068
C210  C     C_R   0.633073 0.202832 0.743769 -0.204308
C211  C     C_R   0.340248 0.823896 0.277806 -0.198308
C212  C     C_R   0.797168 0.366927 0.256231 -0.204308
C213  C     C_R   0.176104 0.659752 0.722194 -0.198309
C214  C     C_R   0.366924 0.202826 0.256249 -0.205148
C215  C     C_R   0.676072 0.840213 0.777813 -0.201068
C216  C     C_R   0.202832 0.633073 0.256231 -0.204307
C217  C     C_R   0.823896 0.340248 0.722194 -0.198309
C218  C     C_R   0.633076 0.797173 0.256248 -0.205148
C219  C     C_R   0.771294 0.271294 0.750000 -0.145311
C220  C     C_R   0.323928 0.159786 0.777813 -0.201068
C221  C     C_R   0.352437 0.147563 0.250000 -0.306487
C222  C     C_R   0.647547 0.852453 0.750000 -0.301936
C223  C     C_R   0.852437 0.352437 0.250000 -0.303681
C224  C     C_R   0.147546 0.647546 0.750000 -0.304168
C225  C     C_R   0.647563 0.852437 0.250000 -0.306488
C226  C     C_R   0.352453 0.147547 0.750000 -0.301936
C227  C     C_R   0.147563 0.647563 0.250000 -0.303681
C228  C     C_R   0.852453 0.352453 0.750000 -0.304168
C229  C     C_R   0.352437 0.852437 0.750000 -0.303681
C230  C     C_R   0.271269 0.771269 0.750000 -0.145641
C231  C     C_R   0.647546 0.147546 0.250000 -0.304168
C232  C     C_R   0.852437 0.647563 0.750000 -0.306487
C233  C     C_R   0.147547 0.352453 0.250000 -0.301936
C234  C     C_R   0.647563 0.147563 0.750000 -0.303681
C235  C     C_R   0.352453 0.852453 0.250000 -0.304168
C236  C     C_R   0.147563 0.352437 0.750000 -0.306488
C237  C     C_R   0.852453 0.647547 0.250000 -0.301936
C238  C     C_R   0.500000 1.000000 0.032333 -0.318243
C239  C     C_R   0.500000 0.000000 0.967594 -0.521026
C240  C     C_R   0.000000 0.500000 0.032405 -0.521026
F1    F     F_    0.098205 0.499321 0.468236 -0.553844
F2    F     F_    0.401775 0.000726 0.031670 -0.554404
F3    F     F_    0.000726 0.401775 0.968330 -0.554404
F4    F     F_    0.999321 0.598205 0.031763 -0.553844
F5    F     F_    0.401795 0.000679 0.968237 -0.553844
F6    F     F_    0.598225 0.999274 0.031670 -0.554404
F7    F     F_    0.999274 0.598225 0.968330 -0.554404
F8    F     F_    0.000679 0.401795 0.031763 -0.553844
F9    F     F_    0.203492 0.161717 0.238546 -0.550507
F10   F     F_    0.714123 0.755948 0.696244 -0.554890
F11   F     F_    0.838292 0.203482 0.238581 -0.550531
F12   F     F_    0.901775 0.500726 0.531670 -0.554404
F13   F     F_    0.214061 0.744111 0.803746 -0.554213
F14   F     F_    0.796508 0.838283 0.238546 -0.550507
F15   F     F_    0.285877 0.244051 0.696244 -0.554890
F16   F     F_    0.161708 0.796518 0.238581 -0.550530
F17   F     F_    0.785939 0.255889 0.803745 -0.554213
F18   F     F_    0.203482 0.838292 0.761419 -0.550531
F19   F     F_    0.744111 0.214060 0.196254 -0.554213
F20   F     F_    0.838283 0.796508 0.761454 -0.550507
F21   F     F_    0.244051 0.285877 0.303756 -0.554890
F22   F     F_    0.796518 0.161708 0.761419 -0.550531
F23   F     F_    0.500726 0.901775 0.468330 -0.554404
F24   F     F_    0.255889 0.785939 0.196254 -0.554213
F25   F     F_    0.161717 0.203492 0.761454 -0.550507
F26   F     F_    0.755948 0.714123 0.303756 -0.554890
F27   F     F_    0.703492 0.661717 0.738546 -0.550507
F28   F     F_    0.214123 0.255948 0.196244 -0.554890
F29   F     F_    0.338292 0.703482 0.738581 -0.550531
F30   F     F_    0.714061 0.244111 0.303746 -0.554213
F31   F     F_    0.296508 0.338283 0.738546 -0.550507
F32   F     F_    0.785877 0.744051 0.196244 -0.554890
F33   F     F_    0.661708 0.296518 0.738581 -0.550531
F34   F     F_    0.499321 0.098205 0.531763 -0.553844
F35   F     F_    0.285939 0.755889 0.303746 -0.554212
F36   F     F_    0.703482 0.338292 0.261419 -0.550531
F37   F     F_    0.244111 0.714061 0.696254 -0.554212
F38   F     F_    0.338283 0.296508 0.261454 -0.550507
F39   F     F_    0.744051 0.785877 0.803756 -0.554890
F40   F     F_    0.296518 0.661708 0.261419 -0.550531
F41   F     F_    0.755889 0.285939 0.696254 -0.554214
F42   F     F_    0.661717 0.703492 0.261454 -0.550507
F43   F     F_    0.255948 0.214123 0.803756 -0.554890
F44   F     F_    0.901795 0.500679 0.468236 -0.553844
F45   F     F_    0.098225 0.499274 0.531670 -0.554404
F46   F     F_    0.499274 0.098225 0.468330 -0.554404
F47   F     F_    0.500679 0.901795 0.531763 -0.553844
F48   F     F_    0.598205 0.999321 0.968237 -0.553844
H1    H     H_    0.002143 0.412049 0.372030 0.214608
H2    H     H_    0.501893 0.087939 0.127959 0.171707
H3    H     H_    0.087939 0.501893 0.872041 0.171707
H4    H     H_    0.912049 0.502143 0.127970 0.214608
H5    H     H_    0.497857 0.087951 0.872030 0.214608
H6    H     H_    0.498106 0.912061 0.127959 0.171707
H7    H     H_    0.912061 0.498106 0.872041 0.171707
H8    H     H_    0.087951 0.497857 0.127970 0.214608
H9    H     H_    0.002082 0.394509 0.458832 0.097399
H10   H     H_    0.003337 0.642049 0.582110 0.088760
H11   H     H_    0.642049 0.003337 0.417890 0.088759
H12   H     H_    0.001893 0.587939 0.627959 0.171707
H13   H     H_    0.394509 0.002082 0.541168 0.097399
H14   H     H_    0.997918 0.605491 0.458832 0.097399
H15   H     H_    0.996663 0.357951 0.582110 0.088760
H16   H     H_    0.357951 0.996663 0.417890 0.088759
H17   H     H_    0.605491 0.997918 0.541168 0.097399
H18   H     H_    0.502082 0.894509 0.958832 0.097399
H19   H     H_    0.503337 0.142048 0.082110 0.088760
H20   H     H_    0.142048 0.503337 0.917890 0.088759
H21   H     H_    0.894509 0.502082 0.041168 0.097399
H22   H     H_    0.497918 0.105491 0.958832 0.097399
H23   H     H_    0.587939 0.001894 0.372041 0.171707
H24   H     H_    0.496663 0.857951 0.082110 0.088760
H25   H     H_    0.857951 0.496663 0.917890 0.088759
H26   H     H_    0.105491 0.497918 0.041168 0.097399
H27   H     H_    0.312842 0.045548 0.229981 0.014132
H28   H     H_    0.590695 0.858099 0.693605 0.014810
H29   H     H_    0.954460 0.312824 0.230004 0.013060
H30   H     H_    0.090643 0.641938 0.806377 0.016191
H31   H     H_    0.687158 0.954452 0.229981 0.014132
H32   H     H_    0.409304 0.141901 0.693605 0.014811
H33   H     H_    0.045539 0.687176 0.230004 0.013060
H34   H     H_    0.412049 0.002143 0.627970 0.214608
H35   H     H_    0.909357 0.358062 0.806377 0.016191
H36   H     H_    0.312824 0.954461 0.769996 0.013060
H37   H     H_    0.641938 0.090643 0.193623 0.016190
H38   H     H_    0.954452 0.687158 0.770018 0.014132
H39   H     H_    0.141901 0.409305 0.306395 0.014811
H40   H     H_    0.687176 0.045539 0.769996 0.013060
H41   H     H_    0.358062 0.909357 0.193622 0.016191
H42   H     H_    0.045548 0.312842 0.770018 0.014132
H43   H     H_    0.858099 0.590696 0.306395 0.014811
H44   H     H_    0.812842 0.545548 0.729981 0.014132
H45   H     H_    0.997857 0.587951 0.372030 0.214608
H46   H     H_    0.090696 0.358099 0.193605 0.014810
H47   H     H_    0.454460 0.812824 0.730004 0.013060
H48   H     H_    0.590643 0.141938 0.306377 0.016191
H49   H     H_    0.187158 0.454452 0.729981 0.014132
H50   H     H_    0.909304 0.641901 0.193605 0.014811
H51   H     H_    0.545539 0.187176 0.730004 0.013060
H52   H     H_    0.409357 0.858062 0.306377 0.016191
H53   H     H_    0.812824 0.454460 0.269996 0.013060
H54   H     H_    0.141938 0.590643 0.693622 0.016191
H55   H     H_    0.454452 0.187158 0.270018 0.014133
H56   H     H_    0.998106 0.412061 0.627959 0.171707
H57   H     H_    0.641901 0.909304 0.806395 0.014811
H58   H     H_    0.187176 0.545539 0.269996 0.013060
H59   H     H_    0.858062 0.409357 0.693623 0.016190
H60   H     H_    0.545548 0.812842 0.270018 0.014132
H61   H     H_    0.358099 0.090696 0.806395 0.014811
H62   H     H_    0.412061 0.998106 0.372041 0.171707
H63   H     H_    0.587951 0.997857 0.627970 0.214608
H64   H     H_    0.502143 0.912049 0.872030 0.214608
O1    O     O_3   0.500000 1.000000 0.250000 -0.497575
O2    O     O_R   0.454480 1.000000 0.680700 -0.637065
O3    O     O_2   0.317205 0.144092 0.831885 -0.429584
O4    O     O_R   0.000000 0.545520 0.319300 -0.637065
O5    O     O_R   1.000000 0.454480 0.680700 -0.640733
O6    O     O_R   0.954480 0.500000 0.819300 -0.640733
O7    O     O_R   0.045520 0.500000 0.180700 -0.637065
O8    O     O_R   0.500000 0.954480 0.819300 -0.637064
O9    O     O_R   0.500000 0.045520 0.180700 -0.640733
O10   O     O_R   0.045520 0.500000 0.819300 -0.640733
O11   O     O_R   0.954480 0.500000 0.180700 -0.637065
O12   O     O_R   0.500000 0.045520 0.819300 -0.637065
O13   O     O_3   0.500000 0.000000 0.750000 -0.502163
O14   O     O_R   0.500000 0.954480 0.180700 -0.640733
O15   O     O_R   0.609440 0.064000 0.268180 -0.637363
O16   O     O_R   0.390560 0.936000 0.731820 -0.630833
O17   O     O_R   0.936000 0.609440 0.268180 -0.635543
O18   O     O_R   0.064000 0.390560 0.731820 -0.632974
O19   O     O_R   0.390560 0.936000 0.268180 -0.637362
O20   O     O_R   0.609440 0.064000 0.731820 -0.630833
O21   O     O_R   0.064000 0.390560 0.268180 -0.635542
O22   O     O_R   0.936000 0.609440 0.731820 -0.632974
O23   O     O_R   0.609440 0.936000 0.731820 -0.635543
O24   O     O_3   0.000000 0.500000 0.250000 -0.502163
O25   O     O_R   0.390560 0.064000 0.268180 -0.632975
O26   O     O_R   0.936000 0.390560 0.731820 -0.637363
O27   O     O_R   0.064000 0.609440 0.268180 -0.630833
O28   O     O_R   0.390560 0.064000 0.731820 -0.635542
O29   O     O_R   0.609440 0.936000 0.268180 -0.632974
O30   O     O_R   0.064000 0.609440 0.731820 -0.637363
O31   O     O_R   0.936000 0.390560 0.268180 -0.630832
O32   O     O_R   0.109440 0.564000 0.768180 -0.637363
O33   O     O_R   0.890560 0.436000 0.231820 -0.630833
O34   O     O_R   0.436000 0.109440 0.768180 -0.635543
O35   O     O_3   1.000000 0.500000 0.750000 -0.497575
O36   O     O_R   0.564000 0.890560 0.231820 -0.632974
O37   O     O_R   0.890560 0.436000 0.768180 -0.637362
O38   O     O_R   0.109440 0.564000 0.231820 -0.630833
O39   O     O_R   0.564000 0.890560 0.768180 -0.635542
O40   O     O_R   0.436000 0.109440 0.231820 -0.632974
O41   O     O_R   0.109440 0.436000 0.231820 -0.635543
O42   O     O_R   0.890560 0.564000 0.768180 -0.632975
O43   O     O_R   0.436000 0.890560 0.231820 -0.637363
O44   O     O_R   0.564000 0.109440 0.768180 -0.630833
O45   O     O_R   0.890560 0.564000 0.231820 -0.635542
O46   O     O_R   0.454480 1.000000 0.319300 -0.640733
O47   O     O_R   0.109440 0.436000 0.768180 -0.632974
O48   O     O_R   0.564000 0.109440 0.231820 -0.637363
O49   O     O_R   0.436000 0.890560 0.768180 -0.630832
O50   O     O_2   0.003660 0.352906 0.419477 -0.501857
O51   O     O_2   0.001545 0.611170 0.539727 -0.549385
O52   O     O_2   0.611170 0.001545 0.460273 -0.549385
O53   O     O_2   0.352906 0.003661 0.580523 -0.501857
O54   O     O_2   0.996339 0.647094 0.419477 -0.501857
O55   O     O_2   0.998454 0.388829 0.539727 -0.549386
O56   O     O_2   0.388829 0.998454 0.460273 -0.549386
O57   O     O_R   0.545520 1.000000 0.680700 -0.637065
O58   O     O_2   0.647094 0.996339 0.580523 -0.501857
O59   O     O_2   0.503660 0.852906 0.919477 -0.501857
O60   O     O_2   0.501545 0.111170 0.039727 -0.549385
O61   O     O_2   0.111170 0.501545 0.960273 -0.549385
O62   O     O_2   0.852906 0.503660 0.080523 -0.501857
O63   O     O_2   0.496339 0.147094 0.919477 -0.501857
O64   O     O_2   0.498454 0.888829 0.039727 -0.549386
O65   O     O_2   0.888830 0.498454 0.960273 -0.549386
O66   O     O_2   0.147094 0.496339 0.080523 -0.501857
O67   O     O_2   0.233884 0.060836 0.235327 -0.426451
O68   O     O_R   0.000000 0.454480 0.319300 -0.637064
O69   O     O_2   0.644092 0.817205 0.668115 -0.429584
O70   O     O_2   0.939177 0.233872 0.235384 -0.425366
O71   O     O_2   0.143974 0.682916 0.831868 -0.437696
O72   O     O_2   0.766116 0.939164 0.235327 -0.426451
O73   O     O_2   0.355908 0.182795 0.668115 -0.429584
O74   O     O_2   0.060823 0.766127 0.235384 -0.425365
O75   O     O_2   0.856026 0.317084 0.831868 -0.437695
O76   O     O_2   0.233872 0.939177 0.764616 -0.425365
O77   O     O_2   0.682916 0.143974 0.168132 -0.437695
O78   O     O_2   0.939164 0.766116 0.764673 -0.426451
O79   O     O_R   1.000000 0.545520 0.680700 -0.640733
O80   O     O_2   0.182795 0.355908 0.331885 -0.429585
O81   O     O_2   0.766127 0.060823 0.764616 -0.425366
O82   O     O_2   0.317084 0.856026 0.168132 -0.437696
O83   O     O_2   0.060836 0.233884 0.764673 -0.426451
O84   O     O_2   0.817205 0.644092 0.331885 -0.429584
O85   O     O_2   0.733884 0.560836 0.735327 -0.426451
O86   O     O_2   0.144092 0.317205 0.168115 -0.429584
O87   O     O_2   0.439177 0.733872 0.735384 -0.425365
O88   O     O_2   0.643974 0.182916 0.331868 -0.437696
O89   O     O_2   0.266116 0.439164 0.735327 -0.426452
O90   O     O_R   0.545520 1.000000 0.319300 -0.640733
O91   O     O_2   0.855908 0.682795 0.168115 -0.429584
O92   O     O_2   0.560823 0.266128 0.735384 -0.425366
O93   O     O_2   0.356026 0.817084 0.331868 -0.437695
O94   O     O_2   0.733872 0.439177 0.264616 -0.425366
O95   O     O_2   0.182916 0.643974 0.668132 -0.437696
O96   O     O_2   0.439164 0.266116 0.264673 -0.426451
O97   O     O_2   0.682795 0.855908 0.831885 -0.429584
O98   O     O_2   0.266127 0.560823 0.264616 -0.425366
O99   O     O_2   0.817084 0.356026 0.668132 -0.437695
O100  O     O_2   0.560836 0.733884 0.264673 -0.426451
Zn1   Zn    Zn3+2 0.500000 0.064990 0.224050 0.987858
Zn2   Zn    Zn3+2 0.000000 0.435010 0.275950 0.995885
Zn3   Zn    Zn3+2 0.435010 0.000000 0.724050 0.995885
Zn4   Zn    Zn3+2 0.564990 1.000000 0.275950 0.987858
Zn5   Zn    Zn3+2 0.000000 0.435010 0.724050 0.987858
Zn6   Zn    Zn3+2 0.000000 0.564990 0.275950 0.995885
Zn7   Zn    Zn3+2 0.564990 0.000000 0.724050 0.995885
Zn8   Zn    Zn3+2 0.435010 1.000000 0.275950 0.987858
Zn9   Zn    Zn3+2 0.500000 0.935010 0.775950 0.995885
Zn10  Zn    Zn3+2 0.935010 0.500000 0.224050 0.995885
Zn11  Zn    Zn3+2 0.064990 0.500000 0.775950 0.987858
Zn12  Zn    Zn3+2 0.500000 0.935010 0.224050 0.987858
Zn13  Zn    Zn3+2 0.500000 0.064990 0.775950 0.995885
Zn14  Zn    Zn3+2 0.064990 0.500000 0.224050 0.995885
Zn15  Zn    Zn3+2 0.935010 0.500000 0.775950 0.987858
Zn16  Zn    Zn3+2 0.000000 0.564990 0.724050 0.987858

loop_
_geom_bond_atom_site_label_1
_geom_bond_atom_site_label_2
_ccdc_geom_bond_type
C159  C194  A    
C99   C103  A    
C215  C222  A    
C71   C221  S    
C96   C102  A    
C183  F42   S    
C190  C225  A    
C8    C26   A    
C32   C45   A    
C102  F6    S    
O90   Zn4   S    
C12   H45   S    
C202  C237  A    
O12   Zn13  S    
C15   C32   A    
C76   C224  S    
C90   F10   S    
C33   C114  S    
C66   C234  S    
C157  C193  A    
C13   C112  S    
C142  H46   S    
C70   O39   A    
C76   O32   A    
C87   F1    S    
C8    C78   A    
C100  C239  A    
C104  C240  A    
C140  H43   S    
O11   Zn10  S    
C100  F5    S    
C19   C37   A    
O4    Zn6   S    
C71   O25   A    
C21   C83   A    
O29   Zn4   S    
C126  O70   D    
C94   F46   S    
C26   C43   A    
O24   Zn2   S    
C29   C108  S    
C64   O47   A    
C101  C188  A    
O16   Zn3   S    
C136  C198  S    
C122  O66   D    
C2    C171  A    
C113  C175  A    
C134  C196  S    
C5    C43   S    
C56   O6    A    
C185  C221  A    
C130  O74   D    
C172  F31   S    
C19   C85   A    
C26   C105  S    
C124  C190  A    
C130  C192  S    
C122  H26   S    
C60   O14   A    
C155  O99   D    
C30   C109  S    
C153  O97   D    
C73   O38   A    
C170  C205  A    
C69   C232  S    
C2    C164  S    
C73   C227  S    
C57   C166  A    
C162  F21   S    
C144  H48   S    
C152  C214  S    
C35   C163  A    
C161  C196  A    
C53   C82   S    
C150  C212  S    
C123  C185  S    
C74   O28   A    
C155  H59   S    
C1    C179  A    
C140  C202  S    
C67   O21   A    
O13   Zn7   S    
C128  H31   S    
C62   O16   A    
O79   Zn16  S    
C171  C206  A    
C106  H10   S    
C66   O20   A    
C99   C240  A    
C154  C216  S    
C33   C47   A    
C96   C239  A    
C30   C43   A    
C165  C200  A    
C115  H18   S    
C34   C48   A    
C17   C34   A    
C153  C215  S    
C48   C239  S    
C113  C189  A    
C177  C212  A    
C116  H19   S    
C3    C103  A    
C132  H36   S    
C109  H14   S    
C169  F28   S    
C178  C213  A    
C57   C197  S    
C206  C231  A    
C180  C215  A    
O25   Zn8   S    
C201  C236  A    
C35   C219  S    
C135  C197  A    
C141  H44   S    
C58   O7    A    
C187  C222  A    
C162  C198  A    
C23   C41   A    
C167  F26   S    
O30   Zn16  S    
C91   C94   A    
C124  C186  A    
C37   C50   A    
C3    C98   A    
C179  C214  A    
C31   C110  S    
C211  C235  A    
C181  C216  A    
C128  C190  S    
O35   Zn5   S    
C217  C228  A    
C117  O61   D    
C184  C220  A    
C37   C117  S    
C151  C213  S    
C118  H21   S    
C136  H39   S    
O14   Zn12  S    
C52   O46   A    
C177  F36   S    
C143  O87   D    
O38   Zn14  S    
C46   C165  A    
C154  H58   S    
C146  C208  A    
C205  C229  A    
C178  F37   S    
C14   C31   A    
C136  O80   D    
C63   O45   A    
C46   C208  S    
C18   H2    S    
C29   C47   A    
C209  C237  A    
C203  C232  A    
C16   C33   A    
C152  H55   S    
C127  H30   S    
C40   C49   A    
C138  O82   D    
O42   Zn15  S    
C20   C38   A    
O22   Zn16  S    
C167  C202  A    
C99   F4    S    
C16   H63   S    
C61   C231  S    
C97   F2    S    
C27   C44   A    
C157  F17   S    
C196  C232  A    
C119  H22   S    
C51   C240  S    
C89   F23   S    
O32   Zn11  S    
C59   O12   A    
C137  H40   S    
C112  C180  A    
C115  O59   D    
O9    Zn1   S    
C68   C186  S    
C182  C219  A    
C110  H15   S    
C111  O56   D    
O1    Zn4   S    
C131  C193  S    
C58   C86   S    
C3    C50   S    
C77   C223  S    
C8    H1    S    
C11   C82   A    
C138  H41   S    
C6    C47   S    
C20   H4    S    
C75   C225  S    
C21   H5    S    
C127  O71   D    
C150  H53   S    
C128  O72   D    
C13   C168  A    
C133  H37   S    
C38   C51   A    
C27   C106  S    
C54   O68   A    
C34   C115  S    
C160  F19   S    
C143  H47   S    
C60   O9    A    
C142  C204  S    
C18   C84   A    
C117  H20   S    
O18   Zn5   S    
C220  C226  A    
O8    Zn9   S    
C131  O75   D    
C59   O8    A    
C129  O73   D    
O36   Zn12  S    
C123  H27   S    
O1    Zn8   S    
C36   C116  S    
C176  F35   S    
C145  C207  S    
C97   C100  A    
C55   O5    A    
C149  O93   D    
C91   F34   S    
C173  C209  A    
C198  C233  A    
C126  H29   S    
C68   C173  A    
C4    C88   A    
C183  C218  A    
C170  C230  A    
C149  H52   S    
C88   F12   S    
O41   Zn14  S    
C125  C187  S    
O24   Zn10  S    
C151  O95   D    
C74   C226  S    
C107  H11   S    
C169  C204  A    
C93   F45   S    
O33   Zn10  S    
C54   O4    A    
C63   O17   A    
C39   C119  S    
C129  C191  S    
C52   C81   S    
O43   Zn12  S    
C4    C93   A    
C5    C87   A    
C188  C223  A    
C1    C24   S    
C2    C160  A    
C6    C95   A    
O35   Zn16  S    
C158  H61   S    
C171  F30   S    
C138  C200  S    
O57   Zn7   S    
C61   O48   A    
C200  C235  A    
O49   Zn9   S    
C189  C224  A    
C17   H64   S    
C77   O33   A    
O28   Zn3   S    
C55   O79   A    
C127  C189  S    
O2    Zn3   S    
O26   Zn5   S    
C32   C111  S    
C59   C83   S    
C64   C236  S    
C74   O34   A    
O13   Zn13  S    
C118  O62   D    
C90   C187  A    
C111  H16   S    
C123  O67   D    
O45   Zn10  S    
C72   O26   A    
C192  C227  A    
C179  F38   S    
O68   Zn2   S    
C104  F8    S    
C20   C86   A    
C148  O92   D    
C70   O23   A    
C144  C206  S    
C57   C172  A    
C108  H13   S    
O35   Zn11  S    
C175  C230  S    
C19   H3    S    
C116  O60   D    
C120  H24   S    
C194  C229  A    
C101  F11   S    
C125  H28   S    
C23   H7    S    
O7    Zn14  S    
C140  O84   D    
O44   Zn13  S    
C175  C178  A    
C141  O85   D    
C172  C207  A    
O24   Zn14  S    
C113  F13   S    
C108  O53   D    
C154  O98   D    
O1    Zn1   S    
C181  C208  A    
C137  O81   D    
C124  F14   S    
C120  O64   D    
C132  O76   D    
C133  O77   D    
C166  C201  A    
O46   Zn8   S    
C89   C95   A    
C144  O88   D    
C53   O57   A    
C204  C233  A    
C97   C238  A    
C214  C221  A    
C133  C195  S    
C170  F29   S    
C165  F24   S    
O23   Zn7   S    
C135  C191  A    
C98   F3    S    
C160  C195  A    
C161  F20   S    
C119  O63   D    
C40   C120  S    
C191  C226  A    
O13   Zn3   S    
C22   H6    S    
O31   Zn2   S    
C41   C50   A    
C9    C27   A    
C58   O11   A    
C10   C28   A    
C7    C94   A    
C12   C30   A    
C63   C237  S    
C158  O3    D    
C65   C235  S    
C101  C164  A    
C149  C211  S    
C49   C238  S    
C62   O49   A    
C25   C42   A    
C181  F40   S    
C168  C203  A    
C4    C44   S    
C10   C81   A    
C77   O31   A    
C176  C211  A    
C183  C186  A    
C114  H17   S    
C156  H60   S    
O5    Zn5   S    
C139  O83   D    
C56   C85   S    
C143  C205  S    
C52   O90   A    
C184  F43   S    
C163  F22   S    
C126  C188  S    
C96   F48   S    
C166  F25   S    
C155  C217  S    
C210  C234  A    
O1    Zn12  S    
C103  F7    S    
C38   C118  S    
C92   F44   S    
C184  C197  A    
C72   C228  S    
C134  H38   S    
C135  F15   S    
C147  C209  S    
C18   C36   A    
C151  H54   S    
C131  H35   S    
C36   C49   A    
C39   C48   A    
C54   C78   S    
C61   O15   A    
C125  O69   D    
C168  F27   S    
C150  O94   D    
O24   Zn6   S    
C153  H57   S    
C90   C112  A    
C70   C222  S    
C121  O65   D    
C182  F41   S    
C15   C81   A    
C10   H23   S    
C56   O10   A    
C7    C45   S    
C142  O86   D    
C145  H49   S    
C95   F47   S    
O6    Zn15  S    
C174  F33   S    
C28   C107  S    
C121  H25   S    
C6    C91   A    
C7    C89   A    
C87   C93   A    
C157  C219  A    
C75   O36   A    
C148  H51   S    
C41   C121  S    
C69   O42   A    
C134  O78   D    
O47   Zn11  S    
O48   Zn1   S    
C88   C92   A    
C9    H12   S    
C12   C78   A    
C213  C224  A    
C65   O19   A    
C14   C80   A    
C53   O2    A    
C218  C225  A    
C106  O51   D    
C42   C51   A    
O39   Zn9   S    
C130  H33   S    
C109  O54   D    
C14   H56   S    
C152  O96   D    
C55   C80   S    
C132  C194  S    
C107  O52   D    
C79   F9    S    
C146  C192  A    
C72   O37   A    
C105  H9    S    
C180  F39   S    
C105  O50   D    
C207  C236  A    
C67   O41   A    
C28   C45   A    
C102  C238  A    
C216  C227  A    
C31   C44   A    
C65   O43   A    
C159  C230  A    
C137  C199  S    
C66   O44   A    
C139  C201  S    
C199  C234  A    
O10   Zn11  S    
C114  O58   D    
C17   C83   A    
C9    C80   A    
C22   C84   A    
C129  H32   S    
C148  C210  S    
O15   Zn4   S    
C147  H50   S    
C76   O30   A    
C21   C39   A    
C62   C229  S    
C22   C40   A    
O19   Zn8   S    
C15   H62   S    
C16   C82   A    
C195  C231  A    
O17   Zn6   S    
O13   Zn9   S    
C24   C169  A    
O40   Zn1   S    
C182  C217  A    
C156  O100  D    
C159  F18   S    
C25   H8    S    
O35   Zn15  S    
O37   Zn15  S    
C46   C176  A    
C69   O22   A    
O20   Zn7   S    
C42   C122  S    
C1    C79   A    
C67   C233  S    
C79   C185  A    
C146  F16   S    
C174  C210  A    
C35   C174  A    
O27   Zn6   S    
C24   C162  A    
C141  C203  S    
C193  C228  A    
C73   O27   A    
C173  F32   S    
C13   C161  A    
C11   H34   S    
C60   C84   S    
C98   C104  A    
C25   C86   A    
C5    C92   A    
C64   O18   A    
C164  C177  A    
C163  C199  A    
C68   C167  A    
C11   C29   A    
C158  C220  S    
C110  O55   D    
C23   C85   A    
C71   O40   A    
O34   Zn13  S    
C156  C218  S    
C147  O91   D    
C212  C223  A    
O21   Zn2   S    
C145  O89   D    
C75   O29   A    
C139  H42   S    
