data_mof_unit_44901.cif
_audit_creation_date              2013-03-05T15:53:36-0500
_audit_creation_method            fapswitch 2.2
_symmetry_space_group_name_H-M    P1
_symmetry_Int_Tables_number       1
_space_group_crystal_system       triclinic
_cell_length_a                    9.977774
_cell_length_b                    10.611884
_cell_length_c                    13.600669
_cell_angle_alpha                 92.239475
_cell_angle_beta                  83.541317
_cell_angle_gamma                 90.846839
_cell_volume                      1429.76840989

loop_
_atom_site_label
_atom_site_type_symbol
_atom_site_description
_atom_site_fract_x
_atom_site_fract_y
_atom_site_fract_z
_atom_type_partial_charge
O1    O     O_R   0.385310 0.683220 0.500000 -0.519509
O2    O     O_R   0.614640 0.683250 0.500010 -0.616035
C1    C     C_R   0.504554 0.737025 0.484047 1.002137
O3    O     O_R   0.368830 0.499960 0.640340 -0.581977
O4    O     O_R   0.598160 0.499980 0.640350 -0.654453
C2    C     C_R   0.476422 0.499086 0.685276 0.919052
Zn1   Zn    Zn3+2 0.346870 0.499980 0.499990 1.073350
Zn2   Zn    Zn3+2 0.653130 0.500020 0.500010 1.100910
O5    O     O_R   0.385360 0.316750 0.499990 -0.608818
O6    O     O_R   0.614690 0.316780 0.500000 -0.526134
O7    O     O_R   0.401840 0.500020 0.359650 -0.610714
O8    O     O_R   0.631170 0.500040 0.359660 -0.550181
C3    C     C_R   0.497372 0.258848 0.506722 0.929987
C4    C     C_R   0.523811 0.499956 0.314643 0.892825
C5    C     C_1   0.541850 0.503188 0.211089 -0.041425
C6    C     C_2   0.560107 0.507970 0.019534 -0.166086
C7    C     C_2   0.444885 0.494837 0.980312 -0.099483
C8    C     C_1   0.449246 0.495391 0.876476 0.135920
C9    C     C_1   0.554944 0.505994 0.123412 0.099008
C10   C     C_1   0.459928 0.496927 0.788804 -0.069807
H1    H     H_    0.348612 0.483521 0.025400 0.205063
H2    H     H_    0.656459 0.519310 0.974549 0.192427
C11   C     C_R   0.321782 0.884574 0.366580 0.572171
C12   C     C_R   0.215175 0.957497 0.342467 0.226903
C13   C     C_R   0.172684 0.061069 0.405500 0.464777
C14   C     C_R   0.248604 0.099718 0.482241 0.344946
C15   C     C_R   0.380078 0.051916 0.481013 -0.260201
C16   C     C_R   0.403319 0.931760 0.437894 -0.179735
C17   C     C_R   0.516569 0.868125 0.459036 -0.216981
C18   C     C_R   0.631347 0.936330 0.480037 0.198422
C19   C     C_R   0.616960 0.060624 0.512903 0.576812
C20   C     C_R   0.493110 0.121551 0.510257 -0.203710
C21   C     C_R   0.839205 0.613947 0.659469 -0.120823
H3    H     H_    0.743697 0.656200 0.653047 0.215045
C22   C     C_R   0.887030 0.615954 0.751786 -0.252980
H4    H     H_    0.819945 0.640289 0.817720 0.213946
C23   C     C_R   0.023242 0.591629 0.756550 0.394746
C24   C     C_R   0.110309 0.603276 0.668321 0.342444
C25   C     C_R   0.060022 0.552708 0.580711 0.007813
C26   C     C_R   0.916744 0.556046 0.578291 0.050801
N1    N     N_R   0.857120 0.501200 0.500900 -0.149003
C27   C     C_R   0.939865 0.449424 0.423001 0.791475
H5    H     H_    0.144730 0.410145 0.359339 0.172335
C28   C     C_R   0.082617 0.451654 0.422254 -0.059114
N2    N     N_R   0.142720 0.501280 0.500940 -0.127083
S1    S     S_3+6 0.085091 0.584581 0.872863 0.056407
O9    O     O_2   0.132380 0.452709 0.884138 -0.322408
O10   O     O_2   0.201166 0.675069 0.879810 -0.247217
O11   O     O_3   0.962150 0.619697 0.964485 -0.534638
H6    H     H_    0.004657 0.612313 0.026394 0.403272
S2    S     S_3+6 0.178903 0.758704 0.662965 0.113148
O12   O     O_2   0.167885 0.809550 0.562765 -0.290481
O13   O     O_2   0.099911 0.843029 0.739287 -0.195299
O14   O     O_3   0.340034 0.761583 0.688170 -0.553600
H7    H     H_    0.368586 0.851179 0.683593 0.378642
S3    S     S_3+6 0.793929 0.889475 0.427419 0.147712
O15   O     O_2   0.886368 0.881988 0.506840 -0.173416
O16   O     O_2   0.793629 0.766087 0.369254 -0.268123
O17   O     O_3   0.849416 0.002117 0.349393 -0.362515
H8    H     H_    0.784908 0.000828 0.299050 0.359678
F1    F     F_    0.356008 0.776892 0.312809 -0.613803
S4    S     S_3+6 0.140289 0.918256 0.233574 0.162417
O18   O     O_2   0.045301 0.808522 0.252237 -0.204394
O19   O     O_2   0.065332 0.028618 0.201616 -0.191306
O20   O     O_3   0.261646 0.876197 0.142680 -0.492994
H9    H     H_    0.212727 0.843810 0.087283 0.400967
F2    F     F_    0.059087 0.124214 0.393680 -0.515973
S5    S     S_3+6 0.161710 0.160446 0.594679 0.150423
O21   O     O_2   0.074337 0.268096 0.575290 -0.289891
O22   O     O_2   0.071529 0.058458 0.639308 -0.128092
O23   O     O_3   0.269559 0.207014 0.675870 -0.555409
H10   H     H_    0.214379 0.256637 0.728370 0.396054
F3    F     F_    0.727972 0.124096 0.538852 -0.542017
F4    F     F_    0.885202 0.394506 0.345008 -0.596208

loop_
_geom_bond_atom_site_label_1
_geom_bond_atom_site_label_2
_geom_bond_distance
_ccdc_geom_bond_type
O4    Zn2   1.925765 S    
Zn1   O7    1.925765 S    
C11   C12   1.400182 A    
C23   C24   1.408470 A    
S3    O16   1.503250 D    
C17   C18   1.396391 A    
C2    C10   1.400169 S    
N1    C27   1.370092 A    
C3    C20   1.459487 S    
C8    C10   1.185889 T    
C19   C20   1.407774 A    
C13   F2    1.353296 S    
S3    O17   1.675982 S    
C25   N2    1.386148 A    
Zn2   O8    1.945728 S    
S2    O14   1.680762 S    
C14   S5    1.773919 S    
O23   H10   0.990466 S    
O11   H6    0.990694 S    
C15   C16   1.394001 A    
C7    C8    1.408246 S    
C23   S1    1.766133 S    
O17   H8    0.990681 S    
O1    Zn1   1.976416 S    
C11   C16   1.407442 A    
Zn2   N1    2.036614 S    
C5    C9    1.186398 T    
S1    O11   1.682185 S    
C1    C17   1.445147 S    
C14   C15   1.411567 A    
S4    O18   1.501688 D    
C27   C28   1.423094 A    
C12   S4    1.765410 S    
S5    O23   1.682417 S    
O4    C2    1.296929 A    
Zn1   N2    2.035798 S    
O3    C2    1.293988 A    
C16   C17   1.387949 A    
C21   C22   1.391766 A    
O8    C4    1.292216 A    
C21   H3    1.072941 S    
O2    C1    1.288854 A    
O3    Zn1   1.945728 S    
H5    C28   1.081488 S    
C6    C9    1.408905 S    
C18   C19   1.380306 A    
O7    C4    1.299301 A    
S1    O10   1.502329 D    
C19   F3    1.361049 S    
C21   C26   1.401407 A    
C27   F4    1.354530 S    
S3    O15   1.502267 D    
C15   C20   1.424611 A    
S2    O13   1.504541 D    
S2    O12   1.501119 D    
C11   F1    1.359145 S    
C24   C25   1.426929 A    
C12   C13   1.407502 A    
Zn2   O6    1.976414 S    
O20   H9    0.990743 S    
S1    O9    1.502342 D    
C25   C26   1.434667 A    
Zn1   O5    1.987539 S    
S5    O22   1.499700 D    
O5    C3    1.297205 A    
O14   H7    0.990773 S    
C26   N1    1.372351 A    
S4    O19   1.502888 D    
C24   S2    1.777350 S    
S4    O20   1.682189 S    
C22   C23   1.396230 A    
C13   C14   1.402373 A    
C4    C5    1.401338 S    
C18   S3    1.767992 S    
O2    Zn2   1.987541 S    
C28   N2    1.368670 A    
C22   H4    1.082051 S    
C6    C7    1.324058 D    
C6    H2    1.087689 S    
S5    O21   1.496414 D    
O1    C1    1.311568 A    
O6    C3    1.309801 A    
C7    H1    1.087674 S    
