data_mof_unit_35102.cif
_audit_creation_date              2012-10-26T20:17:10-0400
_audit_creation_method            fapswitch 2.2
_symmetry_space_group_name_H-M    P1
_symmetry_Int_Tables_number       1
_space_group_crystal_system       triclinic
_cell_length_a                    10.66141
_cell_length_b                    10.766697
_cell_length_c                    9.781623
_cell_angle_alpha                 109.336636
_cell_angle_beta                  98.782541
_cell_angle_gamma                 90.633027
_cell_volume                      1044.76629776

loop_
_atom_site_label
_atom_site_type_symbol
_atom_type_description
_atom_site_fract_x
_atom_site_fract_y
_atom_site_fract_z
_atom_type_partial_charge
C1    C     C_R   0.497836 0.253348 0.443384 0.545979
C2    C     C_3   0.123582 0.497534 0.501035 0.010799
C3    C     C_3   0.977614 0.590915 0.621140 0.130736
C4    C     C_3   0.022037 0.407623 0.377941 0.135343
C5    C     C_2   0.512000 0.113129 0.420295 -0.123161
C6    C     C_2   0.535720 0.887527 0.580345 -0.115568
C7    C     C_2   0.598172 0.072290 0.510496 0.131792
C8    C     C_2   0.596930 0.930557 0.491400 0.152930
C9    C     C_2   0.511170 0.510520 0.080636 -0.031279
C10   C     C_2   0.489582 0.488637 0.919150 -0.038500
C11   C     C_3   0.037535 0.382057 0.813503 -0.318260
C12   C     C_R   0.514810 0.746802 0.556595 0.545908
C13   C     C_3   0.963123 0.610713 0.181428 -0.320150
C14   C     C_3   0.049430 0.784871 0.839257 -0.310013
C15   C     C_3   0.947796 0.215840 0.158107 -0.314285
C16   C     C_3   0.733263 0.896016 0.299721 -0.304357
C17   C     C_3   0.702562 0.176116 0.764700 -0.294116
C18   C     C_R   0.259594 0.497229 0.500153 0.572860
C19   C     C_R   0.740340 0.502143 0.499630 0.549741
C20   C     C_3   0.054172 0.470670 0.615960 0.135838
C21   C     C_3   0.945465 0.527869 0.383073 0.135254
C22   C     C_3   0.952873 0.378215 0.492875 -0.126942
C23   C     C_3   0.046742 0.620396 0.506166 -0.125801
C24   C     C_3   0.876130 0.501074 0.498122 0.008743
Cu1   Cu    Cu3+1 0.522260 0.521810 0.644920 0.920185
Cu2   Cu    Cu3+1 0.477740 0.478190 0.355080 0.926328
H1    H     H_    0.912894 0.280526 0.486544 0.098526
H2    H     H_    0.095754 0.364282 0.908694 0.123556
H3    H     H_    0.993016 0.285679 0.736490 0.164778
H4    H     H_    0.962266 0.448570 0.853134 0.137654
H5    H     H_    0.816072 0.484853 0.187832 0.257475
H6    H     H_    0.904896 0.628799 0.086440 0.117200
H7    H     H_    0.034983 0.540158 0.140480 0.144903
H8    H     H_    0.011838 0.706037 0.256004 0.155244
H9    H     H_    0.899773 0.649400 0.814235 0.258343
H10   H     H_    0.013690 0.857869 0.932526 0.131993
H11   H     H_    0.084538 0.838770 0.772050 0.153703
H12   H     H_    0.087181 0.717674 0.511624 0.101341
H13   H     H_    0.128829 0.736235 0.883958 0.140005
H14   H     H_    0.102227 0.346850 0.186303 0.258475
H15   H     H_    0.983130 0.141141 0.065848 0.133300
H16   H     H_    0.871602 0.266861 0.111747 0.132535
H17   H     H_    0.908353 0.163534 0.224292 0.148792
H18   H     H_    0.703295 0.767363 0.412334 0.277308
H19   H     H_    0.770996 0.814589 0.216266 0.136117
H20   H     H_    0.814452 0.961735 0.374404 0.157654
H21   H     H_    0.672262 0.951285 0.240671 0.147126
H22   H     H_    0.722925 0.243454 0.591271 0.262180
H23   H     H_    0.497841 0.957544 0.670285 0.063822
H24   H     H_    0.783031 0.246940 0.832234 0.121513
H25   H     H_    0.716927 0.081072 0.784318 0.149633
H26   H     H_    0.612590 0.215875 0.799969 0.156107
H27   H     H_    0.447632 0.041526 0.331615 0.082790
H28   H     H_    0.416450 0.415292 0.847214 0.158221
H29   H     H_    0.584898 0.583195 0.152352 0.171392
H30   H     H_    0.624423 0.623897 0.933355 0.201466
H31   H     H_    0.375030 0.376693 0.066800 0.199543
H32   H     H_    0.180654 0.515519 0.813572 0.258710
N1    N     N_2   0.444270 0.445410 0.137360 -0.358301
N2    N     N_2   0.555730 0.554590 0.862640 -0.356271
N3    N     N_2   0.118076 0.440454 0.741805 -0.504750
N4    N     N_2   0.881631 0.558152 0.257221 -0.515303
N5    N     N_2   0.947330 0.688750 0.752404 -0.503723
N6    N     N_2   0.051647 0.308954 0.246838 -0.500998
N7    N     N_2   0.659951 0.841693 0.382130 -0.496631
N8    N     N_2   0.699730 0.158577 0.611132 -0.513536
O1    O     O_R   0.511880 0.332340 0.577400 -0.484283
O2    O     O_R   0.488120 0.667660 0.422600 -0.473661
O3    O     O_R   0.474280 0.295500 0.332650 -0.487440
O4    O     O_R   0.525720 0.704500 0.667350 -0.487771
O5    O     O_R   0.335640 0.518390 0.622350 -0.491619
O6    O     O_R   0.664360 0.481610 0.377650 -0.504192
O7    O     O_R   0.298050 0.481550 0.377590 -0.497258
O8    O     O_R   0.701950 0.518450 0.622410 -0.505670

loop_
_geom_bond_atom_site_label_1
_geom_bond_atom_site_label_2
_ccdc_geom_bond_type
C17   H24   S    
C16   H19   S    
C2    C4    S    
C15   N6    S    
C13   H7    S    
Cu1   O5    S    
Cu1   N2    S    
C3    N5    S    
C2    C18   S    
C23   H12   S    
Cu2   O6    S    
C9    C10   S    
C4    N6    S    
C13   H6    S    
C10   N2    D    
H14   N6    S    
Cu2   O2    S    
C17   H25   S    
H32   N3    S    
H9    N5    S    
C19   C24   S    
C19   O6    A    
C9    N1    D    
C15   H17   S    
C13   H8    S    
C16   H21   S    
C14   H11   S    
C14   H10   S    
C4    C21   S    
C12   O2    A    
H5    N4    S    
C11   H3    S    
C17   N8    S    
C11   H2    S    
C11   H4    S    
C9    H29   S    
C14   N5    S    
Cu1   O4    S    
C17   H26   S    
H18   N7    S    
C1    O1    A    
C20   C22   S    
C14   H13   S    
C18   O7    A    
C22   C24   S    
C22   H1    S    
C21   C23   S    
C6    H23   S    
C6    C12   S    
C18   O5    A    
C10   H28   S    
C1    C5    S    
H31   N1    S    
C8    N7    S    
C7    C8    S    
C2    C20   S    
C3    C20   S    
Cu2   O7    S    
C4    C22   S    
C15   H15   S    
C2    C23   S    
Cu1   O8    S    
Cu2   N1    S    
C21   C24   S    
C5    H27   S    
C20   N3    S    
C5    C7    D    
Cu2   O3    S    
C12   O4    A    
C16   H20   S    
C6    C8    D    
C16   N7    S    
H22   N8    S    
C21   N4    S    
Cu1   Cu2   S    
C3    C23   S    
C19   O8    A    
C1    O3    A    
C13   N4    S    
H30   N2    S    
C15   H16   S    
C3    C24   S    
C7    N8    S    
C11   N3    S    
Cu1   O1    S    
