data_mof_unit_56010.cif
_audit_creation_date              2012-12-10T18:35:28-0500
_audit_creation_method            fapswitch 2.2
_symmetry_space_group_name_H-M    P1
_symmetry_Int_Tables_number       1
_space_group_crystal_system       triclinic
_cell_length_a                    14.982209
_cell_length_b                    15.426206
_cell_length_c                    16.835051
_cell_angle_alpha                 91.985335
_cell_angle_beta                  100.126334
_cell_angle_gamma                 97.3254
_cell_volume                      3792.5277957

loop_
_atom_site_label
_atom_site_type_symbol
_atom_type_description
_atom_site_fract_x
_atom_site_fract_y
_atom_site_fract_z
_atom_type_partial_charge
C1    C     C_R   0.557049 0.662520 0.513222 0.880499
C2    C     C_R   0.472306 0.188214 0.514651 -0.269935
C3    C     C_R   0.555322 0.901160 0.558524 0.069332
C4    C     C_R   0.448615 0.104593 0.539026 0.069251
C5    C     C_R   0.650339 0.933820 0.572030 0.099699
C6    C     C_R   0.354871 0.074131 0.538510 0.097464
C7    C     C_R   0.489111 0.958741 0.560495 0.085800
C8    C     C_R   0.516508 0.049104 0.558961 0.088280
C9    C     C_R   0.610875 0.081151 0.577162 -0.224808
C10   C     C_R   0.396329 0.929057 0.562599 -0.224303
C11   C     C_R   0.676384 0.024490 0.585509 -0.248874
C12   C     C_R   0.442815 0.337589 0.490667 0.884953
C13   C     C_R   0.331005 0.986131 0.553794 -0.249234
C14   C     C_R   0.168780 0.641353 0.386437 -0.322780
C15   C     C_R   0.830817 0.357579 0.612494 -0.324660
C16   C     C_R   0.510347 0.496059 0.349400 0.874746
C17   C     C_R   0.490735 0.506664 0.650647 0.870786
C18   C     C_R   0.255557 0.616834 0.403888 0.011403
C19   C     C_R   0.744189 0.382522 0.595445 0.011331
C20   C     C_R   0.206177 0.508307 0.489166 -0.066895
C21   C     C_R   0.793902 0.491807 0.511020 -0.067516
C22   C     C_R   0.116312 0.529632 0.473737 -0.002197
C23   C     C_R   0.591172 0.755385 0.532118 -0.116039
C24   C     C_R   0.883560 0.469904 0.525874 -0.001986
C25   C     C_R   0.098876 0.598227 0.421515 0.182563
C26   C     C_R   0.900816 0.400857 0.577612 0.185009
C27   C     C_R   0.044238 0.486159 0.508462 0.082686
C28   C     C_R   0.955578 0.513216 0.490983 0.081811
C29   C     C_R   0.941848 0.582517 0.439247 -0.242708
C30   C     C_R   0.057843 0.416530 0.559825 -0.240791
C31   C     C_R   0.012195 0.623707 0.405033 -0.214801
C32   C     C_R   0.987388 0.375054 0.593747 -0.214043
C33   C     C_R   0.513750 0.489788 0.263763 -0.078109
C34   C     C_R   0.408577 0.246010 0.499692 -0.117280
C35   C     C_R   0.494138 0.529827 0.735616 -0.075207
C36   C     C_R   0.432320 0.480495 0.206908 -0.231276
C37   C     C_R   0.579414 0.552623 0.786281 -0.228963
C38   C     C_R   0.434370 0.476320 0.124403 0.217789
C39   C     C_R   0.584902 0.578742 0.867246 0.215792
C40   C     C_R   0.520612 0.485681 0.100084 0.156791
C41   C     C_R   0.502690 0.578193 0.897485 0.158041
C42   C     C_R   0.601356 0.489880 0.156769 -0.203727
C43   C     C_R   0.417878 0.561866 0.845595 -0.201231
C44   C     C_R   0.598069 0.491728 0.238436 -0.203817
C45   C     C_R   0.716377 0.875338 0.569914 0.168498
C46   C     C_R   0.413508 0.537863 0.764771 -0.202062
C47   C     C_2   0.529862 0.500521 0.017350 -0.263868
C48   C     C_2   0.501768 0.571399 0.982963 -0.278826
C49   C     C_3   0.678501 0.603598 0.919857 -0.444294
C50   C     C_3   0.728093 0.687508 0.893575 -0.860776
C51   C     C_3   0.344261 0.462157 0.065059 -0.445914
C52   C     C_3   0.291752 0.371733 0.071129 -0.861299
C53   C     C_3   0.818574 0.909652 0.587153 -0.422490
C54   C     C_3   0.883847 0.841318 0.584604 -0.885652
C55   C     C_3   0.187655 0.101134 0.525194 -0.421315
C56   C     C_R   0.287891 0.132193 0.522031 0.167865
C57   C     C_3   0.121939 0.169586 0.510252 -0.886756
C58   C     C_R   0.684875 0.785890 0.550154 -0.195080
C59   C     C_R   0.316832 0.218647 0.503652 -0.194785
C60   C     C_R   0.527869 0.812742 0.536544 -0.268050
H1    H     H_    0.366927 0.476409 0.226661 0.165038
H2    H     H_    0.310613 0.649879 0.377728 0.135014
H3    H     H_    0.156533 0.693754 0.346343 0.142975
H4    H     H_    0.842847 0.304695 0.652071 0.139931
H5    H     H_    0.877369 0.607070 0.423582 0.134725
H6    H     H_    0.122247 0.391783 0.575189 0.132738
H7    H     H_    0.347140 0.522748 0.725838 0.159011
H8    H     H_    0.661635 0.497816 0.281640 0.160929
H9    H     H_    0.466519 0.615614 0.014040 0.165743
H10   H     H_    0.563711 0.455471 0.985704 0.166285
H11   H     H_    0.667282 0.496057 0.137823 0.141439
H12   H     H_    0.642064 0.550258 0.762917 0.166727
H13   H     H_    0.354830 0.561286 0.868924 0.137679
H14   H     H_    0.747408 0.053310 0.599008 0.140876
H15   H     H_    0.261303 0.959273 0.556137 0.143650
H16   H     H_    0.541168 0.209214 0.505713 0.168030
H17   H     H_    0.456240 0.787822 0.519187 0.167925
H18   H     H_    0.269074 0.265688 0.493119 0.170316
H19   H     H_    0.732402 0.739242 0.547518 0.171963
H20   H     H_    0.741095 0.678279 0.831109 0.256995
H21   H     H_    0.686628 0.741965 0.896299 0.265244
H22   H     H_    0.794945 0.705580 0.934766 0.248881
H23   H     H_    0.635722 0.150256 0.587228 0.142534
H24   H     H_    0.674025 0.614762 0.984408 0.227124
H25   H     H_    0.720071 0.549375 0.915949 0.200589
H26   H     H_    0.334001 0.319983 0.059848 0.264965
H27   H     H_    0.272832 0.365090 0.131727 0.256318
H28   H     H_    0.227915 0.362189 0.025071 0.248625
H29   H     H_    0.301916 0.513365 0.077663 0.200173
H30   H     H_    0.353906 0.466999 0.001553 0.226436
H31   H     H_    0.874512 0.792274 0.630268 0.261003
H32   H     H_    0.872818 0.808323 0.523283 0.256666
H33   H     H_    0.955604 0.874276 0.598963 0.252468
H34   H     H_    0.372914 0.862120 0.573494 0.149760
H35   H     H_    0.832866 0.958280 0.542243 0.206925
H36   H     H_    0.835935 0.943507 0.648345 0.206328
H37   H     H_    0.142575 0.225015 0.556458 0.252626
H38   H     H_    0.119787 0.193800 0.448664 0.262495
H39   H     H_    0.051846 0.139274 0.514861 0.253326
H40   H     H_    0.162165 0.045906 0.479346 0.207555
H41   H     H_    0.183563 0.076547 0.585915 0.205629
H42   H     H_    0.998622 0.676372 0.365511 0.141941
H43   H     H_    0.000817 0.321977 0.632811 0.142023
H44   H     H_    0.773112 0.542134 0.472074 0.124367
H45   H     H_    0.227168 0.458527 0.528705 0.124541
H46   H     H_    0.689028 0.349230 0.621327 0.131727
N1    N     N_R   0.271750 0.551950 0.454510 -0.099992
N2    N     N_R   0.728250 0.448050 0.545490 -0.099097
O1    O     O_R   0.615140 0.606020 0.522930 -0.623708
O2    O     O_R   0.384860 0.393980 0.477070 -0.620919
O3    O     O_R   0.468580 0.639400 0.493740 -0.619331
O4    O     O_R   0.531420 0.360600 0.506260 -0.617140
O5    O     O_R   0.581950 0.481350 0.400520 -0.616190
O6    O     O_R   0.418050 0.518650 0.599480 -0.617720
O7    O     O_R   0.435380 0.514730 0.371330 -0.620899
O8    O     O_R   0.564620 0.485270 0.628670 -0.622852
Zn1   Zn    Zn3+2 0.597860 0.477710 0.519490 0.935617
Zn2   Zn    Zn3+2 0.402140 0.522290 0.480510 0.935933

loop_
_geom_bond_atom_site_label_1
_geom_bond_atom_site_label_2
_ccdc_geom_bond_type
C25   C31   A    
C40   C47   S    
C38   C40   A    
C55   C56   S    
C26   C32   A    
C23   C58   A    
C14   C18   A    
C48   H9    S    
C4    C8    A    
C16   O5    A    
O2    Zn2   S    
C12   O2    A    
O1    Zn1   S    
C7    C8    A    
C39   C41   A    
C53   C54   S    
C15   C19   A    
O3    Zn2   S    
C49   H24   S    
C28   C29   A    
C35   C37   A    
C24   C26   A    
C5    C11   A    
C3    C7    A    
C51   H30   S    
O4    Zn1   S    
C53   H35   S    
C57   H38   S    
C57   H39   S    
C33   C36   A    
O8    Zn1   S    
C7    C10   A    
C18   N1    A    
C54   H33   S    
C1    O1    A    
C21   H44   S    
C43   H13   S    
C13   H15   S    
C8    C9    A    
C22   C25   A    
C55   H40   S    
C15   H4    S    
N1    Zn2   S    
C20   N1    A    
C3    C60   A    
C2    C34   A    
C40   C42   A    
C45   C53   S    
C1    O3    A    
C53   H36   S    
C41   C43   A    
C42   C44   A    
C59   H18   S    
C17   O6    A    
C23   C60   A    
C60   H17   S    
C45   C58   A    
C51   C52   S    
C31   H42   S    
C49   H25   S    
C52   H28   S    
C4    C6    A    
C18   H2    S    
C15   C26   A    
C38   C51   S    
C5    C45   A    
C11   H14   S    
C2    C4    A    
C47   H10   S    
C54   H32   S    
C16   C33   S    
C47   C48   D    
O7    Zn2   S    
C57   H37   S    
C32   H43   S    
C30   H6    S    
C9    C11   A    
O6    Zn2   S    
C58   H19   S    
C9    H23   S    
C29   H5    S    
C39   C49   S    
C20   C22   A    
C1    C23   S    
C22   C27   A    
C55   C57   S    
C34   C59   A    
O5    Zn1   S    
C44   H8    S    
C21   C24   A    
C12   C34   S    
C36   H1    S    
C16   O7    A    
C12   O4    A    
C2    H16   S    
C50   H22   S    
C20   H45   S    
C33   C44   A    
N2    Zn1   S    
C52   H27   S    
C24   C28   A    
C6    C56   A    
C3    C5    A    
C10   C13   A    
C50   H20   S    
C55   H41   S    
C56   C59   A    
C52   H26   S    
C46   H7    S    
C37   C39   A    
C19   N2    A    
C6    C13   A    
C30   C32   A    
C14   H3    S    
C36   C38   A    
C42   H11   S    
C41   C48   S    
C14   C25   A    
C43   C46   A    
C21   N2    A    
C19   H46   S    
C54   H31   S    
C17   O8    A    
C29   C31   A    
C49   C50   S    
C37   H12   S    
C27   C28   A    
C10   H34   S    
C17   C35   S    
C35   C46   A    
C51   H29   S    
C50   H21   S    
C27   C30   A    
