data_mof_unit_29596.cif
_audit_creation_date              2012-12-10T20:52:59-0500
_audit_creation_method            fapswitch 2.2
_symmetry_space_group_name_H-M    P1
_symmetry_Int_Tables_number       1
_space_group_crystal_system       triclinic
_cell_length_a                    18.360666
_cell_length_b                    18.361223
_cell_length_c                    18.360979
_cell_angle_alpha                 59.865645
_cell_angle_beta                  59.870675
_cell_angle_gamma                 59.870173
_cell_volume                      4363.91536681

loop_
_atom_site_label
_atom_site_type_symbol
_atom_type_description
_atom_site_fract_x
_atom_site_fract_y
_atom_site_fract_z
_atom_type_partial_charge
C1    C     C_R   0.389920 0.110161 0.110171 0.778679
C2    C     C_R   0.380713 0.805375 0.779959 -0.218606
C3    C     C_R   0.036164 0.549362 0.909250 0.079450
C4    C     C_R   0.449426 0.090327 0.964259 0.079337
C5    C     C_R   0.550631 0.909688 0.035728 0.079278
C6    C     C_R   0.945905 0.946008 0.553841 -0.140695
C7    C     C_R   0.054091 0.053996 0.446161 -0.140678
C8    C     C_R   0.946002 0.553839 0.945911 -0.140803
C9    C     C_R   0.053997 0.446162 0.054089 -0.140785
C10   C     C_R   0.553825 0.945905 0.946013 -0.141473
C11   C     C_R   0.446177 0.054091 0.053992 -0.141414
C12   C     C_R   0.194677 0.220004 0.619344 -0.218850
C13   C     C_R   0.805282 0.779901 0.380754 -0.218866
C14   C     C_R   0.177670 0.577842 0.284629 -0.127632
C15   C     C_R   0.822204 0.422265 0.715308 -0.127683
C16   C     C_R   0.578081 0.284608 0.177520 -0.127937
C17   C     C_R   0.422215 0.715388 0.822277 -0.127621
C18   C     C_R   0.284656 0.177694 0.577833 -0.128053
C19   C     C_R   0.715315 0.822231 0.422281 -0.127995
C20   C     C_R   0.088020 0.585393 0.314588 0.065298
C21   C     C_R   0.610080 0.889834 0.889834 0.778674
C22   C     C_R   0.911875 0.414626 0.685398 0.065367
C23   C     C_R   0.585412 0.314564 0.087937 0.065198
C24   C     C_R   0.414613 0.685417 0.911947 0.065307
C25   C     C_R   0.314604 0.088050 0.585384 0.065300
C26   C     C_R   0.685384 0.911906 0.414626 0.065384
C27   C     C_R   0.041171 0.634887 0.253872 -0.259317
C28   C     C_R   0.958702 0.365022 0.746141 -0.259315
C29   C     C_R   0.634668 0.253834 0.041130 -0.258932
C30   C     C_R   0.365068 0.746119 0.958806 -0.259302
C31   C     C_R   0.253889 0.041207 0.634887 -0.259186
C32   C     C_R   0.110172 0.110164 0.389916 0.779044
C33   C     C_R   0.746103 0.958759 0.365003 -0.259277
C34   C     C_R   0.083630 0.676428 0.164005 0.721259
C35   C     C_R   0.916203 0.323456 0.835984 0.721235
C36   C     C_R   0.676175 0.163948 0.083574 0.721183
C37   C     C_R   0.323532 0.835983 0.916337 0.721248
C38   C     C_R   0.164032 0.083668 0.676431 0.721294
C39   C     C_R   0.835948 0.916278 0.323444 0.721232
C40   C     C_R   0.172956 0.668637 0.134420 -0.169477
C41   C     C_R   0.826859 0.331328 0.865518 -0.169650
C42   C     C_R   0.668602 0.134365 0.172836 -0.169488
C43   C     C_R   0.889824 0.889840 0.610084 0.779045
C44   C     C_R   0.331376 0.865579 0.826991 -0.169600
C45   C     C_R   0.134458 0.172989 0.668638 -0.169465
C46   C     C_R   0.865505 0.826926 0.331341 -0.169555
C47   C     C_R   0.987999 0.591067 0.464633 -0.273277
C48   C     C_R   0.011970 0.408934 0.535369 -0.273258
C49   C     C_R   0.591074 0.464628 0.987971 -0.273289
C50   C     C_R   0.408932 0.535370 0.011986 -0.273324
C51   C     C_R   0.464646 0.988023 0.591061 -0.273665
C52   C     C_R   0.535356 0.011980 0.408937 -0.273578
C53   C     C_R   0.944451 0.552454 0.555084 -0.057590
C54   C     C_R   0.110169 0.389916 0.110167 0.778870
C55   C     C_R   0.055521 0.447548 0.444918 -0.057574
C56   C     C_R   0.552454 0.555086 0.944452 -0.057547
C57   C     C_R   0.447552 0.444912 0.055507 -0.057514
C58   C     C_R   0.555087 0.944464 0.552452 -0.057399
C59   C     C_R   0.444913 0.055533 0.447548 -0.057361
C60   C     C_R   0.956438 0.460144 0.590926 0.027926
C61   C     C_R   0.043514 0.539862 0.409073 0.027914
C62   C     C_R   0.460139 0.590932 0.956464 0.027944
C63   C     C_R   0.539873 0.409061 0.043473 0.027894
C64   C     C_R   0.590917 0.956451 0.460146 0.027993
C65   C     C_R   0.889831 0.610084 0.889833 0.778859
C66   C     C_R   0.409081 0.043539 0.539857 0.027981
C67   C     C_R   0.110864 0.390423 0.389758 0.791337
C68   C     C_R   0.889127 0.609577 0.610243 0.791327
C69   C     C_R   0.390423 0.389756 0.110861 0.791400
C70   C     C_R   0.609578 0.610245 0.889128 0.791365
C71   C     C_R   0.389755 0.110869 0.390423 0.791199
C72   C     C_R   0.610245 0.889130 0.609577 0.791167
C73   C     C_R   0.181659 0.925951 0.403450 -0.129002
C74   C     C_R   0.818353 0.074036 0.596592 -0.129016
C75   C     C_R   0.926066 0.403109 0.181568 -0.129054
C76   C     C_R   0.219978 0.619347 0.194639 -0.218657
C77   C     C_R   0.073933 0.596897 0.818432 -0.129038
C78   C     C_R   0.400796 0.180784 0.926836 -0.128993
C79   C     C_R   0.599383 0.819268 0.073115 -0.129034
C80   C     C_R   0.217163 0.836699 0.409415 -0.127964
C81   C     C_R   0.782870 0.163267 0.590678 -0.127927
C82   C     C_R   0.836880 0.408878 0.217016 -0.128093
C83   C     C_R   0.163120 0.591129 0.782981 -0.128063
C84   C     C_R   0.405353 0.215829 0.838072 -0.127578
C85   C     C_R   0.594945 0.784259 0.161843 -0.127470
C86   C     C_R   0.163568 0.783163 0.462854 -0.140394
C87   C     C_R   0.779858 0.380730 0.805274 -0.218726
C88   C     C_R   0.836469 0.216799 0.537250 -0.140383
C89   C     C_R   0.783345 0.462303 0.163420 -0.140321
C90   C     C_R   0.216655 0.537703 0.836577 -0.140314
C91   C     C_R   0.458664 0.162215 0.784576 -0.139836
C92   C     C_R   0.541559 0.837850 0.215362 -0.139726
C93   C     C_R   0.074176 0.818606 0.510574 -0.138054
C94   C     C_R   0.925841 0.181376 0.489483 -0.138070
C95   C     C_R   0.818718 0.510212 0.074086 -0.138460
C96   C     C_R   0.181280 0.489793 0.925913 -0.138430
C97   C     C_R   0.507703 0.073275 0.819564 -0.137996
C98   C     C_R   0.619561 0.194603 0.219810 -0.218458
C99   C     C_R   0.492355 0.926740 0.180423 -0.137945
C100  C     C_R   0.036277 0.909347 0.505101 0.083677
C101  C     C_R   0.963726 0.090650 0.494918 0.083691
C102  C     C_R   0.909402 0.504925 0.036233 0.083546
C103  C     C_R   0.090598 0.495077 0.963767 0.083566
C104  C     C_R   0.503656 0.035799 0.909847 0.083601
C105  C     C_R   0.496368 0.964206 0.090150 0.083608
C106  C     C_R   0.090796 0.963779 0.450811 0.079427
C107  C     C_R   0.909205 0.036220 0.549204 0.079417
C108  C     C_R   0.963836 0.450640 0.090750 0.079454
F1    F     F_    0.038272 0.723930 0.105456 -0.634665
F2    F     F_    0.961543 0.275842 0.894557 -0.634625
F3    F     F_    0.723423 0.105378 0.038267 -0.634695
F4    F     F_    0.275984 0.894518 0.961705 -0.634601
F5    F     F_    0.105484 0.038317 0.723937 -0.634619
F6    F     F_    0.894500 0.961641 0.275819 -0.634562
H1    H     H_    0.808599 0.286228 0.532409 0.129790
H2    H     H_    0.338573 0.562992 0.019825 0.179574
H3    H     H_    0.437038 0.980213 0.661411 0.179483
H4    H     H_    0.562964 0.019794 0.338586 0.179442
H5    H     H_    0.226404 0.964507 0.361857 0.121854
H6    H     H_    0.773607 0.035482 0.638182 0.121879
H7    H     H_    0.964614 0.361527 0.226319 0.121962
H8    H     H_    0.035383 0.638483 0.773682 0.121968
H9    H     H_    0.359312 0.225605 0.965296 0.122986
H10   H     H_    0.640904 0.774451 0.034654 0.123107
H11   H     H_    0.286712 0.808871 0.372755 0.134630
H12   H     H_    0.191456 0.713714 0.467741 0.129770
H13   H     H_    0.713337 0.191079 0.627377 0.134665
H14   H     H_    0.809104 0.372077 0.286524 0.134789
H15   H     H_    0.190896 0.627935 0.713473 0.134792
H16   H     H_    0.367733 0.285059 0.810571 0.135244
H17   H     H_    0.632725 0.715076 0.189296 0.135298
H18   H     H_    0.035560 0.773922 0.552055 0.120264
H19   H     H_    0.964457 0.226060 0.448012 0.120287
H20   H     H_    0.774028 0.551684 0.035477 0.120475
H21   H     H_    0.225970 0.448323 0.964523 0.120466
H22   H     H_    0.549113 0.034715 0.774844 0.121602
H23   H     H_    0.286053 0.532972 0.808731 0.129948
H24   H     H_    0.450895 0.965284 0.225159 0.121563
H25   H     H_    0.205704 0.700577 0.064794 0.161662
H26   H     H_    0.794083 0.299362 0.935124 0.161651
H27   H     H_    0.700517 0.064726 0.205573 0.161629
H28   H     H_    0.299441 0.935203 0.794236 0.161633
H29   H     H_    0.064840 0.205738 0.700580 0.161661
H30   H     H_    0.935113 0.794164 0.299387 0.161672
H31   H     H_    0.289266 0.612986 0.171571 0.155181
H32   H     H_    0.710558 0.387146 0.828306 0.155218
H33   H     H_    0.613366 0.171538 0.289048 0.155178
H34   H     H_    0.713947 0.467036 0.191265 0.129953
H35   H     H_    0.387113 0.828452 0.710657 0.155191
H36   H     H_    0.171616 0.289288 0.612985 0.155167
H37   H     H_    0.828331 0.710595 0.387190 0.155157
H38   H     H_    0.214686 0.539394 0.330743 0.123083
H39   H     H_    0.785206 0.460791 0.669172 0.123037
H40   H     H_    0.539821 0.330736 0.214503 0.123205
H41   H     H_    0.460700 0.669286 0.785252 0.123036
H42   H     H_    0.330771 0.214705 0.539385 0.123020
H43   H     H_    0.669197 0.785214 0.460818 0.122928
H44   H     H_    0.972213 0.640514 0.276094 0.150005
H45   H     H_    0.537828 0.810327 0.284429 0.130018
H46   H     H_    0.027676 0.359324 0.723959 0.150009
H47   H     H_    0.640127 0.276060 0.972221 0.150033
H48   H     H_    0.359403 0.723889 0.027780 0.150056
H49   H     H_    0.276103 0.972252 0.640516 0.150070
H50   H     H_    0.723905 0.027738 0.359292 0.150043
H51   H     H_    0.462476 0.189762 0.715484 0.130022
H52   H     H_    0.980183 0.661421 0.437013 0.179613
H53   H     H_    0.019787 0.338581 0.562988 0.179579
H54   H     H_    0.661432 0.437004 0.980136 0.179629
O1    O     O_3   0.250000 0.250000 0.250000 -0.492812
O2    O     O_R   0.865800 0.694910 0.573470 -0.644812
O3    O     O_R   0.305090 0.426530 0.134200 -0.644864
O4    O     O_R   0.694910 0.573470 0.865800 -0.644853
O5    O     O_R   0.426530 0.134200 0.305090 -0.645041
O6    O     O_R   0.573470 0.865800 0.694910 -0.645025
O7    O     O_R   0.134190 0.426530 0.134200 -0.632143
O8    O     O_R   0.865810 0.573470 0.865800 -0.632150
O9    O     O_R   0.426530 0.134200 0.134190 -0.632393
O10   O     O_R   0.573470 0.865800 0.865810 -0.632455
O11   O     O_R   0.134200 0.134190 0.426530 -0.632159
O12   O     O_3   0.750000 0.750000 0.750000 -0.492815
O13   O     O_R   0.865800 0.865810 0.573470 -0.632174
O14   O     O_R   0.426530 0.305080 0.134210 -0.633280
O15   O     O_R   0.573470 0.694920 0.865790 -0.633235
O16   O     O_R   0.305080 0.134210 0.426530 -0.633249
O17   O     O_R   0.694920 0.865790 0.573470 -0.633230
O18   O     O_R   0.134210 0.426530 0.305080 -0.633295
O19   O     O_R   0.865790 0.573470 0.694920 -0.633285
O20   O     O_R   0.305080 0.134200 0.134200 -0.627852
O21   O     O_R   0.694920 0.865800 0.865800 -0.627832
O22   O     O_R   0.134200 0.134200 0.305080 -0.627571
O23   O     O_R   0.865800 0.865800 0.694920 -0.627544
O24   O     O_R   0.134200 0.305080 0.134200 -0.627816
O25   O     O_R   0.865800 0.694920 0.865800 -0.627810
O26   O     O_R   0.134200 0.305090 0.426530 -0.644820
Zn1   Zn    Zn3+2 0.206620 0.206630 0.380140 0.966552
Zn2   Zn    Zn3+2 0.793380 0.793370 0.619860 0.966547
Zn3   Zn    Zn3+2 0.206630 0.380140 0.206620 0.966501
Zn4   Zn    Zn3+2 0.793370 0.619860 0.793380 0.966509
Zn5   Zn    Zn3+2 0.380140 0.206620 0.206630 0.966255
Zn6   Zn    Zn3+2 0.619860 0.793380 0.793370 0.966229
Zn7   Zn    Zn3+2 0.206620 0.206620 0.206620 0.983766
Zn8   Zn    Zn3+2 0.793380 0.793380 0.793380 0.983802

loop_
_geom_bond_atom_site_label_1
_geom_bond_atom_site_label_2
_ccdc_geom_bond_type
C25   C31   A    
C89   H34   S    
C101  C107  A    
C73   H5    S    
C87   H32   S    
C86   H12   S    
C36   C42   A    
C1    C11   S    
C75   C82   A    
C58   C72   S    
O1    Zn1   S    
O11   Zn1   S    
C27   H44   S    
C29   C36   A    
C33   C39   A    
C82   C89   A    
C54   O24   A    
C92   H45   S    
C34   C40   A    
C23   C29   A    
O1    Zn3   S    
C86   C93   A    
C99   H24   S    
C83   H15   S    
O12   Zn8   S    
C42   C98   A    
C59   C66   A    
C22   C60   S    
C13   C46   A    
O5    Zn5   S    
C80   H11   S    
C77   C83   A    
C40   H25   S    
C4    C104  A    
O20   Zn7   S    
C28   H46   S    
C94   H19   S    
C55   C67   S    
C69   O3    A    
C20   C61   S    
C19   C26   A    
C53   C68   S    
C70   O4    A    
O7    Zn3   S    
C41   H26   S    
C80   C86   A    
C77   H8    S    
C74   C107  A    
C68   O2    A    
C85   C92   A    
C15   C22   A    
C34   F1    S    
C94   C101  A    
C2    C44   A    
C38   C45   A    
C11   C105  A    
C12   H36   S    
O24   Zn7   S    
C32   O11   A    
O4    Zn4   S    
O23   Zn8   S    
C72   O6    A    
C5    C79   A    
C67   O26   A    
O12   Zn2   S    
C95   C102  A    
C9    C103  A    
C69   O14   A    
O1    Zn5   S    
C48   C60   A    
C2    H35   S    
C23   C63   S    
O26   Zn1   S    
C48   C55   A    
C43   O23   A    
C8    C65   S    
C27   C34   A    
C22   C28   A    
C81   H13   S    
C2    C17   A    
C18   C25   A    
C1    O9    A    
C36   F3    S    
C41   C87   A    
C53   C60   A    
C57   C63   A    
C96   H21   S    
C65   O25   A    
C49   C63   A    
C10   C21   S    
C58   C64   A    
C99   C105  A    
C31   H49   S    
C17   C24   A    
C13   C19   A    
O19   Zn4   S    
C19   H43   S    
C14   C20   A    
C33   H50   S    
C28   C35   A    
C49   H54   S    
C3    C8    A    
C52   C64   A    
C38   F5    S    
C5    C105  A    
C43   O13   A    
C95   H20   S    
O25   Zn8   S    
C40   C76   A    
C30   C37   A    
C9    C108  A    
C51   C66   A    
C6    C100  A    
C54   O7    A    
C89   C95   A    
C4    C78   A    
O12   Zn6   S    
C52   C59   A    
C29   H47   S    
C26   C33   A    
C21   O21   A    
C6    C107  A    
C39   F6    S    
C82   H14   S    
C42   H27   S    
C7    C106  A    
C32   O22   A    
O18   Zn3   S    
C51   C58   A    
C91   C97   A    
C4    C11   A    
C102  C108  A    
C78   H9    S    
C93   C100  A    
C13   H37   S    
C35   F2    S    
C39   C46   A    
C21   O10   A    
C84   C91   A    
C76   H31   S    
C16   C23   A    
C56   C70   S    
C6    C43   S    
C65   O8    A    
C16   H40   S    
C50   C62   A    
C56   C62   A    
C30   H48   S    
C74   C81   A    
C12   C18   A    
C93   H18   S    
C98   H33   S    
C52   H4    S    
C79   C85   A    
C90   H23   S    
C18   H42   S    
C15   C87   A    
O14   Zn5   S    
C1    O20   A    
C3    C103  A    
C47   H52   S    
C83   C90   A    
O10   Zn6   S    
C24   C62   S    
C7    C32   S    
C14   C76   A    
C75   H7    S    
C50   C57   A    
C100  C106  A    
C71   O16   A    
C91   H51   S    
C25   C66   S    
O8    Zn4   S    
C12   C45   A    
C47   C61   A    
C46   H30   S    
C67   O18   A    
O22   Zn7   S    
C90   C96   A    
C20   C27   A    
C26   C64   S    
O21   Zn8   S    
O13   Zn2   S    
O16   Zn1   S    
C74   H6    S    
C79   H10   S    
O6    Zn6   S    
O15   Zn6   S    
C31   C38   A    
C47   C53   A    
C97   C104  A    
C88   H1    S    
C10   C104  A    
C5    C10   A    
O3    Zn3   S    
C49   C56   A    
C71   O5    A    
C85   H17   S    
O2    Zn2   S    
C16   C98   A    
C73   C106  A    
C48   H53   S    
C37   C44   A    
C55   C61   A    
C84   H16   S    
C51   H3    S    
C73   C80   A    
C50   H2    S    
C35   C41   A    
C24   C30   A    
C72   O17   A    
C15   H39   S    
C81   C88   A    
O12   Zn4   S    
O9    Zn5   S    
O1    Zn7   S    
C68   O19   A    
C78   C84   A    
C70   O15   A    
C75   C108  A    
C44   H28   S    
C7    C101  A    
C96   C103  A    
C14   H38   S    
C45   H29   S    
C88   C94   A    
C9    C54   S    
O17   Zn2   S    
C97   H22   S    
C57   C69   S    
C3    C77   A    
C8    C102  A    
C37   F4    S    
C92   C99   A    
C59   C71   S    
C17   H41   S    
