data_mof_unit_40050.cif
_audit_creation_date              2012-10-26T19:21:36-0400
_audit_creation_method            fapswitch 2.2
_symmetry_space_group_name_H-M    P1
_symmetry_Int_Tables_number       1
_space_group_crystal_system       triclinic
_cell_length_a                    9.916038
_cell_length_b                    11.179452
_cell_length_c                    15.815648
_cell_angle_alpha                 94.10471
_cell_angle_beta                  80.373034
_cell_angle_gamma                 110.547293
_cell_volume                      1618.44285195

loop_
_atom_site_label
_atom_site_type_symbol
_atom_type_description
_atom_site_fract_x
_atom_site_fract_y
_atom_site_fract_z
_atom_type_partial_charge
C1    C     C_R   0.554943 0.744317 0.503451 0.564457
C2    C     C_2   0.488616 0.060028 0.518833 0.070530
C3    C     C_2   0.919509 0.484936 0.496836 0.073331
C4    C     C_2   0.073743 0.503891 0.509588 0.073125
C5    C     C_R   0.411172 0.477430 0.662555 0.560516
C6    C     C_R   0.589474 0.523011 0.337634 0.551471
C7    C     C_R   0.357960 0.453796 0.756320 -0.023602
C8    C     C_R   0.645413 0.553492 0.244935 -0.030049
C9    C     C_R   0.160488 0.396774 0.879500 0.082202
C10   C     C_R   0.841858 0.618523 0.121310 0.082681
C11   C     C_R   0.207284 0.410954 0.790271 -0.028709
C12   C     C_R   0.445190 0.256468 0.494580 0.564742
C13   C     C_R   0.794564 0.583601 0.208622 -0.032796
C14   C     C_R   0.459521 0.473746 0.813497 0.059689
C15   C     C_R   0.547566 0.556941 0.191164 0.053265
C16   C     C_R   0.415291 0.481768 0.902525 0.012426
C17   C     C_R   0.587096 0.555921 0.102113 0.011906
C18   C     C_R   0.265233 0.424300 0.936307 0.022079
C19   C     C_R   0.736532 0.609507 0.067515 0.023710
C20   C     C_R   0.519178 0.536147 0.959172 0.040937
C21   C     C_R   0.479950 0.509809 0.047042 0.039242
C22   C     C_1   0.091731 0.300423 0.061975 0.268869
C23   C     C_R   0.337558 0.429578 0.076973 -0.091624
C24   C     C_1   0.907848 0.746547 0.946728 0.266751
C25   C     C_1   0.903105 0.589166 0.260967 0.295986
C26   C     C_1   0.097622 0.365441 0.734185 0.294031
C27   C     C_1   0.127039 0.578519 0.583316 0.312281
C28   C     C_1   0.848205 0.378060 0.444000 0.304937
C29   C     C_1   0.130506 0.395418 0.382066 0.409518
C30   C     C_1   0.911130 0.675184 0.566841 0.399246
C31   C     C_R   0.659478 0.622480 0.931007 -0.092441
C32   C     C_R   0.229712 0.390476 0.024344 0.012045
C33   C     C_R   0.769646 0.654789 0.982166 0.012411
C34   C     C_2   0.576350 0.880484 0.508224 -0.070552
C35   C     C_2   0.424868 0.123261 0.479073 -0.056566
C36   C     C_2   0.474804 0.928063 0.492056 0.080726
Cu1   Cu    Cu3+1 0.362980 0.479380 0.485080 1.052902
Cu2   Cu    Cu3+1 0.637020 0.520620 0.514920 1.054643
H1    H     H_    0.309743 0.395010 0.142168 0.157979
H2    H     H_    0.684612 0.663342 0.867684 0.149547
H3    H     H_    0.364649 0.080928 0.427006 0.133014
H4    H     H_    0.674661 0.942664 0.531536 0.132628
I1    I     I_    0.382239 0.638742 0.235993 -0.227342
I2    I     I_    0.656904 0.428964 0.774193 -0.226951
I3    I     I_    0.930648 0.355821 0.922767 -0.232519
I4    I     I_    0.070918 0.663485 0.074067 -0.243388
I5    I     I_    0.588850 0.136134 0.630153 -0.231994
I6    I     I_    0.286659 0.823137 0.430736 -0.262744
N1    N     N_2   0.842890 0.551600 0.537350 -0.288757
N2    N     N_1   0.966413 0.778136 0.591448 -0.251323
N3    N     N_2   0.157110 0.448400 0.462650 -0.292188
N4    N     N_1   0.982384 0.227778 0.093403 -0.207349
N5    N     N_1   0.017539 0.820791 0.917248 -0.204506
N6    N     N_1   0.991016 0.594786 0.302331 -0.229267
N7    N     N_1   0.009142 0.327484 0.689966 -0.223420
N8    N     N_1   0.168136 0.639621 0.642275 -0.241646
N9    N     N_1   0.794105 0.292492 0.400599 -0.258404
N10   N     N_1   0.109785 0.351027 0.314960 -0.265058
O1    O     O_R   0.426810 0.668300 0.492040 -0.469933
O2    O     O_R   0.573190 0.331700 0.507960 -0.474939
O3    O     O_R   0.658240 0.703130 0.517240 -0.503765
O4    O     O_R   0.341760 0.296870 0.482760 -0.501025
O5    O     O_R   0.319390 0.472820 0.610170 -0.505292
O6    O     O_R   0.680610 0.527180 0.389830 -0.510251
O7    O     O_R   0.550820 0.507640 0.635370 -0.466814
O8    O     O_R   0.449180 0.492360 0.364630 -0.478609

loop_
_geom_bond_atom_site_label_1
_geom_bond_atom_site_label_2
_ccdc_geom_bond_type
C2    C35   D    
C10   I4    S    
C31   C33   A    
C9    I3    S    
C8    C13   A    
C14   C16   A    
C2    I5    S    
C24   N5    T    
C12   O4    A    
C14   I2    S    
C34   C36   D    
C24   C33   S    
C34   H4    S    
Cu2   O7    S    
C10   C19   A    
C16   C20   A    
Cu2   O3    S    
C26   N7    T    
C21   C23   A    
Cu1   O4    S    
C30   N2    T    
C15   I1    S    
Cu2   N1    S    
C28   N9    T    
Cu1   O8    S    
C12   C35   S    
C7    C11   A    
C9    C11   A    
C13   C25   S    
Cu1   O1    S    
C35   H3    S    
C22   C32   S    
Cu1   Cu2   S    
Cu2   O2    S    
C29   N10   T    
C22   N4    T    
C3    C28   S    
C17   C19   A    
C30   N1    S    
C1    C34   S    
C36   I6    S    
C8    C15   A    
Cu2   O6    S    
C1    O1    A    
C3    N1    D    
Cu1   N3    S    
C23   H1    S    
C18   C32   A    
C25   N6    T    
C4    N3    D    
C6    O6    A    
C3    C4    S    
C12   O2    A    
C9    C18   A    
C6    O8    A    
C4    C27   S    
C1    O3    A    
C20   C21   A    
C5    O5    A    
C5    O7    A    
C29   N3    S    
C2    C36   S    
C5    C7    S    
C27   N8    T    
C6    C8    S    
C11   C26   S    
Cu1   O5    S    
C31   H2    S    
C15   C17   A    
C10   C13   A    
C7    C14   A    
C17   C21   A    
C23   C32   A    
C19   C33   A    
C20   C31   A    
C16   C18   A    
