data_mof_unit_40930.cif
_audit_creation_date              2012-12-10T17:02:14-0500
_audit_creation_method            fapswitch 2.2
_symmetry_space_group_name_H-M    P1
_symmetry_Int_Tables_number       1
_space_group_crystal_system       triclinic
_cell_length_a                    10.635087
_cell_length_b                    10.659927
_cell_length_c                    10.045112
_cell_angle_alpha                 89.358066
_cell_angle_beta                  87.24757
_cell_angle_gamma                 89.667165
_cell_volume                      1137.40580905

loop_
_atom_site_label
_atom_site_type_symbol
_atom_type_description
_atom_site_fract_x
_atom_site_fract_y
_atom_site_fract_z
_atom_type_partial_charge
C1    C     C_R   0.493745 0.262619 0.501383 0.939834
C2    C     C_R   0.052318 0.612227 0.572202 0.019815
C3    C     C_R   0.125752 0.510530 0.517169 -0.104423
C4    C     C_R   0.069939 0.409703 0.455239 -0.180366
C5    C     C_R   0.941935 0.406847 0.446329 -0.226559
C6    C     C_R   0.871593 0.510221 0.487846 -0.078668
C7    C     C_2   0.415911 0.934501 0.413973 0.204380
C8    C     C_2   0.492564 0.870085 0.493767 -0.405425
C9    C     C_2   0.435965 0.068860 0.401839 -0.171941
C10   C     C_2   0.468053 0.132048 0.508466 -0.389594
C11   C     C_2   0.555763 0.585055 0.921486 -0.121076
C12   C     C_R   0.259985 0.511013 0.504535 0.858055
C13   C     C_2   0.570901 0.572658 0.069622 0.036880
C14   C     C_R   0.495936 0.737358 0.498970 0.888708
C15   C     C_R   0.739554 0.498247 0.496460 0.866102
C16   C     C_R   0.093348 0.708269 0.658991 0.144214
C17   C     C_R   0.025358 0.822064 0.666635 -0.165199
C18   C     C_R   0.910170 0.834585 0.608776 -0.200795
C19   C     C_R   0.857450 0.731264 0.550876 -0.169927
C20   C     C_R   0.926542 0.618475 0.536246 0.084906
H1    H     H_    0.125812 0.331744 0.416068 0.136437
H2    H     H_    0.468074 0.088178 0.606729 0.157000
H3    H     H_    0.596580 0.666320 0.870285 0.142729
H4    H     H_    0.483493 0.415803 0.896797 0.212265
H5    H     H_    0.644574 0.626777 0.112598 0.083255
H6    H     H_    0.055798 0.897985 0.727943 0.149561
H7    H     H_    0.857147 0.921270 0.618516 0.144806
H8    H     H_    0.763420 0.740529 0.515331 0.130042
H9    H     H_    0.897682 0.324640 0.407006 0.141937
H10   H     H_    0.563893 0.915278 0.550073 0.129081
H11   H     H_    0.422925 0.115076 0.306551 0.151505
N1    N     N_2   0.501340 0.501330 0.852150 -0.178754
N2    N     N_2   0.501380 0.501360 0.147810 0.086483
O1    O     O_R   0.499980 0.319060 0.613040 -0.621903
O2    O     O_R   0.500020 0.319100 0.386900 -0.631207
O3    O     O_R   0.316750 0.499980 0.613090 -0.620439
O4    O     O_R   0.316790 0.500020 0.386950 -0.591733
O5    O     O_R   0.499980 0.680900 0.613100 -0.615267
O6    O     O_R   0.500020 0.680940 0.386960 -0.615984
O7    O     O_R   0.683210 0.499980 0.613050 -0.605472
O8    O     O_R   0.683250 0.500020 0.386910 -0.628347
Zn1   Zn    Zn3+2 0.499970 0.499970 0.650990 0.931999
Zn2   Zn    Zn3+2 0.500030 0.500030 0.349010 0.966954
O9    O     O_3   0.389659 0.470366 0.099374 -0.529755
C21   C     C_3   0.368548 0.342496 0.128842 -0.164610
H12   H     H_    0.320246 0.330099 0.228027 0.190457
H13   H     H_    0.456594 0.285243 0.121163 0.120848
H14   H     H_    0.304680 0.305103 0.054884 0.122553
C22   C     C_3   0.171713 0.681466 0.778182 -0.374315
C23   C     C_3   0.278231 0.775704 0.789886 -0.799718
H15   H     H_    0.313659 0.808300 0.690289 0.265270
H16   H     H_    0.243869 0.859263 0.846108 0.220059
H17   H     H_    0.355801 0.732820 0.844650 0.269432
H18   H     H_    0.108886 0.689959 0.869493 0.195462
H19   H     H_    0.204927 0.583868 0.784711 0.241297
C24   C     C_3   0.312988 0.875886 0.335025 -0.348972
C25   C     C_3   0.187633 0.945265 0.356802 -0.895186
H20   H     H_    0.162967 0.953511 0.464957 0.273114
H21   H     H_    0.192931 0.040648 0.311304 0.246212
H22   H     H_    0.111983 0.892743 0.309581 0.259215
H23   H     H_    0.341768 0.878890 0.227248 0.201030
H24   H     H_    0.295478 0.776695 0.364239 0.223735

loop_
_geom_bond_atom_site_label_1
_geom_bond_atom_site_label_2
_ccdc_geom_bond_type
C11   N1    D    
C23   H16   S    
H4    N1    S    
C13   N2    D    
C19   H8    S    
C16   C22   S    
C2    C16   A    
C14   O5    A    
C6    C20   A    
C9    C10   D    
O3    Zn1   S    
C19   C20   A    
O1    Zn1   S    
C8    H10   S    
O7    Zn1   S    
C17   C18   A    
C6    C15   S    
C7    C8    D    
C21   H12   S    
C10   H2    S    
C4    H1    S    
O8    Zn2   S    
C13   H5    S    
C25   H20   S    
C4    C5    A    
C7    C24   S    
C17   H6    S    
C11   H3    S    
C1    O1    A    
C2    C3    A    
C5    H9    S    
C21   H13   S    
C5    C6    A    
C24   H24   S    
C15   O7    A    
C25   H21   S    
C23   H17   S    
C12   O3    A    
C24   C25   S    
C9    H11   S    
C2    C20   A    
C3    C4    A    
N2    Zn2   S    
O5    Zn1   S    
C11   C13   S    
O2    Zn2   S    
O9    C21   S    
C15   O8    A    
C22   C23   S    
C1    C10   S    
C21   H14   S    
C12   O4    A    
C7    C9    S    
C1    O2    A    
N1    Zn1   S    
C24   H23   S    
C18   C19   A    
C25   H22   S    
O6    Zn2   S    
C3    C12   S    
C8    C14   S    
C23   H15   S    
C14   O6    A    
C22   H19   S    
N2    O9    S    
O4    Zn2   S    
C18   H7    S    
C22   H18   S    
C16   C17   A    
