data_mof_unit_7770.cif
_audit_creation_date              2012-12-11T16:24:00-0500
_audit_creation_method            fapswitch 2.2
_symmetry_space_group_name_H-M    P1
_symmetry_Int_Tables_number       1
_space_group_crystal_system       triclinic
_cell_length_a                    14.733189
_cell_length_b                    14.755831
_cell_length_c                    33.303969
_cell_angle_alpha                 95.715952
_cell_angle_beta                  95.938358
_cell_angle_gamma                 61.252329
_cell_volume                      6303.52032483

loop_
_atom_site_label
_atom_site_type_symbol
_atom_type_description
_atom_site_fract_x
_atom_site_fract_y
_atom_site_fract_z
_atom_type_partial_charge
C1    C     C_R   0.391046 0.699758 0.446124 0.541582
C2    C     C_R   0.332948 0.346313 0.308905 0.042052
C3    C     C_R   0.413345 0.263495 0.329033 -0.108111
C4    C     C_R   0.432150 0.273330 0.370721 -0.124848
C5    C     C_R   0.395977 0.272653 0.165033 -0.098966
C6    C     C_R   0.390494 0.254831 0.122761 -0.010993
C7    C     C_R   0.202365 0.363360 0.123040 -0.115450
C8    C     C_R   0.208615 0.382601 0.165098 0.008523
C9    C     C_R   0.306479 0.332667 0.185962 0.025257
C10   C     C_1   0.316053 0.337979 0.229383 -0.032535
C11   C     C_1   0.323087 0.341582 0.265673 -0.023608
C12   C     C_R   0.405961 0.386477 0.434013 0.544921
C13   C     C_R   0.290815 0.295784 0.101904 0.004763
C14   C     C_R   0.754678 0.375161 0.409685 0.021055
C15   C     C_R   0.783540 0.439577 0.392250 -0.130108
C16   C     C_R   0.810379 0.420215 0.352260 -0.120248
C17   C     C_R   0.809419 0.335795 0.329081 0.035787
C18   C     C_R   0.790072 0.265943 0.347633 -0.121438
C19   C     C_R   0.762748 0.285558 0.387647 -0.132584
C20   C     C_R   0.828363 0.313812 0.203753 0.345621
C21   C     C_R   0.819673 0.326159 0.285163 0.348452
C22   C     C_R   0.824155 0.391291 0.139964 -0.128966
C23   C     C_R   0.700515 0.410368 0.447434 0.543215
C24   C     C_R   0.856401 0.379401 0.101028 -0.142679
C25   C     C_R   0.915564 0.195028 0.100270 -0.136838
C26   C     C_R   0.884088 0.206839 0.139333 -0.130099
C27   C     C_R   0.842337 0.304381 0.160149 0.035385
C28   C     C_R   0.906660 0.280494 0.081628 0.022165
C29   C     C_R   0.371273 0.754848 0.409100 0.021118
C30   C     C_R   0.276688 0.785868 0.386186 -0.132208
C31   C     C_R   0.266534 0.813867 0.346637 -0.120715
C32   C     C_R   0.350665 0.811641 0.329377 0.035209
C33   C     C_R   0.441824 0.790267 0.353555 -0.120468
C34   C     C_R   0.392741 0.702483 0.560835 0.532329
C35   C     C_R   0.452080 0.762029 0.393147 -0.131256
C36   C     C_R   0.343174 0.828588 0.204384 0.347618
C37   C     C_R   0.346343 0.822001 0.285623 0.348134
C38   C     C_R   0.257016 0.833061 0.135654 -0.119965
C39   C     C_R   0.237334 0.863616 0.096102 -0.129188
C40   C     C_R   0.382029 0.900318 0.104567 -0.132999
C41   C     C_R   0.401796 0.869608 0.144175 -0.122427
C42   C     C_R   0.336248 0.840564 0.160641 0.034725
C43   C     C_R   0.296462 0.902342 0.080896 0.021737
C44   C     C_R   0.368638 0.367580 0.584043 0.018878
C45   C     C_R   0.407030 0.388668 0.548902 0.545017
C46   C     C_R   0.281811 0.446890 0.602791 -0.126934
C47   C     C_R   0.258795 0.434833 0.640822 -0.111121
C48   C     C_R   0.322127 0.343212 0.660630 0.032747
C49   C     C_R   0.402980 0.260533 0.640175 -0.123422
C50   C     C_R   0.426167 0.272693 0.602248 -0.135577
C51   C     C_R   0.308341 0.334259 0.784846 0.349350
C52   C     C_R   0.311936 0.337629 0.703746 0.346448
C53   C     C_R   0.225649 0.407323 0.850838 -0.146718
C54   C     C_R   0.218895 0.396536 0.891715 0.007872
C55   C     C_R   0.379767 0.234233 0.888907 -0.155915
C56   C     C_R   0.702697 0.412383 0.562381 0.519147
C57   C     C_R   0.386889 0.247024 0.848928 -0.128588
C58   C     C_R   0.307007 0.330405 0.828808 0.024460
C59   C     C_R   0.292127 0.303429 0.909888 0.039957
C60   C     C_R   0.757407 0.374595 0.602132 -0.024513
C61   C     C_R   0.817065 0.415650 0.625443 0.003199
C62   C     C_R   0.846778 0.390201 0.666127 -0.076738
C63   C     C_R   0.820817 0.323124 0.682978 0.006947
C64   C     C_R   0.769224 0.277116 0.659229 -0.123180
C65   C     C_R   0.738071 0.302256 0.619298 -0.138530
C66   C     C_R   0.894216 0.203347 0.823118 -0.118371
C67   C     C_R   0.370871 0.366552 0.392597 0.020102
C68   C     C_R   0.917235 0.199157 0.864765 -0.138153
C69   C     C_R   0.877204 0.381314 0.869531 -0.006821
C70   C     C_R   0.853422 0.383108 0.827454 -0.087117
C71   C     C_R   0.865307 0.294474 0.804461 0.025184
C72   C     C_1   0.851991 0.298221 0.761314 -0.022639
C73   C     C_1   0.839804 0.307277 0.725420 -0.024308
C74   C     C_R   0.913546 0.285578 0.888444 0.015114
C75   C     C_R   0.376570 0.754209 0.601707 0.029205
C76   C     C_R   0.276836 0.825895 0.615156 -0.004964
C77   C     C_R   0.266179 0.851905 0.656840 -0.096194
C78   C     C_R   0.285718 0.446702 0.372428 -0.125654
C79   C     C_R   0.352228 0.809304 0.684422 0.025955
C80   C     C_R   0.450798 0.745443 0.670798 -0.117093
C81   C     C_R   0.463015 0.718450 0.629803 -0.133903
C82   C     C_R   0.393701 0.877148 0.829720 -0.087487
C83   C     C_R   0.380810 0.905895 0.871247 -0.011392
C84   C     C_R   0.224746 0.884623 0.863637 -0.134616
C85   C     C_R   0.239560 0.856801 0.822769 -0.118107
C86   C     C_R   0.322014 0.856243 0.805670 0.024501
C87   C     C_1   0.330873 0.839586 0.762849 -0.023462
C88   C     C_1   0.339505 0.826832 0.726992 -0.020782
C89   C     C_R   0.267157 0.436627 0.330712 -0.110752
C90   C     C_R   0.291394 0.913870 0.888185 0.016387
C91   C     C_R   0.963346 0.263991 0.045484 0.540616
C92   C     C_R   0.273111 0.259864 0.059958 0.539437
C93   C     C_R   0.259122 0.959564 0.043784 0.547882
C94   C     C_R   0.963366 0.267917 0.930335 0.529710
C95   C     C_R   0.271630 0.265162 0.945697 0.570001
C96   C     C_R   0.256541 0.965272 0.928735 0.536989
Cr1   Cr    Cr6+3 0.576280 0.580550 0.506370 1.015299
Cr2   Cr    Cr6+3 0.346780 0.572400 0.496520 1.007738
Cr3   Cr    Cr6+3 0.576960 0.347070 0.497150 1.009660
Cr4   Cr    Cr6+3 0.087320 0.083240 0.984860 1.013204
Cr5   Cr    Cr6+3 0.087720 0.316210 0.996740 1.052029
Cr6   Cr    Cr6+3 0.317350 0.090340 0.995890 0.989097
H1    H     H_    0.741584 0.234097 0.400386 0.127793
H2    H     H_    0.847405 0.446762 0.087093 0.125160
H3    H     H_    0.827101 0.474233 0.338993 0.132046
H4    H     H_    0.789949 0.199516 0.330623 0.132762
H5    H     H_    0.790086 0.467810 0.155007 0.132283
H6    H     H_    0.953623 0.117803 0.085932 0.131622
H7    H     H_    0.898344 0.138531 0.154018 0.132397
H8    H     H_    0.212589 0.782323 0.397857 0.127896
H9    H     H_    0.525716 0.739258 0.410225 0.129495
H10   H     H_    0.171677 0.863036 0.078374 0.132864
H11   H     H_    0.469571 0.237493 0.182425 0.116161
H12   H     H_    0.194457 0.832155 0.328991 0.134761
H13   H     H_    0.507528 0.789222 0.341226 0.134517
H14   H     H_    0.206497 0.808886 0.147249 0.134772
H15   H     H_    0.429489 0.929058 0.093531 0.125847
H16   H     H_    0.464343 0.874861 0.162557 0.132649
H17   H     H_    0.235397 0.520686 0.589292 0.134993
H18   H     H_    0.492746 0.209758 0.588281 0.129538
H19   H     H_    0.195072 0.499429 0.655569 0.148465
H20   H     H_    0.452236 0.188215 0.654340 0.136256
H21   H     H_    0.464324 0.193139 0.312284 0.116947
H22   H     H_    0.166639 0.475389 0.836119 0.118645
H23   H     H_    0.440174 0.165430 0.902396 0.126154
H24   H     H_    0.453041 0.188397 0.833310 0.136531
H25   H     H_    0.944041 0.125708 0.878020 0.132280
H26   H     H_    0.902574 0.134463 0.805331 0.115167
H27   H     H_    0.749066 0.224946 0.672058 0.121250
H28   H     H_    0.693409 0.268625 0.602554 0.144024
H29   H     H_    0.829101 0.452256 0.811520 0.110105
H30   H     H_    0.498216 0.210214 0.385362 0.128920
H31   H     H_    0.889201 0.423386 0.684946 0.163522
H32   H     H_    0.457315 0.874143 0.815080 0.110158
H33   H     H_    0.517893 0.712976 0.692051 0.123546
H34   H     H_    0.539877 0.663795 0.620437 0.147143
H35   H     H_    0.184349 0.839453 0.804195 0.118451
H36   H     H_    0.157173 0.888451 0.875487 0.134299
H37   H     H_    0.190471 0.903595 0.668019 0.109180
H38   H     H_    0.237264 0.519505 0.388377 0.128373
H39   H     H_    0.127409 0.396149 0.106661 0.136573
H40   H     H_    0.204479 0.500942 0.315254 0.111308
H41   H     H_    0.779098 0.508678 0.408601 0.129970
N1    N     N_R   0.816361 0.400518 0.226031 -0.244824
N2    N     N_R   0.239269 0.419550 0.724928 -0.226078
N3    N     N_R   0.382024 0.253883 0.723880 -0.236585
N4    N     N_R   0.380020 0.252114 0.763548 -0.236435
N5    N     N_R   0.811803 0.406683 0.265907 -0.235996
N6    N     N_R   0.830992 0.239567 0.262886 -0.232547
N7    N     N_R   0.835997 0.233236 0.222965 -0.234284
N8    N     N_R   0.266212 0.823193 0.221348 -0.232010
N9    N     N_R   0.267951 0.819599 0.261127 -0.231740
N10   N     N_R   0.423660 0.827032 0.268698 -0.231903
N11   N     N_R   0.421739 0.830977 0.228853 -0.232310
N12   N     N_R   0.237118 0.417691 0.764704 -0.230595
O1    O     O_R   0.679450 0.499830 0.463150 -0.520692
O2    O     O_R   0.356040 0.477400 0.534170 -0.500927
O3    O     O_R   0.495910 0.323070 0.537100 -0.522181
O4    O     O_R   0.663920 0.359620 0.542290 -0.500209
O5    O     O_3   0.500010 0.500010 0.500010 -0.232904
O6    O     O_R   0.170070 0.978950 0.027680 -0.517134
O7    O     O_R   0.001760 0.175230 0.026640 -0.502038
O8    O     O_R   0.984760 0.333570 0.037150 -0.522248
O9    O     O_R   0.183410 0.309240 0.041890 -0.491279
O10   O     O_R   0.340240 0.172500 0.045430 -0.529256
O11   O     O_R   0.309670 0.000990 0.032050 -0.502278
O12   O     O_R   0.480650 0.664000 0.464630 -0.501031
O13   O     O_R   0.168330 0.982130 0.939200 -0.516164
O14   O     O_R   0.000140 0.178170 0.944610 -0.501702
O15   O     O_R   0.983010 0.336750 0.948660 -0.528713
O16   O     O_R   0.181800 0.312190 0.959860 -0.444842
O17   O     O_R   0.338500 0.175680 0.956950 -0.548461
O18   O     O_R   0.308050 0.003930 0.950020 -0.517560
O19   O     O_3   0.164130 0.163270 0.992500 -0.239557
O20   O     O_R   0.323930 0.675950 0.455370 -0.522726
O21   O     O_R   0.354700 0.475360 0.451930 -0.501480
O22   O     O_R   0.494470 0.320860 0.448390 -0.519281
O23   O     O_R   0.662580 0.357570 0.460050 -0.501762
O24   O     O_R   0.680900 0.502040 0.551870 -0.526218
O25   O     O_R   0.481990 0.666040 0.546870 -0.500703
O26   O     O_R   0.325370 0.678160 0.544080 -0.522006
C97   C     C_3   0.488668 0.189799 0.100152 -0.242572
C98   C     C_3   0.589533 0.181134 0.122019 -0.314002
C99   C     C_3   0.679060 0.129484 0.094096 -0.446186
H42   H     H_    0.689380 0.052254 0.082221 0.149295
H43   H     H_    0.664080 0.178439 0.068393 0.158674
H44   H     H_    0.751876 0.118848 0.111188 0.152518
H45   H     H_    0.578925 0.259412 0.132429 0.179522
H46   H     H_    0.611004 0.133118 0.148558 0.161064
H47   H     H_    0.498160 0.110460 0.093639 0.164255
H48   H     H_    0.478399 0.225310 0.070958 0.166381
C100  C     C_2   0.136069 0.485070 0.913713 0.221817
H49   H     H_    0.067790 0.540526 0.896931 0.079637
O27   O     O_2   0.145850 0.501096 0.950167 -0.497110
C101  C     C_2   0.851184 0.482231 0.608019 0.226914
H50   H     H_    0.849181 0.485596 0.575573 0.131547
O28   O     O_2   0.884337 0.532803 0.629815 -0.516657
C102  C     C_3   0.869022 0.478456 0.893538 -0.239057
C103  C     C_3   0.819690 0.578583 0.870804 -0.330674
C104  C     C_3   0.811906 0.669727 0.898950 -0.459678
H51   H     H_    0.754036 0.688970 0.921588 0.155667
H52   H     H_    0.888111 0.651728 0.914935 0.164342
H53   H     H_    0.787620 0.737600 0.880808 0.148074
H54   H     H_    0.868735 0.569726 0.845937 0.158319
H55   H     H_    0.740546 0.596097 0.858045 0.167018
H56   H     H_    0.823068 0.492499 0.920113 0.166421
H57   H     H_    0.948526 0.464048 0.904044 0.182343
C105  C     C_3   0.458236 0.932209 0.896733 -0.241785
C106  C     C_3   0.555779 0.912328 0.876477 -0.331017
C107  C     C_3   0.628878 0.935621 0.906406 -0.457715
H58   H     H_    0.589071 0.016549 0.919205 0.152433
H59   H     H_    0.656959 0.882779 0.931620 0.149842
H60   H     H_    0.696543 0.924998 0.890728 0.144894
H61   H     H_    0.597553 0.830097 0.865023 0.165517
H62   H     H_    0.533394 0.963435 0.850855 0.161943
H63   H     H_    0.417699 0.015841 0.905824 0.191467
H64   H     H_    0.484026 0.886418 0.924120 0.157868
C108  C     C_3   0.181231 0.875718 0.586472 -0.251209
C109  C     C_3   0.191255 0.945955 0.558157 -0.290276
C110  C     C_3   0.093894 0.997868 0.530047 -0.447201
H65   H     H_    0.080815 0.938500 0.510974 0.156260
H66   H     H_    0.025137 0.046577 0.547872 0.153672
H67   H     H_    0.103411 0.048043 0.509965 0.147790
H68   H     H_    0.203615 0.006862 0.576423 0.167918
H69   H     H_    0.258715 0.900373 0.539382 0.168129
H70   H     H_    0.166416 0.815792 0.568885 0.173932
H71   H     H_    0.111287 0.923744 0.603836 0.131500
C111  C     C_3   0.113168 0.451473 0.188838 -0.249303
C112  C     C_3   0.009925 0.505980 0.163613 -0.316172
C113  C     C_3   0.921156 0.575039 0.190502 -0.442958
H72   H     H_    0.912384 0.528235 0.212446 0.185960
H73   H     H_    0.936001 0.636061 0.207249 0.157100
H74   H     H_    0.847604 0.612969 0.171509 0.144170
H75   H     H_    0.015731 0.554731 0.141665 0.164649
H76   H     H_    0.991643 0.447189 0.146921 0.172523
H77   H     H_    0.105145 0.403328 0.210455 0.160751
H78   H     H_    0.127169 0.511881 0.206717 0.153251

loop_
_geom_bond_atom_site_label_1
_geom_bond_atom_site_label_2
_ccdc_geom_bond_type
C8    C9    A    
C7    C13   A    
C66   C68   A    
C87   C88   T    
C112  H76   S    
C52   N2    A    
Cr2   O20   S    
Cr3   O4    S    
C102  H56   S    
C41   C42   A    
C20   N1    A    
C34   O25   A    
N1    N5    A    
C110  H66   S    
C65   H28   S    
C8    C111  S    
C36   N11   A    
C7    C8    A    
C4    H30   S    
C85   C86   A    
C25   C28   A    
C51   N12   A    
C26   C27   A    
C112  C113  S    
C80   H33   S    
C54   C100  S    
C6    C97   S    
C50   H18   S    
C62   H31   S    
C38   C42   A    
C56   O4    A    
C55   C59   A    
C104  H53   S    
C94   O14   A    
C5    C6    A    
Cr1   O24   S    
C1    O12   A    
C68   C74   A    
C89   H40   S    
C103  H55   S    
Cr2   O21   S    
C99   H42   S    
C113  H74   S    
C105  H63   S    
C18   C19   A    
Cr1   O1    S    
C112  H75   S    
C49   C50   A    
C74   C94   S    
C97   C98   S    
C110  H65   S    
C23   O23   A    
C43   C93   S    
C109  H68   S    
C36   C42   S    
C92   O10   A    
C40   C43   A    
C1    O20   A    
C55   H23   S    
Cr4   O6    S    
C3    H21   S    
C104  H51   S    
C47   C48   A    
C98   H45   S    
N8    N9    A    
C96   O13   A    
C91   O7    A    
Cr5   O16   S    
C70   C71   A    
C21   N6    A    
C41   H16   S    
C95   O17   A    
C61   C101  S    
C31   H12   S    
C61   C62   A    
C34   C75   S    
C12   O21   A    
C92   O9    A    
C40   H15   S    
C102  H57   S    
C84   H36   S    
C103  C104  S    
Cr6   O11   S    
C23   O1    A    
C91   O8    A    
Cr5   O19   S    
C113  H72   S    
C67   C78   A    
C84   C90   A    
C2    C11   S    
C98   H46   S    
C79   C88   S    
C44   C46   A    
C106  C107  S    
C57   C58   A    
C54   C59   A    
C77   C79   A    
C78   C89   A    
Cr6   O17   S    
C38   C39   A    
C12   C67   S    
C33   H13   S    
C96   O18   A    
C21   N5    A    
C37   N10   A    
Cr5   O8    S    
C84   C85   A    
C45   O2    A    
C76   C77   A    
Cr3   O23   S    
C76   C108  S    
C109  C110  S    
C86   C87   S    
C16   C17   A    
Cr1   O25   S    
C39   C43   A    
C101  H50   S    
C63   C73   S    
C83   C105  S    
C25   C26   A    
Cr1   O12   S    
C19   H1    S    
C15   C16   A    
C17   C21   S    
C56   C60   S    
C32   C33   A    
C60   C61   A    
C24   H2    S    
C100  O27   D    
C14   C23   S    
C82   H32   S    
C2    C89   A    
C113  H73   S    
C75   C76   A    
Cr1   O5    S    
C66   C71   A    
C5    C9    A    
C29   C30   A    
C38   H14   S    
C31   C32   A    
C26   H7    S    
Cr2   O2    S    
C93   O6    A    
Cr6   O18   S    
C62   C63   A    
C1    C29   S    
C17   C18   A    
C98   C99   S    
Cr5   O15   S    
C51   C58   S    
C106  H62   S    
C32   C37   S    
C109  H69   S    
C90   C96   S    
C68   H25   S    
C105  C106  S    
C51   N4    A    
C102  C103  S    
C16   H3    S    
C59   C95   S    
C15   H41   S    
C40   C41   A    
C30   H8    S    
C93   O11   A    
C107  H58   S    
Cr6   O10   S    
C107  H59   S    
C22   C27   A    
C55   C57   A    
C13   C92   S    
Cr4   O19   S    
C103  H54   S    
C22   C24   A    
C79   C80   A    
C97   H48   S    
C37   N9    A    
C53   C54   A    
C3    C4    A    
C85   H35   S    
C108  H71   S    
C7    H39   S    
C35   H9    S    
C44   C45   S    
C81   H34   S    
N3    N4    A    
C9    C10   S    
C44   C50   A    
C105  H64   S    
C57   H24   S    
C83   C90   A    
C46   C47   A    
C39   H10   S    
C52   N3    A    
C5    H11   S    
Cr4   O14   S    
C14   C15   A    
C14   C19   A    
C66   H26   S    
Cr5   O9    S    
C75   C81   A    
C45   O3    A    
C24   C28   A    
Cr2   O5    S    
C80   C81   A    
C53   H22   S    
C78   H38   S    
C60   C65   A    
C4    C67   A    
C53   C58   A    
C36   N8    A    
Cr3   O22   S    
C20   C27   S    
Cr6   O19   S    
C107  H60   S    
C29   C35   A    
C106  H61   S    
C99   H43   S    
C99   H44   S    
Cr4   O13   S    
C100  H49   S    
Cr2   O26   S    
C2    C3    A    
C111  H78   S    
C82   C86   A    
N6    N7    A    
C64   C65   A    
C6    C13   A    
C34   O26   A    
C108  C109  S    
C30   C31   A    
C95   O16   A    
C18   H4    S    
C72   C73   T    
C48   C49   A    
C49   H20   S    
C70   H29   S    
C33   C35   A    
C20   N7    A    
C46   H17   S    
C12   O22   A    
C28   C91   S    
C110  H67   S    
C69   C70   A    
C111  H77   S    
C47   H19   S    
C10   C11   T    
C111  C112  S    
C63   C64   A    
N2    N12   A    
C48   C52   S    
C71   C72   S    
C64   H27   S    
C104  H52   S    
C82   C83   A    
Cr3   O3    S    
C69   C74   A    
Cr4   O7    S    
C97   H47   S    
N10   N11   A    
Cr3   O5    S    
C69   C102  S    
C108  H70   S    
C77   H37   S    
C94   O15   A    
C22   H5    S    
C25   H6    S    
C101  O28   D    
C56   O24   A    
