data_mof_unit_42635.cif
_audit_creation_date              2012-12-10T17:34:58-0500
_audit_creation_method            fapswitch 2.2
_symmetry_space_group_name_H-M    P1
_symmetry_Int_Tables_number       1
_space_group_crystal_system       triclinic
_cell_length_a                    12.334165
_cell_length_b                    13.192111
_cell_length_c                    13.81944
_cell_angle_alpha                 105.386469
_cell_angle_beta                  73.543426
_cell_angle_gamma                 116.642074
_cell_volume                      1902.28013308

loop_
_atom_site_label
_atom_site_type_symbol
_atom_type_description
_atom_site_fract_x
_atom_site_fract_y
_atom_site_fract_z
_atom_type_partial_charge
C1    C     C_R   0.144587 0.713051 0.505367 0.814881
C2    C     C_1   0.970855 0.502046 0.791691 -0.191917
C3    C     C_R   0.737118 0.963092 0.427415 -0.137211
C4    C     C_R   0.773300 0.164002 0.475275 -0.043474
C5    C     C_R   0.176852 0.916294 0.557113 -0.197596
C6    C     C_R   0.253361 0.031296 0.577824 -0.175375
C7    C     C_R   0.380567 0.066959 0.549478 -0.135392
C8    C     C_R   0.434332 0.988432 0.493102 0.017341
C9    C     C_R   0.355631 0.872842 0.463386 -0.095280
C10   C     C_R   0.563855 0.019879 0.470003 0.008583
C11   C     C_R   0.611650 0.934034 0.430446 -0.005460
C12   C     C_R   0.983477 0.503562 0.686502 0.816483
C13   C     C_R   0.533949 0.823030 0.390675 0.323594
C14   C     C_R   0.409770 0.798880 0.395425 0.390649
C15   C     C_R   0.647160 0.134331 0.486912 -0.197631
C16   C     C_R   0.817532 0.077670 0.449826 -0.217708
C17   C     C_R   0.226450 0.835333 0.504043 -0.080800
C18   C     C_R   0.646665 0.684445 0.653516 -0.361117
C19   C     C_R   0.249789 0.348710 0.365944 -0.043641
C20   C     C_R   0.345302 0.309806 0.339703 0.407956
C21   C     C_R   0.445431 0.369364 0.390143 -0.254088
C22   C     C_R   0.449470 0.463092 0.469442 -0.055993
C23   C     C_R   0.855815 0.286173 0.487156 0.782083
C24   C     C_R   0.347296 0.494966 0.495775 0.245928
C25   C     C_R   0.550510 0.525908 0.523632 -0.054739
C26   C     C_R   0.548037 0.620734 0.601068 0.037111
C27   C     C_R   0.446873 0.650840 0.626962 0.401782
C28   C     C_R   0.348060 0.586751 0.575690 -0.242059
C29   C     C_R   0.655720 0.500152 0.503499 -0.051455
C30   C     C_R   0.745343 0.652023 0.633314 0.632822
C31   C     C_R   0.015678 0.495188 0.313378 0.810488
C32   C     C_1   0.026030 0.493549 0.207851 -0.176801
C33   C     C_2   0.043369 0.494503 0.014112 -0.173758
C34   C     C_2   0.951248 0.498340 0.985197 -0.155807
C35   C     C_1   0.960516 0.500259 0.880184 -0.017531
C36   C     C_1   0.034759 0.493438 0.119214 0.004695
Cu1   Cu    Cu3+1 0.899780 0.525060 0.522890 0.967492
Cu2   Cu    Cu3+1 0.100220 0.474940 0.477110 0.956964
H1    H     H_    0.868948 0.500115 0.040004 0.163290
H2    H     H_    0.666205 0.430993 0.444964 0.141132
H3    H     H_    0.174023 0.309096 0.325484 0.130687
H4    H     H_    0.518554 0.339323 0.365847 0.156825
H5    H     H_    0.125836 0.493086 0.959318 0.146355
H6    H     H_    0.914510 0.099107 0.443992 0.158030
H7    H     H_    0.774220 0.898319 0.405818 0.156877
H8    H     H_    0.615871 0.202442 0.504781 0.144437
H9    H     H_    0.078734 0.890215 0.587153 0.183373
H10   H     H_    0.433705 0.155801 0.576406 0.123968
H11   H     H_    0.214077 0.092463 0.620890 0.140531
N1    N     N_R   0.748810 0.563010 0.557590 -0.208193
N2    N     N_R   0.250540 0.437620 0.443020 -0.202320
O1    O     O_R   0.025040 0.682470 0.528790 -0.545168
O2    O     O_R   0.194310 0.640150 0.490130 -0.548445
O3    O     O_R   0.903380 0.524130 0.659910 -0.549368
O4    O     O_R   0.072660 0.481800 0.621240 -0.603010
O5    O     O_R   0.805690 0.359850 0.509870 -0.597210
O6    O     O_R   0.974960 0.317530 0.471210 -0.593509
O7    O     O_R   0.927340 0.518200 0.378760 -0.582291
O8    O     O_R   0.096620 0.475870 0.340090 -0.551573
O9    O     O_3   0.342179 0.702931 0.333190 -0.563893
C37   C     C_3   0.359958 0.730414 0.235852 0.046512
H12   H     H_    0.340016 0.648951 0.180479 0.172157
H13   H     H_    0.456680 0.788707 0.208085 0.108573
C38   C     C_3   0.272185 0.783197 0.234609 -0.367294
H14   H     H_    0.297472 0.869338 0.282859 0.217280
H15   H     H_    0.175852 0.728108 0.266234 0.221281
C39   C     C_3   0.279911 0.796587 0.126068 -0.921258
H16   H     H_    0.374605 0.855950 0.095225 0.254580
H17   H     H_    0.213852 0.832462 0.126375 0.251400
H18   H     H_    0.256478 0.712080 0.075089 0.259235
O10   O     O_3   0.846890 0.716627 0.680107 -0.594312
C40   C     C_3   0.813734 0.732747 0.788243 0.028217
H19   H     H_    0.859243 0.693666 0.817085 0.182116
H20   H     H_    0.712756 0.690822 0.819175 0.113102
C41   C     C_3   0.862792 0.861539 0.829699 -0.347117
H21   H     H_    0.964468 0.901054 0.802462 0.222511
H22   H     H_    0.819898 0.902597 0.800264 0.219006
C42   C     C_3   0.834939 0.884560 0.946323 -0.931352
H23   H     H_    0.733539 0.850627 0.975105 0.251764
H24   H     H_    0.874884 0.978600 0.973588 0.259566
H25   H     H_    0.876337 0.843653 0.977587 0.259003
O11   O     O_3   0.453758 0.752470 0.693474 -0.611940
C43   C     C_3   0.349318 0.737146 0.773819 0.023551
H26   H     H_    0.383347 0.767113 0.847015 0.170058
H27   H     H_    0.281192 0.646189 0.775521 0.117299
C44   C     C_3   0.285703 0.811724 0.768700 -0.303504
H28   H     H_    0.356081 0.899850 0.758727 0.242352
H29   H     H_    0.239174 0.775163 0.701818 0.198415
C45   C     C_3   0.190442 0.819807 0.865534 -0.931254
H30   H     H_    0.119679 0.733088 0.878479 0.264292
H31   H     H_    0.143770 0.871378 0.857571 0.257867
H32   H     H_    0.236189 0.862210 0.932803 0.258958
H33   H     H_    0.647451 0.759019 0.710461 0.190141
O12   O     O_3   0.350604 0.219831 0.260943 -0.613160
C46   C     C_3   0.235781 0.123411 0.258689 0.047286
H34   H     H_    0.251535 0.058801 0.192523 0.180072
H35   H     H_    0.165126 0.143630 0.242569 0.118755
C47   C     C_3   0.188097 0.067454 0.355426 -0.364649
H36   H     H_    0.261541 0.048812 0.368768 0.240928
H37   H     H_    0.164388 0.126917 0.422924 0.205333
C48   C     C_3   0.072947 0.955949 0.344999 -0.928337
H38   H     H_    0.001304 0.971201 0.324677 0.243766
H39   H     H_    0.034773 0.922059 0.418406 0.266792
H40   H     H_    0.095821 0.890352 0.284637 0.261372
H41   H     H_    0.273661 0.612737 0.600522 0.197965
O13   O     O_3   0.573286 0.733986 0.355723 -0.586279
C49   C     C_3   0.645197 0.740171 0.255665 0.057317
H42   H     H_    0.743599 0.769479 0.259831 0.144864
H43   H     H_    0.640317 0.800682 0.215668 0.108864
C50   C     C_3   0.604021 0.619567 0.192588 -0.280573
H44   H     H_    0.618584 0.561759 0.228621 0.229335
H45   H     H_    0.503857 0.585139 0.191858 0.229126
C51   C     C_3   0.675975 0.619817 0.082746 -0.973118
H46   H     H_    0.655213 0.670203 0.043170 0.256068
H47   H     H_    0.648393 0.530322 0.040916 0.264402
H48   H     H_    0.776900 0.657344 0.081420 0.258121

loop_
_geom_bond_atom_site_label_1
_geom_bond_atom_site_label_2
_ccdc_geom_bond_type
C2    C35   T    
C48   H38   S    
C46   H34   S    
C18   C26   A    
C41   H21   S    
C2    C12   S    
C30   O10   S    
C46   C47   S    
C7    C8    A    
C5    H9    S    
C26   C27   A    
C43   H26   S    
C32   C36   T    
C31   O7    A    
C4    C23   S    
C10   C15   A    
C5    C6    A    
C42   H24   S    
C5    C17   A    
O13   C49   S    
C33   C36   S    
C34   C35   S    
C31   O8    A    
C37   H13   S    
C1    O2    A    
C50   H44   S    
Cu1   O5    S    
Cu2   O4    S    
C19   C20   A    
C8    C9    A    
C22   C25   A    
C49   H42   S    
C18   C30   A    
C45   H31   S    
C16   H6    S    
Cu1   O7    S    
C51   H48   S    
Cu2   O8    S    
C24   N2    A    
C30   N1    A    
C48   H39   S    
C21   C22   A    
C49   H43   S    
O12   C46   S    
C40   C41   S    
C1    O1    A    
C29   N1    A    
C25   C29   A    
C39   H16   S    
C33   H5    S    
C38   C39   S    
C23   O5    A    
C40   H20   S    
Cu1   O1    S    
C44   H28   S    
C13   O13   S    
Cu2   N2    S    
C25   C26   A    
C3    H7    S    
C34   H1    S    
O9    C37   S    
C39   H17   S    
C38   H15   S    
C4    C16   A    
C37   C38   S    
C9    C14   A    
Cu1   Cu2   S    
Cu2   O6    S    
C31   C32   S    
C28   H41   S    
C33   C34   D    
C45   H32   S    
C41   H22   S    
C50   C51   S    
Cu1   O3    S    
C9    C17   A    
C43   H27   S    
C47   H36   S    
C48   H40   S    
C47   H37   S    
C49   C50   S    
C22   C24   A    
C51   H46   S    
C23   O6    A    
C20   O12   S    
C42   H23   S    
C27   O11   S    
C24   C28   A    
C40   H19   S    
C44   C45   S    
C46   H35   S    
C6    C7    A    
C47   C48   S    
C14   O9    S    
C1    C17   S    
C39   H18   S    
C38   H14   S    
C4    C15   A    
O10   C40   S    
C7    H10   S    
Cu1   N1    S    
C11   C13   A    
C42   H25   S    
Cu2   O2    S    
C29   H2    S    
C44   H29   S    
C6    H11   S    
C37   H12   S    
C41   C42   S    
C50   H45   S    
C12   O4    A    
C3    C11   A    
C10   C11   A    
C21   H4    S    
C19   N2    A    
C43   C44   S    
C20   C21   A    
C8    C10   A    
O11   C43   S    
C27   C28   A    
C18   H33   S    
C15   H8    S    
C45   H30   S    
C13   C14   A    
C12   O3    A    
C3    C16   A    
C19   H3    S    
C51   H47   S    
