data_mof_unit_43096.cif
_audit_creation_date              2013-03-05T16:00:25-0500
_audit_creation_method            fapswitch 2.2
_symmetry_space_group_name_H-M    P1
_symmetry_Int_Tables_number       1
_space_group_crystal_system       triclinic
_cell_length_a                    8.417085
_cell_length_b                    12.785915
_cell_length_c                    26.888764
_cell_angle_alpha                 97.380632
_cell_angle_beta                  92.553194
_cell_angle_gamma                 81.317727
_cell_volume                      2835.97632809

loop_
_atom_site_label
_atom_site_type_symbol
_atom_site_description
_atom_site_fract_x
_atom_site_fract_y
_atom_site_fract_z
_atom_type_partial_charge
P1    P     P_3+3 0.072810 0.589830 0.610360 0.475775
O1    O     O_2   0.907040 0.557650 0.617910 -0.366716
O2    O     O_3   0.139040 0.557570 0.557730 -0.396993
O3    O     O_3   0.684960 0.360550 0.588460 -0.394409
O4    O     O_2   0.832022 0.423182 0.673467 -0.410571
O5    O     O_3   0.072150 0.727248 0.626850 -0.576465
O6    O     O_3   0.681596 0.265506 0.678953 -0.527601
H1    H     H_    0.817693 0.179076 0.620683 0.152362
C1    C     C_3   0.707331 0.076097 0.662087 -1.055790
H2    H     H_    0.646694 0.020199 0.635572 0.258352
H3    H     H_    0.832738 0.040058 0.669539 0.259736
P2    P     P_3+3 0.661990 0.251250 0.462170 0.452612
P3    P     P_3+3 0.144726 0.166567 0.563603 0.419903
O7    O     O_2   0.841490 0.235060 0.476710 -0.375323
O8    O     O_3   0.099640 0.305100 0.564190 -0.405258
O9    O     O_2   0.016582 0.116179 0.529651 -0.385892
O10   O     O_3   0.661653 0.217051 0.397102 -0.573297
O11   O     O_3   0.116342 0.130986 0.623247 -0.560789
C2    C     C_3   0.144041 0.213615 0.661292 0.672861
H4    H     H_    0.073421 0.290743 0.653991 0.150099
C3    C     C_3   0.089845 0.187212 0.711208 -0.891315
H5    H     H_    0.960637 0.180283 0.709286 0.265514
H6    H     H_    0.158447 0.110723 0.720696 0.257638
C4    C     C_3   0.213113 0.224107 0.417857 0.381144
H7    H     H_    0.338636 0.239417 0.424437 0.090762
H8    H     H_    0.141822 0.253826 0.451920 0.134909
C5    C     C_3   0.211382 0.104718 0.406914 -0.901723
H9    H     H_    0.270541 0.073882 0.370926 0.257567
H10   H     H_    0.276004 0.062863 0.437060 0.233850
H11   H     H_    0.085442 0.088034 0.403956 0.268800
Ba1   Ba    Ba6+2 0.859560 0.448380 0.523550 1.530332
C6    C     C_3   0.998798 0.787661 0.590351 0.617374
H12   H     H_    0.005758 0.744568 0.551588 0.116526
C7    C     C_3   0.072221 0.889209 0.591295 -0.849904
H13   H     H_    0.049264 0.941473 0.627221 0.257925
H14   H     H_    0.021840 0.933203 0.559857 0.253623
H15   H     H_    0.201570 0.868864 0.587546 0.260750
C8    C     C_3   0.720780 0.294453 0.374057 0.434693
H16   H     H_    0.828541 0.320250 0.394234 0.114414
H17   H     H_    0.624741 0.363718 0.372546 0.093029
C9    C     C_3   0.767830 0.246112 0.321061 -0.965906
H18   H     H_    0.857125 0.173026 0.322497 0.274394
H19   H     H_    0.822552 0.303002 0.301906 0.229427
H20   H     H_    0.660021 0.224965 0.298997 0.261861
P4    P     P_3+3 0.116900 0.410080 0.389630 0.481380
O12   O     O_2   0.282660 0.442310 0.382060 -0.355115
O13   O     O_3   0.050670 0.442340 0.442260 -0.410359
O14   O     O_3   0.504750 0.639360 0.411530 -0.379443
O15   O     O_3   0.147991 0.271133 0.375851 -0.552014
P5    P     P_3+3 0.043240 0.833032 0.435395 0.437960
O16   O     O_3   0.618400 0.630290 0.524520 -0.379665
O17   O     O_3   0.090070 0.694820 0.435810 -0.379175
O18   O     O_2   0.168663 0.883791 0.470304 -0.378613
O19   O     O_3   0.086731 0.863612 0.376409 -0.528286
Ba2   Ba    Ba6+2 0.330270 0.551530 0.476440 1.536293
P6    P     P_3+3 0.671525 0.386335 0.654100 0.448510
C10   C     C_3   0.703867 0.180509 0.640084 0.467793
H21   H     H_    0.604078 0.187396 0.611945 0.062875
H22   H     H_    0.643105 0.088945 0.698063 0.298604
O20   O     O_3   0.571310 0.369620 0.475470 -0.400709
C11   C     C_3   0.456396 0.761234 0.636448 0.516402
H23   H     H_    0.376814 0.707340 0.616638 0.086294
C12   C     C_3   0.364267 0.837851 0.677883 -0.926466
H24   H     H_    0.298364 0.909597 0.663473 0.264023
H25   H     H_    0.279387 0.796388 0.695797 0.255994
H26   H     H_    0.447033 0.869556 0.707603 0.241180
P7    P     P_3+3 0.527313 0.765780 0.539716 0.403490
O21   O     O_2   0.348200 0.764910 0.523260 -0.368478
O22   O     O_3   0.515824 0.822465 0.603649 -0.607572
H27   H     H_    0.107618 0.251817 0.741781 0.248135
C13   C     C_3   0.017875 0.795020 0.339378 0.381265
H28   H     H_    0.061846 0.710116 0.343703 0.094273
H29   H     H_    0.884941 0.809556 0.341405 0.040105
C14   C     C_3   0.066630 0.813925 0.287535 -0.378888
H30   H     H_    0.199484 0.795787 0.284786 0.240273
H31   H     H_    0.012897 0.758675 0.258573 0.199834
P8    P     P_3+3 0.519509 0.612617 0.346198 0.466240
C15   C     C_3   0.530789 0.814660 0.359463 0.463366
H32   H     H_    0.646155 0.794076 0.380037 0.031876
O23   O     O_2   0.361729 0.572221 0.326323 -0.397622
O24   O     O_3   0.507621 0.733162 0.320842 -0.514591
H33   H     H_    0.429327 0.829141 0.385817 0.148187
H34   H     H_    0.636267 0.904423 0.309856 0.268920
C16   C     C_3   0.536991 0.916694 0.336694 -0.999782
H35   H     H_    0.557226 0.981874 0.366730 0.237968
H36   H     H_    0.422193 0.939627 0.316178 0.272097
C17   C     C_R   0.046139 0.418187 0.180439 0.549812
O25   O     O_2   0.100347 0.342861 0.202918 -0.593620
N1    N     N_R   0.940438 0.501773 0.204065 -0.163066
C18   C     C_R   0.876487 0.585720 0.177734 0.500412
C19   C     C_2   0.741439 0.520479 0.270348 -0.149466
C20   C     C_3   0.698836 0.515538 0.324316 0.153635
C21   C     C_1   0.984913 0.478980 0.343774 0.300871
C22   C     C_2   0.025333 0.478744 0.296419 -0.226280
C23   C     C_2   0.897702 0.501490 0.256384 0.101066
C24   C     C_R   0.022237 0.501069 0.102769 -0.064518
C25   C     C_R   0.090770 0.418145 0.130160 -0.108360
C26   C     C_R   0.208639 0.339255 0.107674 -0.129274
C27   C     C_R   0.914391 0.585487 0.126848 -0.035394
C28   C     C_2   0.842655 0.526669 0.359217 -0.483166
H37   H     H_    0.150689 0.462487 0.286427 0.195309
H38   H     H_    0.271797 0.279787 0.129684 0.180144
C29   C     C_2   0.364418 0.502253 0.642601 -0.473580
C30   C     C_R   0.188520 0.405905 0.974260 0.055475
C31   C     C_R   0.038350 0.586333 0.973762 0.040626
C32   C     C_R   0.130658 0.494617 0.948308 0.087292
C33   C     C_R   0.253559 0.310240 0.945254 -0.219679
C34   C     C_R   0.285812 0.306829 0.894586 -0.088060
C35   C     C_R   0.246411 0.397678 0.869804 -0.043832
C36   C     C_R   0.163972 0.490886 0.896213 -0.069464
C37   C     C_R   0.114535 0.580133 0.870567 -0.059558
C38   C     C_R   0.153150 0.576365 0.819465 0.531838
N2    N     N_R   0.238890 0.485356 0.794145 -0.162770
C39   C     C_R   0.284750 0.396367 0.818930 0.507142
C40   C     C_2   0.445895 0.468654 0.731388 -0.184494
C41   C     C_3   0.499782 0.486157 0.680427 0.214904
C42   C     C_1   0.212853 0.525626 0.656346 0.316691
C43   C     C_2   0.166248 0.512522 0.701601 -0.227994
C44   C     C_2   0.287873 0.485686 0.742558 0.112611
O26   O     O_2   0.359584 0.315829 0.796796 -0.603277
C45   C     C_R   0.170212 0.413487 0.027463 -0.013343
C46   C     C_R   0.062015 0.499849 0.051387 0.039642
C47   C     C_R   0.994898 0.585917 0.024606 0.064357
C48   C     C_R   0.256857 0.339971 0.058441 0.268302
H39   H     H_    0.536610 0.452810 0.760521 0.162039
H40   H     H_    0.340733 0.231914 0.874701 0.168533
H41   H     H_    0.276294 0.235695 0.960854 0.157672
O27   O     O_2   0.787700 0.661504 0.198698 -0.593690
C49   C     C_R   0.846944 0.668511 0.099657 -0.088614
H42   H     H_    0.645156 0.532115 0.242485 0.165194
H43   H     H_    0.762436 0.734168 0.116869 0.167383
C50   C     C_R   0.991374 0.674937 0.947015 -0.208833
C51   C     C_R   0.029271 0.671894 0.896768 -0.085716
O28   O     O_2   0.112956 0.655034 0.797858 -0.593280
C52   C     C_R   0.885668 0.668735 0.049797 -0.206872
H44   H     H_    0.927839 0.749321 0.964239 0.127284
H45   H     H_    0.990775 0.742396 0.878384 0.166122
H46   H     H_    0.040641 0.532209 0.711045 0.192532
H47   H     H_    0.824712 0.734379 0.031601 0.126341
H48   H     H_    0.829096 0.570946 0.396430 0.169529
H49   H     H_    0.400246 0.528904 0.608774 0.153763
C53   C     C_R   0.751298 0.818777 0.477962 -0.507913
C54   C     C_R   0.440095 0.186835 0.522432 -0.428148
C55   C     C_R   0.404389 0.008682 0.531955 -0.191027
C56   C     C_R   0.347424 0.116648 0.538272 0.200001
C57   C     C_R   0.577374 0.150818 0.493924 0.243276
C58   C     C_R   0.634914 0.039054 0.486286 -0.063192
C59   C     C_R   0.548209 0.967802 0.506964 -0.077051
C60   C     C_R   0.607532 0.857400 0.502484 0.290791
C61   C     C_R   0.839356 0.887308 0.458397 0.195761
C62   C     C_R   0.778999 0.996324 0.460970 -0.182223
H50   H     H_    0.332735 0.957875 0.546137 0.199850
H51   H     H_    0.848945 0.046645 0.444734 0.185975
H52   H     H_    0.800524 0.735312 0.476924 0.171918
C63   C     C_3   0.831223 0.819320 0.606001 -0.839989
H53   H     H_    0.824279 0.849714 0.646628 0.262001
H54   H     H_    0.770124 0.881422 0.583948 0.216748
H55   H     H_    0.781334 0.744213 0.599685 0.259255
C64   C     C_1   0.590298 0.702152 0.662710 0.010220
N3    N     N_1   0.695011 0.659806 0.685463 -0.032753
C65   C     C_3   0.011498 0.928531 0.276935 -0.787013
H56   H     H_    0.069503 0.985211 0.304011 0.270616
H57   H     H_    0.045954 0.937473 0.238496 0.249984
H58   H     H_    0.878997 0.948729 0.279495 0.246615
C66   C     C_3   0.416723 0.273485 0.044821 -1.020332
H59   H     H_    0.401153 0.188803 0.034055 0.250083
H60   H     H_    0.475649 0.304252 0.014777 0.265191
H61   H     H_    0.501950 0.277134 0.077574 0.255923
C67   C     C_3   0.321901 0.223976 0.665910 -0.910678
H62   H     H_    0.391643 0.143021 0.662637 0.262924
H63   H     H_    0.354003 0.268212 0.635971 0.198383
H64   H     H_    0.352537 0.268286 0.702222 0.288107
C68   C     C_1   0.392601 0.297705 0.535218 0.234782
N4    N     N_1   0.354590 0.387808 0.544880 0.006750

loop_
_geom_bond_atom_site_label_1
_geom_bond_atom_site_label_2
_geom_bond_distance
_ccdc_geom_bond_type
O14   P8    1.752310 S    
C54   C57   1.400850 A    
O5    C6    1.392048 S    
C17   O25   1.222056 D    
C12   H25   1.110908 S    
P8    C20   1.868428 S    
C51   H45   1.083501 S    
C21   C22   1.332057 D    
O14   Ba2   2.773812 S    
C7    H15   1.086609 S    
C67   H63   1.106087 S    
C67   H62   1.105217 S    
O4    P6    1.544207 D    
C58   C62   1.417985 A    
C2    H4    1.107568 S    
C4    C5    1.519180 S    
P3    C56   1.856135 S    
O7    Ba1   2.876492 S    
C55   C59   1.407621 A    
P4    C21   1.841777 S    
C30   C32   1.420213 A    
C65   H56   1.110497 S    
C19   H42   1.085524 S    
P4    O12   1.542177 D    
C52   H47   1.077125 S    
P5    O19   1.748348 S    
C14   H31   1.110767 S    
P3    O11   1.757993 S    
H34   C16   1.108469 S    
C53   C60   1.396400 A    
C2    C3    1.530024 S    
C4    H8    1.110903 S    
C7    H13   1.108543 S    
C43   H46   1.082934 S    
C11   C64   1.465824 S    
C8    H16   1.107417 S    
C5    H10   1.106161 S    
C40   C41   1.515999 S    
C24   C27   1.408991 A    
C25   C26   1.400681 A    
P1    Ba1   3.385776 S    
C34   C35   1.402206 A    
C31   C47   1.431734 A    
P1    O1    1.541879 D    
C9    H18   1.110978 S    
P2    C57   1.870080 S    
C11   C12   1.539318 S    
C15   H33   1.112753 S    
C43   C44   1.506362 S    
C45   C48   1.431545 A    
C28   H48   1.086235 S    
C49   C52   1.394224 A    
O2    Ba2   2.758078 S    
O19   C13   1.405060 S    
C58   C59   1.427840 A    
C22   H37   1.083229 S    
C50   C51   1.396347 A    
O12   Ba2   2.778276 S    
P5    O17   1.752926 S    
C33   C34   1.394932 A    
C4    H7    1.105796 S    
P4    O15   1.749601 S    
C1    H2    1.107422 S    
C1    C10   1.524053 S    
C11   H23   1.104771 S    
O17   Ba2   2.799440 S    
C12   H26   1.113852 S    
C66   H60   1.108880 S    
Ba1   O13   2.757455 S    
Ba2   O20   2.844489 S    
O3    P6    1.758880 S    
C63   H55   1.095846 S    
C9    H19   1.106839 S    
C29   C42   1.323598 D    
O6    P6    1.749615 S    
C29   H49   1.081422 S    
C38   N2    1.387481 Am   
C65   H57   1.110200 S    
Ba2   O21   2.876807 S    
C31   C50   1.416244 A    
P4    O13   1.527897 S    
C3    H6    1.111498 S    
P7    C60   1.852245 S    
P5    O18   1.542347 D    
C14   H30   1.111031 S    
C27   C49   1.401508 A    
C12   H24   1.103575 S    
P7    O21   1.553435 D    
C16   H35   1.110608 S    
C8    C9    1.523007 S    
N2    C39   1.388189 Am   
Ba1   O16   2.845088 S    
C19   C20   1.521549 S    
C13   H29   1.108850 S    
C15   H32   1.109338 S    
O11   C2    1.411533 S    
P1    C42   1.852317 S    
C30   C45   1.434976 A    
O16   Ba2   2.947986 S    
C68   N4    1.147300 T    
C53   H52   1.082230 S    
C36   C37   1.408557 A    
C47   C52   1.415150 A    
O1    Ba1   2.777889 S    
P1    O2    1.527893 S    
C6    C7    1.516828 S    
Ba1   O20   2.948850 S    
N1    C23   1.468091 S    
C26   C48   1.403344 A    
H1    C10   1.107767 S    
C14   C65   1.527757 S    
C6    C63   1.472121 S    
P5    C61   1.853085 S    
N2    C44   1.465291 S    
C64   N3    1.156410 T    
P8    O24   1.751501 S    
C50   H44   1.077199 S    
C24   C25   1.406225 A    
P6    C41   1.876644 S    
O16   P7    1.789109 S    
C59   C60   1.416087 A    
O2    Ba1   2.965944 S    
C63   H54   1.103212 S    
C1    H3    1.106662 S    
C21   C28   1.317879 D    
C45   C46   1.424284 A    
C35   C39   1.416852 A    
C17   C25   1.419097 A    
Ba1   Ba2   4.636319 S    
P2    O7    1.533677 D    
C66   H61   1.111607 S    
C40   C44   1.355766 D    
P3    O8    1.752735 S    
P2    Ba1   3.434296 S    
C67   H64   1.104705 S    
C54   C68   1.415440 S    
C18   C27   1.418262 A    
C5    H9    1.106980 S    
C65   H58   1.109314 S    
C20   C28   1.510893 S    
O13   Ba2   2.966803 S    
C57   C58   1.429444 A    
C32   C36   1.434170 A    
P8    O23   1.545648 D    
C11   O22   1.405659 S    
C4    O15   1.399112 S    
C54   C56   1.390791 A    
P1    O5    1.755232 S    
C37   C38   1.419177 A    
C37   C51   1.402282 A    
C2    C67   1.520942 S    
C38   O28   1.222145 D    
C55   C56   1.382592 A    
C13   C14   1.528885 S    
O8    Ba1   2.798870 S    
C31   C32   1.418929 A    
C40   H39   1.085586 S    
C24   C46   1.433615 A    
C3    H27   1.110130 S    
C34   H40   1.083435 S    
C6    H12   1.114250 S    
C53   C61   1.393971 A    
C17   N1    1.387859 Am   
C29   C41   1.501573 S    
N1    C18   1.389215 Am   
C33   H41   1.077735 S    
C13   H28   1.111873 S    
C55   H50   1.064687 S    
C26   H38   1.084680 S    
C42   C43   1.333222 D    
P2    O10   1.748045 S    
C8    H17   1.108871 S    
C15   O24   1.402707 S    
C10   H21   1.106284 S    
C49   H43   1.083566 S    
C9    H20   1.110597 S    
C7    H14   1.108602 S    
O10   C8    1.394565 S    
C62   H51   1.077301 S    
C22   C23   1.510157 S    
O3    Ba1   2.774435 S    
C19   C23   1.361643 D    
C48   C66   1.511951 S    
P2    O20   1.592970 S    
C15   C16   1.519249 S    
C66   H59   1.110051 S    
P4    Ba2   3.386363 S    
P3    O9    1.543636 D    
C35   C36   1.408126 A    
C63   H53   1.112456 S    
C18   O27   1.222183 D    
C61   C62   1.403673 A    
C16   H36   1.110182 S    
P7    O22   1.778603 S    
C46   C47   1.424213 A    
C3    H5    1.102813 S    
C1    H22   1.110830 S    
O6    C10   1.404515 S    
C30   C33   1.412410 A    
C39   O26   1.221256 D    
C5    H11   1.109921 S    
