data_mof_unit_58694.cif
_audit_creation_date              2012-12-10T17:27:53-0500
_audit_creation_method            fapswitch 2.2
_symmetry_space_group_name_H-M    P1
_symmetry_Int_Tables_number       1
_space_group_crystal_system       triclinic
_cell_length_a                    10.631228
_cell_length_b                    11.992936
_cell_length_c                    12.880159
_cell_angle_alpha                 93.23387
_cell_angle_beta                  90.13722
_cell_angle_gamma                 86.45704
_cell_volume                      1636.46584132

loop_
_atom_site_label
_atom_site_type_symbol
_atom_type_description
_atom_site_fract_x
_atom_site_fract_y
_atom_site_fract_z
_atom_type_partial_charge
C1    C     C_R   0.499406 0.521953 0.700431 0.894430
C2    C     C_R   0.464757 0.638808 0.862437 -0.165521
C3    C     C_R   0.529250 0.440714 0.867708 -0.257809
C4    C     C_R   0.739518 0.499921 0.496778 0.874187
C5    C     C_R   0.521030 0.448183 0.974377 0.179566
C6    C     C_R   0.484017 0.552146 0.025689 0.173841
C7    C     C_R   0.474767 0.559478 0.132252 -0.259387
C8    C     C_R   0.539530 0.361502 0.137728 -0.223662
C9    C     C_R   0.548158 0.353103 0.030355 -0.199878
C10   C     C_R   0.389390 0.954398 0.399099 -0.269915
C11   C     C_R   0.398779 0.838417 0.408766 0.033357
C12   C     C_R   0.938313 0.434306 0.410445 0.098632
C13   C     C_R   0.547513 0.857611 0.545048 0.035011
C14   C     C_R   0.541706 0.975647 0.538872 -0.069790
C15   C     C_R   0.460962 0.023860 0.464047 0.035701
C16   C     C_R   0.501285 0.478046 0.299564 0.852343
C17   C     C_R   0.453383 0.140877 0.455881 -0.059688
C18   C     C_R   0.601474 0.163367 0.591984 -0.070254
C19   C     C_R   0.612994 0.047204 0.604113 0.361767
C20   C     C_R   0.260484 0.499271 0.497129 0.870647
C21   C     C_R   0.877124 0.372844 0.330227 -0.168321
C22   C     C_R   0.946814 0.310729 0.253019 -0.121623
C23   C     C_R   0.871664 0.499834 0.489113 -0.105227
C24   C     C_R   0.077761 0.309798 0.253585 -0.132278
C25   C     C_R   0.139481 0.371002 0.331324 -0.188188
C26   C     C_R   0.070237 0.433363 0.411006 0.099008
C27   C     C_R   0.931281 0.566670 0.563365 -0.176565
C28   C     C_R   0.059805 0.565722 0.563937 -0.184507
C29   C     C_R   0.128304 0.498063 0.490185 -0.105044
C30   C     C_R   0.503850 0.464991 0.188261 -0.049032
C31   C     C_R   0.499066 0.535099 0.811759 -0.069928
C32   C     C_R   0.457149 0.647306 0.969810 -0.200113
H1    H     H_    0.878103 0.617491 0.622455 0.176284
H2    H     H_    0.775575 0.373569 0.325265 0.147997
H3    H     H_    0.898984 0.264150 0.191988 0.143249
H4    H     H_    0.131659 0.262494 0.192984 0.141772
H5    H     H_    0.241054 0.370203 0.327196 0.143564
H6    H     H_    0.106326 0.616123 0.623285 0.164540
H7    H     H_    0.445837 0.639403 0.171413 0.157586
H8    H     H_    0.562610 0.288126 0.181019 0.164800
H9    H     H_    0.429297 0.727400 0.008913 0.149241
H10   H     H_    0.837876 0.065766 0.819095 0.388282
H11   H     H_    0.576474 0.273082 0.991311 0.164122
H12   H     H_    0.441595 0.712258 0.819265 0.183271
H13   H     H_    0.557667 0.360729 0.828413 0.176814
H14   H     H_    0.391643 0.178955 0.399068 0.137251
H15   H     H_    0.654915 0.219342 0.640945 0.194180
H16   H     H_    0.326743 0.989453 0.341242 0.144178
H17   H     H_    0.343695 0.784998 0.358495 0.130471
H18   H     H_    0.608049 0.816520 0.600491 0.194795
N1    N     N_R   0.523130 0.207800 0.519340 -0.131194
N2    N     N_R   0.476870 0.792180 0.480660 -0.120028
O1    O     O_R   0.506170 0.421690 0.658830 -0.620672
O2    O     O_2   0.816221 0.917175 0.651021 -0.310787
O3    O     O_3   0.784025 0.101828 0.766119 -0.574946
O4    O     O_R   0.491330 0.609320 0.646410 -0.624332
O5    O     O_R   0.690660 0.406170 0.506210 -0.618192
O6    O     O_R   0.675810 0.593790 0.493790 -0.609601
O7    O     O_R   0.508670 0.390680 0.353590 -0.642437
O8    O     O_R   0.493830 0.578310 0.341170 -0.625031
O9    O     O_R   0.324190 0.406210 0.506210 -0.613244
O10   O     O_R   0.309340 0.593830 0.493790 -0.616824
O11   O     O_2   0.641995 0.934031 0.776443 -0.326352
S1    S     S_3+6 0.715761 0.995895 0.701240 -0.013451
Zn1   Zn    Zn3+2 0.509910 0.374720 0.508290 0.950592
Zn2   Zn    Zn3+2 0.490090 0.625280 0.491710 0.962341

loop_
_geom_bond_atom_site_label_1
_geom_bond_atom_site_label_2
_ccdc_geom_bond_type
C4    O5    A    
C6    C32   A    
C32   H9    S    
C5    C9    A    
C6    C7    A    
C11   H17   S    
C23   C27   A    
H10   O3    S    
C13   N2    A    
O1    Zn1   S    
C20   O9    A    
C21   H2    S    
C28   H6    S    
C19   S1    S    
C10   C15   A    
C8    C30   A    
O3    S1    S    
C17   N1    A    
C17   H14   S    
O8    Zn2   S    
C7    C30   A    
C21   C22   A    
C27   H1    S    
C3    C31   A    
C22   H3    S    
C12   C23   A    
C24   H4    S    
O2    S1    D    
O4    Zn2   S    
C12   C21   A    
C28   C29   A    
C1    O4    A    
C3    H13   S    
C18   N1    A    
C10   H16   S    
C3    C5    A    
C20   C29   S    
C20   O10   A    
C5    C6    A    
C22   C24   A    
C9    H11   S    
N1    Zn1   S    
C10   C11   A    
O10   Zn2   S    
C16   C30   S    
C13   H18   S    
O9    Zn1   S    
C1    C31   S    
N2    Zn2   S    
C24   C25   A    
C26   C29   A    
C2    C32   A    
C18   C19   A    
C16   O8    A    
O5    Zn1   S    
C27   C28   A    
C15   C17   A    
C4    C23   S    
C1    O1    A    
C14   C15   A    
C8    C9    A    
C7    H7    S    
C11   N2    A    
C8    H8    S    
C12   C26   A    
C4    O6    A    
C25   C26   A    
C13   C14   A    
C14   C19   A    
O6    Zn2   S    
O7    Zn1   S    
O11   S1    D    
C2    H12   S    
C2    C31   A    
C18   H15   S    
C16   O7    A    
C25   H5    S    
