data_mof_unit_9631.cif
_audit_creation_date              2012-10-26T18:32:18-0400
_audit_creation_method            fapswitch 2.2
_symmetry_space_group_name_H-M    P1
_symmetry_Int_Tables_number       1
_space_group_crystal_system       triclinic
_cell_length_a                    12.401432
_cell_length_b                    13.158837
_cell_length_c                    15.82619
_cell_angle_alpha                 76.411116
_cell_angle_beta                  101.025377
_cell_angle_gamma                 116.871786
_cell_volume                      2228.48826454

loop_
_atom_site_label
_atom_site_type_symbol
_atom_type_description
_atom_site_fract_x
_atom_site_fract_y
_atom_site_fract_z
_atom_type_partial_charge
C1    C     C_R   0.855062 0.286397 0.507131 0.554400
C2    C     C_R   0.228469 0.836536 0.471095 -0.000870
C3    C     C_R   0.813758 0.081071 0.559860 -0.099264
C4    C     C_R   0.002082 0.502988 0.659111 0.554840
C5    C     C_R   0.735504 0.964103 0.574192 0.271342
C6    C     C_R   0.611536 0.929069 0.546339 -0.104038
C7    C     C_R   0.566448 0.009179 0.496916 -0.028241
C8    C     C_R   0.650896 0.124726 0.471540 -0.033664
C9    C     C_R   0.440485 0.978182 0.471170 -0.014346
C10   C     C_R   0.402303 0.059008 0.413408 0.058946
C11   C     C_R   0.489088 0.167479 0.379065 0.261951
C12   C     C_3   0.967505 0.385724 0.064188 -0.219390
C13   C     C_R   0.611525 0.199044 0.407797 -0.089605
C14   C     C_R   0.350853 0.869052 0.501629 -0.133126
C15   C     C_R   0.191504 0.917490 0.416372 -0.157943
C16   C     C_R   0.144995 0.713808 0.487799 0.536619
C17   C     C_R   0.772878 0.162538 0.510231 -0.047669
C18   C     C_R   0.311501 0.289376 0.601935 -0.149196
C19   C     C_R   0.767791 0.656394 0.389654 0.033329
C20   C     C_R   0.675748 0.693458 0.366197 -0.174365
C21   C     C_R   0.567724 0.632818 0.405511 -0.139801
C22   C     C_R   0.549446 0.532791 0.468649 -0.042737
C23   C     C_3   0.001789 0.507937 0.081410 -0.056104
C24   C     C_R   0.646527 0.497103 0.492039 0.186794
C25   C     C_R   0.438606 0.467298 0.510255 -0.022878
C26   C     C_R   0.417190 0.356874 0.559821 -0.005931
C27   C     C_R   0.505378 0.317370 0.573261 -0.125535
C28   C     C_R   0.000350 0.500588 0.340421 0.536015
C29   C     C_R   0.624188 0.394461 0.556912 0.295024
C30   C     C_R   0.347026 0.505163 0.505298 0.050580
C31   C     C_R   0.227594 0.332864 0.597032 0.050947
C32   C     C_3   0.962334 0.387721 0.965065 0.125204
C33   C     C_3   0.912981 0.565279 0.925974 0.565210
C34   C     C_3   0.129236 0.590968 0.051650 -0.209130
C35   C     C_3   0.907513 0.550113 0.026884 -0.141232
C36   C     C_1   0.001168 0.502319 0.250414 -0.030147
C37   C     C_3   0.003153 0.514931 0.914522 0.153640
C38   C     C_3   0.472233 0.246645 0.236265 -0.139223
C39   C     C_3   0.762015 0.802110 0.576731 -0.126253
C40   C     C_3   0.828036 0.203430 0.936655 -0.141380
C41   C     C_3   0.708326 0.363319 0.697884 -0.086691
C42   C     C_3   0.946997 0.715192 0.799796 -0.069695
C43   C     C_3   0.707551 0.539658 0.892143 -0.133808
C44   C     C_3   0.311103 0.747433 0.912941 -0.135238
C45   C     C_3   0.134075 0.587322 0.955095 0.130801
C46   C     C_1   0.001500 0.504603 0.174328 -0.077253
C47   C     C_1   0.006017 0.512862 0.822917 -0.003585
C48   C     C_1   0.005883 0.508902 0.748097 -0.062908
C49   C     C_R   0.277770 0.028468 0.388417 -0.118413
Cu1   Cu    Cu3+1 0.098280 0.475420 0.519630 0.932948
Cu2   Cu    Cu3+1 0.901720 0.524580 0.480370 0.968961
H1    H     H_    0.878306 0.324105 0.088943 0.156645
H2    H     H_    0.851367 0.704596 0.358764 0.123217
H3    H     H_    0.498591 0.664206 0.383924 0.104872
H4    H     H_    0.688247 0.769726 0.317221 0.098221
H5    H     H_    0.815797 0.486500 0.046013 0.111368
H6    H     H_    0.923297 0.633343 0.044264 0.120060
H7    H     H_    0.190329 0.540894 0.954191 0.069220
H8    H     H_    0.199447 0.566358 0.093816 0.090234
H9    H     H_    0.151133 0.680402 0.059404 0.169986
H10   H     H_    0.096884 0.893692 0.392254 0.117293
H11   H     H_    0.420416 0.159050 0.218015 0.109541
H12   H     H_    0.029427 0.356884 0.956054 0.069392
H13   H     H_    0.570407 0.279471 0.228864 0.109916
H14   H     H_    0.438223 0.305594 0.189734 0.139682
H15   H     H_    0.246916 0.088888 0.344652 0.157080
H16   H     H_    0.790391 0.840290 0.509453 0.123585
H17   H     H_    0.666096 0.736293 0.574528 0.118917
H18   H     H_    0.818962 0.756580 0.610414 0.131943
H19   H     H_    0.852174 0.165494 0.004020 0.103765
H20   H     H_    0.883070 0.201486 0.889715 0.113658
H21   H     H_    0.731249 0.148913 0.917697 0.139673
H22   H     H_    0.675031 0.281934 0.377231 0.152010
H23   H     H_    0.035878 0.354393 0.100712 0.089075
H24   H     H_    0.353524 0.586521 0.466540 0.114374
H25   H     H_    0.622606 0.294422 0.723003 0.098545
H26   H     H_    0.722759 0.448583 0.710280 0.140432
H27   H     H_    0.780803 0.340478 0.736906 0.167669
H28   H     H_    0.926254 0.791620 0.781237 0.150704
H29   H     H_    0.874408 0.646357 0.765553 0.129050
H30   H     H_    0.035064 0.740458 0.775119 0.161459
H31   H     H_    0.643464 0.474935 0.939349 0.116100
H32   H     H_    0.654683 0.545107 0.827578 0.124127
H33   H     H_    0.745991 0.625637 0.912629 0.134796
H34   H     H_    0.373546 0.806177 0.548583 0.121105
H35   H     H_    0.340472 0.700914 0.878576 0.110927
H36   H     H_    0.351162 0.745139 0.982172 0.103395
H37   H     H_    0.346626 0.839185 0.880443 0.143954
H38   H     H_    0.906939 0.108162 0.588805 0.138852
H39   H     H_    0.553644 0.838627 0.563461 0.102330
H40   H     H_    0.144812 0.280750 0.628400 0.122837
H41   H     H_    0.487747 0.232035 0.610927 0.118127
H42   H     H_    0.295298 0.204678 0.640157 0.094035
N1    N     N_R   0.246300 0.438200 0.549400 -0.234262
N2    N     N_R   0.754300 0.561180 0.451130 -0.227330
O1    O     O_R   0.972520 0.318130 0.524690 -0.517657
O2    O     O_3   0.780014 0.887343 0.624716 -0.583505
O3    O     O_3   0.842577 0.317132 0.932478 -0.531812
O4    O     O_3   0.714236 0.368056 0.608225 -0.526565
O5    O     O_3   0.957637 0.686653 0.892226 -0.555963
O6    O     O_3   0.795046 0.501295 0.885129 -0.549971
O7    O     O_3   0.183215 0.701100 0.906641 -0.539153
O8    O     O_R   0.806530 0.359650 0.491530 -0.440258
O9    O     O_R   0.083030 0.479240 0.637150 -0.496695
O10   O     O_R   0.917040 0.520750 0.603990 -0.449351
O11   O     O_R   0.193470 0.640350 0.508470 -0.514562
O12   O     O_R   0.027480 0.681870 0.475310 -0.518643
O13   O     O_R   0.082960 0.479250 0.396010 -0.490418
O14   O     O_R   0.916970 0.520760 0.362850 -0.512631
O15   O     O_3   0.453948 0.246543 0.321523 -0.571289

loop_
_geom_bond_atom_site_label_1
_geom_bond_atom_site_label_2
_ccdc_geom_bond_type
Cu1   O13   S    
C42   H29   S    
C8    C13   A    
C40   H20   S    
C12   H23   S    
C27   C29   A    
C43   H32   S    
C39   H17   S    
C19   C20   A    
C18   C26   A    
C7    C8    A    
Cu1   O9    S    
C12   C23   S    
C26   C27   A    
C40   H19   S    
C33   O6    S    
C41   H26   S    
C21   H3    S    
C39   O2    S    
Cu2   O8    S    
C24   C29   A    
C16   O12   A    
C22   C25   A    
C41   O4    S    
C36   C46   T    
C37   C47   S    
C44   H36   S    
C2    C16   S    
C9    C10   A    
C1    O8    A    
C16   O11   A    
C19   H2    S    
C42   H28   S    
Cu2   O14   S    
C23   C46   S    
C21   C22   A    
C12   C32   S    
C11   O15   S    
C34   H9    S    
C43   H33   S    
C42   H30   S    
C20   H4    S    
C44   H35   S    
C12   H1    S    
C38   H13   S    
C15   H10   S    
C45   H7    S    
C49   H15   S    
C29   O4    S    
C32   H12   S    
C45   O7    S    
C24   N2    A    
C41   H27   S    
C44   O7    S    
Cu1   N1    S    
C25   C26   A    
C6    H39   S    
C33   C37   S    
C9    C14   A    
C43   O6    S    
C42   O5    S    
C47   C48   T    
C38   H14   S    
Cu2   O10   S    
C23   C34   S    
Cu1   Cu2   S    
C39   H18   S    
C27   H41   S    
C34   C45   S    
C32   C37   S    
C20   C21   A    
C2    C15   A    
C13   H22   S    
C31   H40   S    
C34   H8    S    
C22   C24   A    
C38   O15   S    
C37   C45   S    
C19   N2    A    
C4    C48   S    
C25   C30   A    
C7    C9    A    
C40   H21   S    
C35   H5    S    
C39   H16   S    
C14   H34   S    
C5    O2    S    
C3    C5    A    
C6    C7    A    
C28   O14   A    
C31   N1    A    
C4    O10   A    
C23   C35   S    
C8    C17   A    
C35   H6    S    
C3    H38   S    
C33   O5    S    
C30   N1    A    
C41   H25   S    
C40   O3    S    
C30   H24   S    
C11   C13   A    
Cu1   O1    S    
C5    C6    A    
C28   O13   A    
C1    O1    A    
C4    O9    A    
C33   C35   S    
C32   O3    S    
C3    C17   A    
C15   C49   A    
C2    C14   A    
C10   C11   A    
C1    C17   S    
C28   C36   S    
Cu2   O12   S    
Cu1   O11   S    
C18   H42   S    
C18   C31   A    
C44   H37   S    
C10   C49   A    
C43   H31   S    
Cu2   N2    S    
C38   H11   S    
