data_mof_unit_25860.cif
_audit_creation_date              2012-12-11T18:06:55-0500
_audit_creation_method            fapswitch 2.2
_symmetry_space_group_name_H-M    P1
_symmetry_Int_Tables_number       1
_space_group_crystal_system       triclinic
_cell_length_a                    8.300804
_cell_length_b                    12.98104
_cell_length_c                    27.06639
_cell_angle_alpha                 97.706722
_cell_angle_beta                  92.92912
_cell_angle_gamma                 80.987956
_cell_volume                      2853.11606893

loop_
_atom_site_label
_atom_site_type_symbol
_atom_type_description
_atom_site_fract_x
_atom_site_fract_y
_atom_site_fract_z
_atom_type_partial_charge
Ba1   Ba    Ba6+2 0.859560 0.448380 0.523550 1.674077
Ba2   Ba    Ba6+2 0.330270 0.551530 0.476440 1.689218
C1    C     C_3   0.640397 0.117848 0.686984 -0.343768
C2    C     C_3   0.671482 0.203538 0.656787 0.337053
C3    C     C_3   0.479595 0.726609 0.627440 0.299112
C4    C     C_3   0.451263 0.769877 0.681921 -0.369127
C5    C     C_3   0.048641 0.766994 0.339008 0.301957
C6    C     C_3   0.062648 0.789035 0.285793 -0.284215
C7    C     C_3   0.508927 0.821068 0.352344 0.322894
C8    C     C_3   0.503865 0.908972 0.320167 -0.377970
C9    C     C_R   0.041354 0.425120 0.174384 0.607297
C10   C     C_R   0.921307 0.605893 0.177139 0.600974
C11   C     C_2   0.766939 0.565021 0.269745 -0.123610
C12   C     C_3   0.171499 0.204099 0.657512 0.287193
C13   C     C_3   0.741347 0.586943 0.325307 -0.002084
C14   C     C_1   0.989277 0.466592 0.338473 0.016527
C15   C     C_2   0.036481 0.470555 0.292017 -0.117222
C16   C     C_2   0.916717 0.517888 0.253348 0.197305
C17   C     C_R   0.046180 0.514826 0.100208 -0.082153
C18   C     C_R   0.085845 0.423675 0.124087 -0.027020
C19   C     C_R   0.169225 0.332739 0.097087 -0.038729
C20   C     C_R   0.964977 0.606481 0.127196 -0.090061
C21   C     C_2   0.838301 0.502240 0.351009 -0.162334
C22   C     C_2   0.350038 0.480194 0.639105 -0.280689
C23   C     C_3   0.154707 0.166484 0.707546 -0.370490
C24   C     C_R   0.223221 0.423835 0.972792 0.022765
C25   C     C_R   0.060936 0.599034 0.972757 0.055945
C26   C     C_R   0.159690 0.510800 0.947284 0.052357
C27   C     C_R   0.329627 0.340730 0.946671 -0.095183
C28   C     C_R   0.367402 0.341965 0.896961 -0.054445
C29   C     C_R   0.298658 0.425124 0.870578 -0.035082
C30   C     C_R   0.192625 0.509027 0.895599 -0.078020
C31   C     C_R   0.117912 0.590790 0.868906 -0.036819
C32   C     C_R   0.154886 0.589788 0.818191 0.596472
C33   C     C_R   0.333113 0.425863 0.819712 0.587526
C34   C     C_3   0.210960 0.230170 0.421311 0.292266
C35   C     C_2   0.456284 0.503763 0.727232 -0.045406
C36   C     C_3   0.494431 0.503783 0.672349 -0.056997
C37   C     C_1   0.204271 0.519531 0.654928 0.058761
C38   C     C_2   0.166873 0.516757 0.701926 -0.111789
C39   C     C_2   0.300190 0.508760 0.741625 0.201701
C40   C     C_R   0.176401 0.422516 0.022996 0.036571
C41   C     C_R   0.087931 0.514538 0.049374 0.011440
C42   C     C_R   0.043265 0.606805 0.025575 -0.062784
C43   C     C_R   0.214038 0.332139 0.047910 -0.087235
C44   C     C_R   0.937624 0.699478 0.104931 -0.066468
C45   C     C_3   0.245479 0.111191 0.408995 -0.369641
C46   C     C_R   0.973650 0.672810 0.943669 -0.015793
C47   C     C_R   0.004295 0.670517 0.893244 -0.053954
C48   C     C_R   0.985731 0.702579 0.056336 0.389323
C49   C     C_R   0.761446 0.823921 0.480458 -0.270973
C50   C     C_R   0.445890 0.189964 0.522850 -0.276287
C51   C     C_R   0.416329 0.013838 0.536548 -0.057140
C52   C     C_R   0.359460 0.121430 0.541508 -0.011018
C53   C     C_R   0.581208 0.152174 0.493818 0.056612
C54   C     C_R   0.639067 0.040701 0.486156 -0.056736
C55   C     C_R   0.556624 0.971374 0.509515 -0.000905
C56   C     C_3   0.986020 0.784037 0.602408 0.244442
C57   C     C_R   0.618144 0.861942 0.505882 -0.025823
C58   C     C_R   0.847313 0.889809 0.458736 0.009452
C59   C     C_R   0.783165 0.997150 0.459899 -0.070101
C60   C     C_3   0.978681 0.895999 0.626324 -0.232155
C61   C     C_3   0.699777 0.290387 0.372891 0.287313
C62   C     C_3   0.696582 0.254331 0.317067 -0.352286
H1    H     H_    0.799058 0.187144 0.644370 0.105527
H2    H     H_    0.352463 0.089290 0.384846 0.111829
H3    H     H_    0.271833 0.073569 0.443400 0.088418
H4    H     H_    0.137883 0.081437 0.389345 0.145347
H5    H     H_    0.859331 0.770274 0.592011 0.043742
H6    H     H_    0.069298 0.770519 0.570468 0.103920
H7    H     H_    0.883576 0.914949 0.654954 0.082604
H8    H     H_    0.098488 0.909641 0.644140 0.079679
H9    H     H_    0.825609 0.303534 0.384654 0.011721
H10   H     H_    0.608550 0.362595 0.380276 0.064182
H11   H     H_    0.625137 0.044705 0.662050 0.122827
H12   H     H_    0.786050 0.181744 0.308369 0.134091
H13   H     H_    0.728675 0.316592 0.296638 0.076440
H14   H     H_    0.572616 0.238023 0.304388 0.137652
H15   H     H_    0.582945 0.205636 0.624555 0.001845
H16   H     H_    0.527232 0.143682 0.708284 0.138586
H17   H     H_    0.362999 0.705005 0.610424 0.024315
H18   H     H_    0.574970 0.656038 0.625242 0.024733
H19   H     H_    0.369425 0.846636 0.684578 0.131772
H20   H     H_    0.392752 0.715046 0.700603 0.082030
H21   H     H_    0.569349 0.781170 0.701473 0.121408
H22   H     H_    0.744074 0.100832 0.713721 0.115149
H23   H     H_    0.205501 0.219892 0.737808 0.122123
H24   H     H_    0.143517 0.699442 0.345791 0.097942
H25   H     H_    0.925717 0.746230 0.343164 -0.036540
H26   H     H_    0.167694 0.830873 0.282787 0.151199
H27   H     H_    0.083055 0.713607 0.260804 0.111926
H28   H     H_    0.949469 0.838361 0.273833 0.135809
H29   H     H_    0.639380 0.797210 0.363133 -0.040950
H30   H     H_    0.440326 0.851842 0.386778 0.068658
H31   H     H_    0.565804 0.878041 0.284612 0.150223
H32   H     H_    0.568241 0.971959 0.340075 0.081112
H33   H     H_    0.102601 0.284934 0.658378 0.076237
H34   H     H_    0.375549 0.942630 0.311861 0.133853
H35   H     H_    0.160515 0.438345 0.281695 0.137996
H36   H     H_    0.200803 0.260906 0.114013 0.141579
H37   H     H_    0.555520 0.502351 0.754990 0.101553
H38   H     H_    0.450405 0.276425 0.879035 0.125639
H39   H     H_    0.388997 0.274322 0.964138 0.083123
H40   H     H_    0.274942 0.258319 0.029799 0.086856
H41   H     H_    0.672840 0.597372 0.244401 0.130320
H42   H     H_    0.887719 0.772660 0.126769 0.174630
H43   H     H_    0.877370 0.731730 0.959265 0.142393
H44   H     H_    0.302948 0.205931 0.652290 -0.029758
H45   H     H_    0.937208 0.731377 0.873237 0.126995
H46   H     H_    0.041058 0.531213 0.712851 0.142383
H47   H     H_    0.782511 0.471604 0.379419 -0.016099
H48   H     H_    0.365768 0.436945 0.601970 0.062312
H49   H     H_    0.346804 0.963974 0.552773 0.130784
H50   H     H_    0.850814 0.045995 0.442278 0.109060
H51   H     H_    0.398533 0.273143 0.527289 0.054444
H52   H     H_    0.024116 0.166288 0.714487 0.124580
H53   H     H_    0.222355 0.085629 0.707819 0.116802
H54   H     H_    0.322844 0.259925 0.436948 0.002178
H55   H     H_    0.114074 0.250073 0.449128 0.082921
N1    N     N_R   0.960208 0.515963 0.200905 -0.419962
N2    N     N_R   0.262806 0.508315 0.794032 -0.426657
O1    O     O_2   0.907040 0.557650 0.617910 -0.455539
O2    O     O_3   0.658242 0.211864 0.397678 -0.642144
O3    O     O_3   0.107757 0.135656 0.619480 -0.600880
O4    O     O_2   0.282660 0.442310 0.382060 -0.454345
O5    O     O_3   0.050670 0.442340 0.442260 -0.500540
O6    O     O_3   0.504750 0.639360 0.411530 -0.436046
O7    O     O_3   0.161739 0.272960 0.377294 -0.624205
O8    O     O_3   0.618400 0.630290 0.524520 -0.469406
O9    O     O_3   0.090070 0.694820 0.435810 -0.459974
O10   O     O_2   0.189721 0.880884 0.462803 -0.445339
O11   O     O_3   0.072663 0.856820 0.371844 -0.621949
O12   O     O_3   0.139040 0.557570 0.557730 -0.453958
O13   O     O_3   0.571310 0.369620 0.475470 -0.493520
O14   O     O_2   0.348200 0.764910 0.523260 -0.453628
O15   O     O_3   0.532477 0.804199 0.603816 -0.647942
O16   O     O_2   0.416263 0.539226 0.323088 -0.502258
O17   O     O_3   0.435905 0.738576 0.325498 -0.599136
O18   O     O_2   0.073000 0.344747 0.194115 -0.583033
O19   O     O_2   0.424419 0.352365 0.798194 -0.585906
O20   O     O_2   0.849905 0.686700 0.199577 -0.614447
O21   O     O_2   0.092462 0.662451 0.795805 -0.590619
O22   O     O_3   0.684960 0.360550 0.588460 -0.496056
O23   O     O_2   0.832913 0.433649 0.673636 -0.496526
O24   O     O_3   0.050979 0.720359 0.637015 -0.644852
O25   O     O_3   0.651595 0.298764 0.687585 -0.589366
O26   O     O_2   0.841490 0.235060 0.476710 -0.476582
O27   O     O_3   0.099640 0.305100 0.564190 -0.498614
O28   O     O_2   0.035572 0.123489 0.523303 -0.441160
P1    P     P_3+3 0.072810 0.589830 0.610360 1.034626
P2    P     P_3+3 0.661990 0.251250 0.462170 0.963423
P3    P     P_3+3 0.153357 0.170878 0.562339 0.965730
P4    P     P_3+3 0.116900 0.410080 0.389630 0.994756
P5    P     P_3+3 0.050654 0.831914 0.432838 1.006997
P6    P     P_3+3 0.668466 0.401489 0.653340 0.965861
P7    P     P_3+3 0.532237 0.765812 0.539393 0.957376
P8    P     P_3+3 0.525271 0.620552 0.346368 0.980915
C63   C     C_2   0.940076 0.962233 0.586083 0.836061
O29   O     O_2   0.032695 0.950786 0.551653 -0.593030
O30   O     O_R   0.797140 0.033238 0.586780 -0.806104
H56   H     H_    0.801304 0.089654 0.564881 0.319290
S1    S     S_3+6 0.010218 0.829380 0.042457 -0.075905
O31   O     O_2   0.849984 0.884050 0.023782 -0.299400
O32   O     O_2   0.062270 0.893637 0.089264 -0.257731
O33   O     O_3   0.153691 0.821053 0.999781 -0.514657
H57   H     H_    0.143959 0.892764 0.990120 0.368681
C64   C     C_2   0.824579 0.712593 0.478132 0.860790
O34   O     O_2   0.910061 0.678739 0.511752 -0.608671
O35   O     O_R   0.790578 0.644660 0.437047 -0.774802
H58   H     H_    0.807046 0.570892 0.446128 0.326239

loop_
_geom_bond_atom_site_label_1
_geom_bond_atom_site_label_2
_ccdc_geom_bond_type
C25   C46   A    
C56   C60   S    
C3    O15   S    
C53   C54   A    
O33   H57   S    
C16   N1    S    
C61   O2    S    
C48   S1    S    
C62   H13   S    
C49   C64   S    
C17   C18   A    
C22   H48   S    
Ba2   O8    S    
C56   O24   S    
C5    C6    S    
C64   O35   S    
C51   C52   A    
C54   C55   A    
C37   P1    S    
Ba2   O13   S    
C4    H21   S    
C11   C16   D    
O1    P1    D    
Ba2   P4    S    
C35   C36   S    
C13   P8    S    
Ba1   O8    S    
C28   C29   A    
O15   P7    S    
C55   C57   A    
C46   H43   S    
C9    N1    Am   
C31   C47   A    
C5    H25   S    
C10   C20   A    
C23   H23   S    
C22   C37   D    
C10   O20   D    
C27   H39   S    
C34   C45   S    
Ba1   Ba2   S    
O35   H58   S    
C39   N2    S    
C8    H34   S    
C34   H55   S    
C9    O18   D    
Ba1   O1    S    
C51   H49   S    
C10   N1    Am   
C25   C42   A    
C32   O21   D    
O25   P6    S    
C5    H24   S    
O4    P4    D    
C14   C15   D    
C17   C41   A    
C22   C36   S    
C60   C63   S    
C6    H28   S    
C1    H11   S    
C7    C8    S    
O6    P8    S    
C45   H2    S    
C19   C43   A    
O24   P1    S    
C50   C53   A    
C33   N2    Am   
Ba2   O6    S    
C12   H44   S    
O3    P3    S    
C1    H22   S    
C63   O30   S    
C34   O7    S    
C36   P6    S    
Ba1   O12   S    
C1    H16   S    
C45   H3    S    
C50   C52   A    
C31   C32   A    
S1    O32   D    
O2    P2    S    
C9    C18   A    
Ba2   O12   S    
C4    H20   S    
C26   C30   A    
C17   C20   A    
C12   O3    S    
Ba1   O5    S    
C2    H15   S    
C11   H41   S    
C23   H52   S    
C64   O34   D    
C19   H36   S    
C51   C55   A    
C56   H6    S    
C52   P3    S    
C61   H9    S    
O14   P7    D    
C58   C59   A    
C40   C43   A    
O26   P2    D    
C41   C42   A    
O5    P4    S    
C27   C28   A    
Ba1   O22   S    
C43   H40   S    
C33   O19   D    
S1    O33   S    
C3    H17   S    
C7    O17   S    
O22   P6    S    
C29   C30   A    
C8    H32   S    
C2    O25   S    
C28   H38   S    
C15   C16   S    
C62   H12   S    
C60   H8    S    
Ba1   P1    S    
O9    P5    S    
C6    H27   S    
C15   H35   S    
C5    O11   S    
O7    P4    S    
Ba2   O5    S    
C38   C39   S    
C20   C44   A    
C32   N2    Am   
C11   C13   S    
C63   O29   D    
C29   C33   A    
O28   P3    D    
C49   C57   A    
C40   C41   A    
Ba1   O13   S    
C59   H50   S    
C7    H29   S    
C45   H4    S    
C37   C38   D    
C34   H54   S    
C24   C40   A    
C12   H33   S    
C47   H45   S    
S1    O31   D    
C50   H51   S    
C42   C48   A    
C46   C47   A    
C4    H19   S    
C62   H14   S    
O10   P5    D    
O12   P1    S    
O27   P3    S    
C23   H53   S    
O8    P7    S    
C38   H46   S    
C57   P7    S    
C56   H5    S    
C53   P2    S    
C61   H10   S    
C14   C21   D    
C21   H47   S    
C44   C48   A    
C24   C26   A    
Ba2   O14   S    
O16   P8    D    
C30   C31   A    
O23   P6    D    
O11   P5    S    
O30   H56   S    
C35   H37   S    
C3    H18   S    
O17   P8    S    
C3    C4    S    
C8    H31   S    
O13   P2    S    
C44   H42   S    
C2    H1    S    
C13   C21   S    
Ba2   O9    S    
C60   H7    S    
Ba1   P2    S    
C12   C23   S    
C35   C39   D    
C58   P5    S    
Ba1   O26   S    
C61   C62   S    
Ba2   O4    S    
C6    H26   S    
C18   C19   A    
C24   C27   A    
C14   P4    S    
C54   C59   A    
Ba1   O27   S    
C49   C58   A    
C7    H30   S    
C1    C2    S    
C25   C26   A    
