data_mof_unit_67221.cif
_audit_creation_date              2013-03-05T16:01:25-0500
_audit_creation_method            fapswitch 2.2
_symmetry_space_group_name_H-M    P1
_symmetry_Int_Tables_number       1
_space_group_crystal_system       triclinic
_cell_length_a                    20.777785
_cell_length_b                    21.159182
_cell_length_c                    8.97062
_cell_angle_alpha                 89.862388
_cell_angle_beta                  93.961596
_cell_angle_gamma                 90.183278
_cell_volume                      3934.39871957

loop_
_atom_site_label
_atom_site_type_symbol
_atom_site_description
_atom_site_fract_x
_atom_site_fract_y
_atom_site_fract_z
_atom_type_partial_charge
P1    P     P_3+3 0.136530 0.426510 0.931350 0.665884
P2    P     P_3+3 0.136530 0.573490 0.431350 0.662355
P3    P     P_3+3 0.636530 0.926510 0.931350 0.657847
P4    P     P_3+3 0.636530 0.073490 0.431350 0.665124
O1    O     O_2   0.130070 0.404060 0.104920 -0.292277
O2    O     O_2   0.130070 0.595940 0.604920 -0.357979
O3    O     O_2   0.630070 0.904060 0.104920 -0.310172
O4    O     O_2   0.630070 0.095940 0.604920 -0.357748
O5    O     O_3   0.075780 0.466370 0.861070 -0.325109
O6    O     O_3   0.075780 0.533630 0.361070 -0.301184
O7    O     O_3   0.575780 0.966370 0.861070 -0.319833
O8    O     O_3   0.575780 0.033630 0.361070 -0.302901
O9    O     O_3   0.022320 0.344950 0.359800 -0.374396
O10   O     O_3   0.022320 0.655050 0.859800 -0.386700
O11   O     O_3   0.522320 0.844950 0.359800 -0.408148
O12   O     O_3   0.522320 0.155050 0.859800 -0.358575
O13   O     O_2   0.133411 0.297281 0.278548 -0.289560
O14   O     O_2   0.130934 0.702744 0.767102 -0.310717
O15   O     O_2   0.633895 0.802981 0.265323 -0.331582
O16   O     O_2   0.626200 0.210227 0.769520 -0.305095
O17   O     O_3   0.213578 0.464942 0.945493 -0.549063
O18   O     O_3   0.214497 0.536273 0.438036 -0.526175
O19   O     O_3   0.713066 0.965797 0.941898 -0.538460
O20   O     O_3   0.714630 0.036150 0.435858 -0.518796
O21   O     O_3   0.051579 0.212946 0.345295 -0.526783
O22   O     O_3   0.055682 0.786610 0.857452 -0.528987
O23   O     O_3   0.555950 0.715912 0.321297 -0.536998
O24   O     O_3   0.545529 0.290194 0.859362 -0.530764
C1    C     C_3   0.034398 0.107561 0.445595 -0.686088
C2    C     C_3   0.067274 0.873713 0.032245 -0.634238
C3    C     C_3   0.513546 0.617837 0.427301 -0.756577
C4    C     C_3   0.490097 0.377146 0.972400 -0.704167
H1    H     H_    0.985744 0.094556 0.399995 0.163184
H2    H     H_    0.043615 0.896746 0.124402 0.266716
H3    H     H_    0.471989 0.600068 0.355410 0.176455
H4    H     H_    0.466775 0.399758 0.871246 0.193100
P5    P     P_3+3 0.863410 0.426100 0.379280 0.489522
P6    P     P_3+3 0.863410 0.573900 0.879280 0.482847
P7    P     P_3+3 0.363410 0.926100 0.379280 0.486728
P8    P     P_3+3 0.363410 0.073900 0.879280 0.477487
P9    P     P_3+3 0.907684 0.297770 0.916832 0.469762
P10   P     P_3+3 0.909086 0.702970 0.415706 0.469880
P11   P     P_3+3 0.408483 0.796527 0.919108 0.445435
P12   P     P_3+3 0.410214 0.203769 0.408887 0.465588
O25   O     O_2   0.869860 0.403670 0.205810 -0.377322
O26   O     O_2   0.869860 0.596330 0.705810 -0.392644
O27   O     O_2   0.369860 0.903670 0.205810 -0.367558
O28   O     O_2   0.369860 0.096330 0.705810 -0.393108
O29   O     O_3   0.977590 0.344880 0.951200 -0.358387
O30   O     O_3   0.977590 0.655120 0.451200 -0.393572
O31   O     O_3   0.477590 0.844880 0.951200 -0.380286
O32   O     O_3   0.477590 0.155120 0.451200 -0.391664
O33   O     O_2   0.868444 0.301045 0.056991 -0.404584
O34   O     O_2   0.871252 0.703100 0.558620 -0.425992
O35   O     O_2   0.362802 0.814107 0.040093 -0.412628
O36   O     O_2   0.368945 0.203086 0.544922 -0.446183
O37   O     O_3   0.801845 0.480989 0.347234 -0.540949
O38   O     O_3   0.801298 0.518957 0.844316 -0.547695
O39   O     O_3   0.301602 0.980765 0.345881 -0.534728
O40   O     O_3   0.302447 0.018116 0.842367 -0.552501
O41   O     O_3   0.932187 0.218091 0.915917 -0.547528
O42   O     O_3   0.941195 0.780145 0.410143 -0.513201
O43   O     O_3   0.428564 0.718589 0.975346 -0.534992
O44   O     O_3   0.440984 0.281749 0.405122 -0.523707
C5    C     C_3   0.986186 0.204669 0.013926 0.380330
C6    C     C_3   0.989910 0.790170 0.526501 0.373640
C7    C     C_3   0.495287 0.707046 0.971388 0.289934
C8    C     C_3   0.493049 0.291344 0.513964 0.379846
H5    H     H_    0.979211 0.223808 0.126595 0.158253
H6    H     H_    0.987806 0.754896 0.618201 0.142718
H7    H     H_    0.523875 0.745327 0.029477 0.141931
H8    H     H_    0.492936 0.256127 0.605907 0.135740
C9    C     C_3   0.996735 0.132088 0.018796 -0.630992
C10   C     C_3   0.980530 0.855335 0.596430 -0.806787
C11   C     C_3   0.514195 0.644895 0.052425 -0.685672
C12   C     C_3   0.487785 0.357351 0.584132 -0.861397
H9    H     H_    0.046946 0.120844 0.059779 0.165663
H10   H     H_    0.934947 0.855730 0.651497 0.228815
H11   H     H_    0.489154 0.645055 0.153777 0.247062
H12   H     H_    0.443913 0.358430 0.644893 0.232163
C13   C     C_3   0.810287 0.468400 0.944093 0.255856
C14   C     C_3   0.807942 0.527140 0.458862 0.268232
C15   C     C_3   0.311307 0.968331 0.944135 0.284144
C16   C     C_3   0.306704 0.026769 0.457753 0.260485
H13   H     H_    0.846307 0.435300 0.902593 0.047683
H14   H     H_    0.844112 0.562770 0.427732 0.078275
H15   H     H_    0.349700 0.936502 0.908253 0.065862
H16   H     H_    0.345446 0.060740 0.432668 0.088395
H17   H     H_    0.826576 0.485644 0.057313 0.144945
H18   H     H_    0.822664 0.506405 0.569998 0.128911
H19   H     H_    0.323948 0.986527 0.058563 0.143033
H20   H     H_    0.317213 0.005328 0.569961 0.123157
C17   C     C_3   0.746527 0.434112 0.956015 -0.023953
C18   C     C_3   0.743342 0.559346 0.468594 -0.111005
C19   C     C_3   0.248881 0.931602 0.947562 -0.100800
C20   C     C_3   0.243401 0.062269 0.457114 -0.100674
H21   H     H_    0.718513 0.433311 0.846180 0.202367
H22   H     H_    0.718058 0.558868 0.355922 0.197566
H23   H     H_    0.226462 0.926506 0.832381 0.190960
H24   H     H_    0.223420 0.066766 0.339948 0.190375
H25   H     H_    0.755954 0.384367 0.989865 0.052448
H26   H     H_    0.750850 0.609395 0.501934 0.080608
H27   H     H_    0.258956 0.883486 0.991907 0.081152
H28   H     H_    0.252281 0.110595 0.501532 0.077394
Ba1   Ba    Ba6+2 0.999980 0.452130 0.155200 1.695637
Ba2   Ba    Ba6+2 0.999980 0.547870 0.655200 1.707141
Ba3   Ba    Ba6+2 0.499980 0.952130 0.155200 1.675186
Ba4   Ba    Ba6+2 0.499980 0.047870 0.655200 1.696191
C21   C     C_3   0.228902 0.527783 0.987100 0.513182
C22   C     C_3   0.235677 0.476301 0.492552 0.624986
C23   C     C_3   0.728265 0.029202 0.980074 0.509824
C24   C     C_3   0.735079 0.975645 0.489411 0.617295
C25   C     C_3   0.303037 0.535482 0.972248 -0.710773
C26   C     C_3   0.308888 0.471502 0.462491 -0.839108
C27   C     C_3   0.800699 0.037205 0.949232 -0.669338
C28   C     C_3   0.808774 0.970581 0.464318 -0.839794
H29   H     H_    0.329490 0.512329 0.069400 0.209832
H30   H     H_    0.337952 0.495982 0.553638 0.235894
H31   H     H_    0.830874 0.012936 0.038885 0.210619
H32   H     H_    0.836741 0.993465 0.559472 0.229551
H33   H     H_    0.317276 0.509602 0.872480 0.256461
H34   H     H_    0.317867 0.497427 0.358155 0.215368
H35   H     H_    0.810827 0.012464 0.844887 0.258573
H36   H     H_    0.819751 0.997867 0.363245 0.210365
O45   O     O_3   0.924190 0.533610 0.949240 -0.385921
O46   O     O_3   0.924190 0.466390 0.449240 -0.456999
O47   O     O_3   0.424190 0.033610 0.949240 -0.379498
O48   O     O_3   0.424190 0.966390 0.449240 -0.453481
P13   P     P_3+3 0.085983 0.710897 0.895836 0.496455
P14   P     P_3+3 0.083925 0.286774 0.397581 0.517495
P15   P     P_3+3 0.580662 0.215640 0.898136 0.511855
P16   P     P_3+3 0.586218 0.788735 0.386281 0.476961
C29   C     C_3   0.036905 0.179061 0.473828 0.241004
C30   C     C_3   0.029022 0.813905 0.982433 0.133059
C31   C     C_3   0.516875 0.691083 0.427492 0.259545
C32   C     C_3   0.495533 0.304810 0.952858 0.220920
H37   H     H_    0.074400 0.184472 0.565040 0.088676
H38   H     H_    0.030085 0.782493 0.079741 0.160394
H39   H     H_    0.539191 0.702609 0.537585 0.144170
H40   H     H_    0.504733 0.284454 0.065321 0.148671
H41   H     H_    0.042424 0.082070 0.553835 0.220018
H42   H     H_    0.115852 0.859633 0.077868 0.202391
H43   H     H_    0.504603 0.600726 0.540790 0.261588
H44   H     H_    0.458172 0.386711 0.064175 0.248734
H45   H     H_    0.990735 0.112999 0.903279 0.274109
H46   H     H_    0.018087 0.863286 0.684500 0.211324
H47   H     H_    0.567067 0.644720 0.081077 0.214318
H48   H     H_    0.529289 0.366744 0.664949 0.252743
C33   C     C_R   0.247003 0.299328 0.996454 -0.093237
C34   C     C_R   0.248389 0.697498 0.495392 -0.107192
C35   C     C_R   0.744369 0.797795 0.997237 -0.164715
C36   C     C_R   0.744859 0.200736 0.498883 -0.079707
C37   C     C_R   0.152755 0.346704 0.827689 0.220875
C38   C     C_R   0.150868 0.653331 0.329999 0.203889
C39   C     C_R   0.651139 0.845367 0.826908 0.172062
C40   C     C_R   0.650867 0.153567 0.327901 0.186897
C41   C     C_R   0.113951 0.335307 0.694056 -0.362873
C42   C     C_R   0.113604 0.663050 0.193018 -0.319146
C43   C     C_R   0.613891 0.834956 0.689692 -0.364945
C44   C     C_R   0.613052 0.163760 0.191519 -0.345173
C45   C     C_R   0.129288 0.289687 0.588618 0.157846
C46   C     C_R   0.132776 0.705949 0.084058 0.193814
C47   C     C_R   0.629279 0.789028 0.582938 0.187006
C48   C     C_R   0.629117 0.209696 0.085381 0.217086
C49   C     C_R   0.179479 0.247107 0.624719 -0.156270
C50   C     C_R   0.182312 0.749259 0.121770 -0.190415
C51   C     C_R   0.677214 0.744508 0.623864 -0.077198
C52   C     C_R   0.678455 0.253180 0.123515 -0.124385
C53   C     C_R   0.213099 0.247548 0.766243 0.088708
C54   C     C_R   0.213800 0.750614 0.265918 0.117813
C55   C     C_R   0.710375 0.745050 0.767082 0.129196
C56   C     C_R   0.712621 0.252144 0.265054 0.079782
C57   C     C_R   0.203917 0.299217 0.865938 0.009663
C58   C     C_R   0.203446 0.699611 0.367236 -0.031526
C59   C     C_R   0.701076 0.796915 0.866744 -0.014971
C60   C     C_R   0.702282 0.200935 0.366443 -0.039899
C61   C     C_R   0.790151 0.692286 0.948384 0.038351
C62   C     C_R   0.791605 0.306077 0.446022 0.032403
C63   C     C_R   0.288446 0.191569 0.950250 0.012292
C64   C     C_R   0.292009 0.804941 0.447086 -0.007121
C65   C     C_R   0.781243 0.743508 0.047105 -0.007612
C66   C     C_R   0.780021 0.256513 0.547940 0.012571
C67   C     C_R   0.282173 0.244065 0.046683 0.024166
C68   C     C_R   0.283259 0.753197 0.545922 0.012816
C69   C     C_R   0.835585 0.642434 0.995466 0.255956
C70   C     C_R   0.837597 0.355873 0.492371 0.272512
C71   C     C_R   0.332283 0.140328 0.998037 0.230956
C72   C     C_R   0.337163 0.855520 0.493828 0.262517
C73   C     C_R   0.861554 0.641814 0.145088 -0.479335
C74   C     C_R   0.865315 0.355793 0.639986 -0.357812
C75   C     C_R   0.358452 0.139721 0.146951 -0.484559
C76   C     C_R   0.365668 0.854212 0.641084 -0.296676
C77   C     C_R   0.854826 0.693099 0.240322 0.293729
C78   C     C_R   0.854325 0.307263 0.739994 0.244236
C79   C     C_R   0.355191 0.192777 0.237617 0.309487
C80   C     C_R   0.358678 0.802620 0.736347 0.258366
C81   C     C_R   0.814364 0.742928 0.191134 -0.200624
C82   C     C_R   0.810240 0.259302 0.694536 -0.287397
C83   C     C_R   0.316081 0.243324 0.188956 -0.240665
C84   C     C_R   0.316127 0.753845 0.689643 -0.274993
C85   C     C_R   0.755213 0.695173 0.807121 -0.110219
C86   C     C_R   0.758301 0.301706 0.303215 -0.106479
C87   C     C_R   0.255027 0.195731 0.807842 -0.173672
C88   C     C_R   0.257893 0.801249 0.305276 -0.189352
H49   H     H_    0.189612 0.210955 0.544354 0.146904
H50   H     H_    0.194485 0.783952 0.039282 0.136846
H51   H     H_    0.687365 0.708061 0.544358 0.139338
H52   H     H_    0.688225 0.289946 0.043892 0.143958
H53   H     H_    0.809314 0.782070 0.266363 0.184239
H54   H     H_    0.801912 0.221483 0.771338 0.182788
H55   H     H_    0.313044 0.282950 0.263595 0.192894
H56   H     H_    0.309537 0.715042 0.765083 0.179941
H57   H     H_    0.893098 0.603599 0.183550 0.165957
H58   H     H_    0.897168 0.393936 0.677306 0.161366
H59   H     H_    0.389023 0.100897 0.186272 0.162610
H60   H     H_    0.395979 0.893195 0.680416 0.150200
H61   H     H_    0.761535 0.657620 0.728606 0.165820
H62   H     H_    0.766201 0.338008 0.222185 0.179526
H63   H     H_    0.259928 0.157525 0.730150 0.175822
H64   H     H_    0.264405 0.838484 0.225605 0.195072
C89   C     C_2   0.973041 0.199690 0.524050 1.067886
O49   O     O_2   0.941034 0.240109 0.455425 -0.576950
O50   O     O_R   0.949178 0.169419 0.645870 -0.758292
H65   H     H_    0.904315 0.184257 0.661831 0.366773
C90   C     C_2   0.959000 0.826823 0.942706 1.025115
O51   O     O_2   0.937442 0.880312 0.949997 -0.531334
O52   O     O_R   0.919212 0.776979 0.891416 -0.801728
H66   H     H_    0.874776 0.791607 0.853032 0.347036
C91   C     C_2   0.451096 0.720143 0.402742 1.091289
O53   O     O_2   0.433921 0.758820 0.491377 -0.662917
O54   O     O_R   0.411968 0.706927 0.274213 -0.724511
H67   H     H_    0.370380 0.731800 0.268646 0.361233
C92   C     C_2   0.431978 0.280436 0.883292 0.933889
O55   O     O_2   0.386838 0.315752 0.851193 -0.586261
O56   O     O_R   0.425082 0.217373 0.849160 -0.768616
H68   H     H_    0.382388 0.208562 0.795141 0.356799
N1    N     N_R   0.709546 0.465734 0.065911 0.262353
O57   O     O_R   0.693225 0.435193 0.183571 -0.400735
O58   O     O_R   0.697087 0.525834 0.052596 -0.378997
N2    N     N_R   0.704705 0.526600 0.575100 0.264477
O59   O     O_R   0.678693 0.558135 0.679652 -0.319915
O60   O     O_R   0.694869 0.465940 0.564230 -0.372808
N3    N     N_R   0.205750 0.964508 0.042214 0.245160
O61   O     O_R   0.194921 0.941269 0.172401 -0.410834
O62   O     O_R   0.184528 0.020603 0.005330 -0.359616
N4    N     N_R   0.197884 0.028801 0.546355 0.262996
O63   O     O_R   0.174377 0.056559 0.659771 -0.385703
O64   O     O_R   0.180209 0.971242 0.512606 -0.310082
N5    N     N_R   0.216326 0.535982 0.138352 0.159621
O65   O     O_R   0.244622 0.582407 0.210344 -0.436569
O66   O     O_R   0.159433 0.518741 0.170085 -0.338299
N6    N     N_R   0.228991 0.473067 0.648074 0.188547
O67   O     O_R   0.259790 0.428427 0.722464 -0.380873
O68   O     O_R   0.172534 0.489168 0.684681 -0.419562
N7    N     N_R   0.721085 0.036654 0.134681 0.160164
O69   O     O_R   0.752757 0.081010 0.208094 -0.446669
O70   O     O_R   0.665278 0.019411 0.173620 -0.345627
N8    N     N_R   0.726463 0.970765 0.644212 0.183435
O71   O     O_R   0.754375 0.923914 0.716349 -0.392187
O72   O     O_R   0.670960 0.989426 0.681543 -0.410434
C93   C     C_2   0.187913 0.574498 0.902980 1.035266
O73   O     O_2   0.210325 0.616141 0.829044 -0.609983
O74   O     O_R   0.122914 0.572792 0.924093 -0.733052
H69   H     H_    0.096435 0.581532 0.830487 0.397380
C94   C     C_2   0.196081 0.424050 0.428227 0.980979
O75   O     O_2   0.211398 0.369057 0.449479 -0.627521
O76   O     O_R   0.136866 0.438991 0.365232 -0.677963
H70   H     H_    0.108402 0.402737 0.346858 0.382526
C95   C     C_2   0.683919 0.076164 0.904598 1.046336
O77   O     O_2   0.703206 0.123165 0.844273 -0.603442
O78   O     O_R   0.619569 0.070450 0.925544 -0.726384
H71   H     H_    0.593756 0.081069 0.832152 0.392231
C96   C     C_2   0.695956 0.924293 0.420027 1.012979
O79   O     O_2   0.710907 0.869045 0.437416 -0.633356
O80   O     O_R   0.636441 0.940287 0.361432 -0.677957
H72   H     H_    0.606173 0.905397 0.345960 0.384165
C97   C     C_2   0.328098 0.602023 0.961617 1.264028
O81   O     O_2   0.364567 0.614121 0.865265 -0.644647
O82   O     O_R   0.308740 0.649830 0.055621 -0.717658
H73   H     H_    0.318959 0.693805 0.020601 0.346620
C98   C     C_2   0.335769 0.405721 0.450660 1.137847
O83   O     O_2   0.361605 0.390348 0.338123 -0.639423
O84   O     O_R   0.330637 0.362240 0.566370 -0.680401
H74   H     H_    0.342979 0.318057 0.537804 0.359625
C99   C     C_2   0.825195 0.103444 0.936370 1.172621
O85   O     O_2   0.864803 0.114410 0.845895 -0.618145
O86   O     O_R   0.803310 0.151886 0.025636 -0.724186
H75   H     H_    0.824792 0.193796 0.010228 0.365091
C100  C     C_2   0.835041 0.904600 0.450089 1.151928
O87   O     O_2   0.863029 0.890340 0.339711 -0.612770
O88   O     O_R   0.826504 0.859524 0.560909 -0.721710
H76   H     H_    0.838144 0.815503 0.529648 0.345837
C101  C     C_2   0.057230 0.372774 0.655554 1.030073
O89   O     O_2   0.003940 0.349418 0.662546 -0.661760
O90   O     O_R   0.065135 0.430953 0.588825 -0.743608
H77   H     H_    0.026688 0.443113 0.522128 0.377708
C102  C     C_2   0.047499 0.639118 0.169210 1.064380
O91   O     O_2   0.036197 0.585992 0.122284 -0.519548
O92   O     O_R   0.998475 0.683333 0.167860 -0.807670
H78   H     H_    0.966715 0.677527 0.079118 0.316151
C103  C     C_2   0.557655 0.873036 0.652007 1.035291
O93   O     O_2   0.504166 0.850820 0.662935 -0.649585
O94   O     O_R   0.565754 0.931311 0.586287 -0.742117
H79   H     H_    0.526981 0.944072 0.521401 0.378568
C104  C     C_2   0.548082 0.137696 0.168033 1.070798
O95   O     O_2   0.538320 0.084061 0.123062 -0.515074
O96   O     O_R   0.497923 0.180299 0.165608 -0.823265
H80   H     H_    0.464331 0.169129 0.084582 0.316652
C105  C     C_2   0.272029 0.359411 0.053305 1.154363
O97   O     O_2   0.315094 0.386535 0.992738 -0.549208
O98   O     O_R   0.248277 0.384598 0.178741 -0.767593
H81   H     H_    0.264352 0.429155 0.194903 0.303461
C106  C     C_2   0.287942 0.640216 0.515368 1.159322
O99   O     O_2   0.284928 0.607120 0.625266 -0.607993
O100  O     O_R   0.334035 0.627693 0.413743 -0.744387
H82   H     H_    0.365121 0.593231 0.449063 0.315559
C107  C     C_2   0.772029 0.858217 0.043779 1.160518
O101  O     O_2   0.813194 0.882509 0.971799 -0.544413
O102  O     O_R   0.752764 0.887212 0.170086 -0.763301
H83   H     H_    0.772397 0.930680 0.182156 0.312522
C108  C     C_2   0.781642 0.143022 0.531586 1.147625
O103  O     O_2   0.768395 0.107858 0.631567 -0.615256
O104  O     O_R   0.836287 0.132058 0.454959 -0.766544
H84   H     H_    0.862372 0.094929 0.496710 0.323009
C109  C     C_2   0.081295 0.082835 0.340747 1.175789
O105  O     O_2   0.121985 0.117092 0.290135 -0.633633
O106  O     O_R   0.075845 0.019771 0.297021 -0.711856
H85   H     H_    0.103762 0.009730 0.212655 0.382231
C110  C     C_2   0.073912 0.921284 0.909496 1.218761
O107  O     O_2   0.109547 0.910489 0.809918 -0.595171
O108  O     O_R   0.040547 0.978433 0.911545 -0.709777
H86   H     H_    0.049373 0.006712 0.823809 0.353200
C111  C     C_2   0.573556 0.585156 0.384696 1.226819
O109  O     O_2   0.619480 0.614893 0.343237 -0.641365
O110  O     O_R   0.575973 0.519477 0.392560 -0.722079
H87   H     H_    0.616870 0.501733 0.354758 0.375558
C112  C     C_2   0.552207 0.411533 0.002408 1.274159
O111  O     O_2   0.595317 0.406834 0.917195 -0.586902
O112  O     O_R   0.556353 0.455797 0.116918 -0.724370
H88   H     H_    0.588749 0.490161 0.099889 0.353351
C113  C     C_2   0.046117 0.229914 0.952906 1.000777
O113  O     O_2   0.079429 0.268613 0.022385 -0.591279
O114  O     O_R   0.067426 0.202394 0.825199 -0.834082
H89   H     H_    0.114423 0.190899 0.840376 0.317114
C114  C     C_2   0.056537 0.787927 0.470246 1.021381
O115  O     O_2   0.063696 0.777769 0.339051 -0.658427
O116  O     O_R   0.110049 0.801681 0.567812 -0.729947
H90   H     H_    0.151577 0.804307 0.515555 0.335740
C115  C     C_2   0.513615 0.700407 0.816885 0.981881
O117  O     O_2   0.570512 0.703115 0.793087 -0.662734
O118  O     O_R   0.468685 0.678398 0.706993 -0.806633
H91   H     H_    0.422197 0.684070 0.727056 0.352514
C116  C     C_2   0.557399 0.288676 0.447828 1.008599
O119  O     O_2   0.560847 0.283814 0.313399 -0.644084
O120  O     O_R   0.613068 0.298835 0.541127 -0.757031
H92   H     H_    0.651841 0.309443 0.483874 0.334211
C117  C     C_2   0.953367 0.095496 0.112347 1.055090
O121  O     O_2   0.955832 0.037750 0.111769 -0.553545
O122  O     O_R   0.910056 0.126091 0.198556 -0.758176
H93   H     H_    0.880230 0.094103 0.241453 0.356197
C118  C     C_2   0.982874 0.911389 0.494791 1.284080
O123  O     O_2   0.997251 0.906051 0.365773 -0.557264
O124  O     O_R   0.965402 0.970029 0.549212 -0.800403
H94   H     H_    0.955897 0.001222 0.465420 0.316677
C119  C     C_2   0.496314 0.583438 0.975208 1.180012
O125  O     O_2   0.521386 0.567993 0.861442 -0.564835
O126  O     O_R   0.454113 0.542074 0.041084 -0.789348
H95   H     H_    0.443680 0.503505 0.977262 0.327525
C120  C     C_2   0.484572 0.412102 0.478173 1.320437
O127  O     O_2   0.495296 0.405559 0.347057 -0.548421
O128  O     O_R   0.465890 0.470698 0.531070 -0.782847
H96   H     H_    0.454215 0.501133 0.446568 0.321300

loop_
_geom_bond_atom_site_label_1
_geom_bond_atom_site_label_2
_geom_bond_distance
_ccdc_geom_bond_type
C1    C29   1.534661 S    
N7    O70   1.285429 A    
C29   H37   1.096055 S    
C117  O121  1.223136 D    
C14   C18   1.515230 S    
C25   C97   1.504702 S    
C110  O108  1.396577 S    
O50   H65   1.004242 S    
P9    O41   1.762897 S    
C32   H40   1.100745 S    
C112  O111  1.221507 D    
P11   O43   1.766200 S    
P8    C71   1.907106 S    
O1    Ba1   2.955053 S    
C111  O109  1.220169 D    
P12   O44   1.768702 S    
C31   H39   1.089492 S    
C21   N5    1.410584 S    
C38   C42   1.421293 A    
C19   H23   1.109014 S    
O78   H71   0.988835 S    
C37   C57   1.487332 A    
O11   P16   1.788599 S    
O88   H76   1.008377 S    
C19   H27   1.107475 S    
P2    O18   1.800720 S    
O9    P14   1.793512 S    
C52   H52   1.083014 S    
P4    O8    1.608683 S    
O21   C29   1.407006 S    
C54   C88   1.436211 A    
C113  O114  1.386531 S    
C10   C118  1.497000 S    
P9    O29   1.768830 S    
C116  O120  1.396451 S    
C74   C78   1.390611 A    
O43   C7    1.411343 S    
C49   C53   1.406166 A    
C27   H35   1.106700 S    
O104  H84   1.012183 S    
C48   C52   1.400533 A    
C24   C96   1.468491 S    
C17   H25   1.109082 S    
C2    H2    1.105561 S    
C51   C55   1.415337 A    
C103  O93   1.215419 D    
C70   C74   1.407059 A    
C42   C102  1.464275 S    
C91   O53   1.213860 D    
C118  O124  1.392821 S    
O94   H79   0.998283 S    
C8    H8    1.110336 S    
O2    Ba2   2.948348 S    
C105  O97   1.219684 D    
C62   C66   1.420502 A    
C95   O78   1.367919 S    
P5    O25   1.642416 D    
C44   C48   1.414232 A    
P7    O27   1.642416 D    
C54   C58   1.434509 A    
P8    O28   1.640006 D    
C8    C116  1.501034 S    
C16   H16   1.111687 S    
C14   H18   1.112034 S    
C15   H19   1.111252 S    
Ba1   O45   2.909604 S    
P3    Ba3   3.630190 S    
O5    Ba2   2.909480 S    
P16   C47   1.922149 S    
Ba3   O47   2.909604 S    
C99   O86   1.398504 S    
C119  O125  1.223051 D    
C6    H6    1.112403 S    
C36   C108  1.461073 S    
C27   C99   1.496507 S    
C3    H43   1.107244 S    
C4    H44   1.111693 S    
P3    O7    1.611330 S    
O110  H87   1.010200 S    
C62   C70   1.461843 A    
O41   C5    1.406057 S    
C12   H48   1.105434 S    
O31   Ba3   2.934406 S    
C108  O103  1.209708 D    
O122  H93   1.009585 S    
C9    H9    1.108311 S    
C49   H49   1.083458 S    
C22   C94   1.470982 S    
C45   C49   1.400744 A    
O128  H96   1.010648 S    
P1    Ba1   3.630190 S    
N6    O67   1.299551 A    
C55   C85   1.438389 A    
C115  O117  1.216890 D    
P8    O40   1.744031 S    
C1    H1    1.098484 S    
N8    O72   1.286444 A    
O118  H91   1.002329 S    
O20   C24   1.422199 S    
C65   C81   1.421336 A    
Ba2   O45   3.177347 S    
N5    O65   1.294058 A    
C89   O49   1.223605 D    
O44   C8    1.420714 S    
C93   O73   1.212588 D    
C106  O100  1.393526 S    
C41   C101  1.443981 S    
C6    C10   1.534752 S    
C109  O106  1.393779 S    
O12   P15   1.779304 S    
C24   N8    1.415847 S    
C17   N1    1.456400 S    
C68   C84   1.416743 A    
Ba3   Ba4   4.925995 S    
C92   O55   1.219464 D    
C22   C26   1.566762 S    
C1    C109  1.496693 S    
P12   O32   1.759950 S    
P2    C38   1.948372 S    
C46   C50   1.400329 A    
N1    O57   1.300551 A    
O23   P16   1.748452 S    
C102  O92   1.384665 S    
O21   P14   1.750781 S    
O25   Ba1   2.952391 S    
C90   O51   1.222090 D    
C79   C83   1.396096 A    
C105  O98   1.369322 S    
C11   C119  1.508153 S    
O42   C6    1.418719 S    
C39   C43   1.425220 A    
C30   C90   1.499623 S    
C40   C44   1.423953 A    
C34   C68   1.439136 A    
C22   N6    1.413022 S    
P2    Ba2   3.626033 S    
C28   H32   1.110126 S    
C9    H45   1.111908 S    
P10   C77   1.882806 S    
P5    Ba1   3.628904 S    
C101  O89   1.216594 D    
O22   C30   1.410087 S    
C74   H58   1.081077 S    
O10   Ba2   2.936454 S    
O124  H94   1.008750 S    
C1    H41   1.112290 S    
C100  O87   1.221370 D    
Ba4   O48   2.908896 S    
C56   C86   1.438138 A    
C94   O76   1.355964 S    
P9    O33   1.546869 D    
C73   H57   1.083172 S    
P10   O30   1.759964 S    
C25   H29   1.111355 S    
P7    C72   1.910097 S    
P11   O35   1.537427 D    
C63   C87   1.413923 A    
C50   C54   1.408592 A    
C27   H31   1.110850 S    
C31   C91   1.502726 S    
C61   C85   1.417513 A    
C7    C11   1.539956 S    
C17   H21   1.109353 S    
C24   C28   1.567019 S    
C33   C67   1.435901 A    
P5    O46   1.612961 S    
O15   P16   1.547461 D    
N4    O63   1.300780 A    
P7    O48   1.612961 S    
O13   P14   1.547886 D    
C12   H12   1.094253 S    
O17   C21   1.411380 S    
O76   H70   0.974488 S    
C4    H4    1.107148 S    
P5    C70   1.894127 S    
C69   C73   1.411635 A    
C8    C12   1.540631 S    
O19   C23   1.414728 S    
C72   C76   1.410083 A    
O23   C31   1.394412 S    
C86   H62   1.076262 S    
C97   O82   1.396319 S    
N8    O71   1.298679 A    
C78   C82   1.406999 A    
C11   H11   1.078302 S    
C61   C65   1.421862 A    
O26   Ba2   2.959152 S    
N2    O59   1.300900 A    
C90   O52   1.397012 S    
O3    Ba3   2.955053 S    
C82   H54   1.076052 S    
C75   C79   1.392429 A    
P6    O26   1.640006 D    
C73   C77   1.396018 A    
C25   H33   1.108310 S    
O7    Ba4   2.909480 S    
C2    C110  1.503144 S    
C53   C57   1.435642 A    
O37   C14   1.399550 S    
C16   H20   1.111197 S    
C13   H13   1.110127 S    
C56   C60   1.438120 A    
C120  O128  1.394431 S    
C15   H15   1.110627 S    
O80   H72   0.972221 S    
O98   H81   1.006657 S    
P6    O45   1.615636 S    
C116  O119  1.217587 D    
O74   H69   0.988972 S    
P4    Ba4   3.626033 S    
C88   H64   1.076950 S    
P1    O1    1.641012 D    
C76   C80   1.398112 A    
P3    O3    1.641012 D    
P4    O20   1.805039 S    
O40   C15   1.396565 S    
C44   C104  1.458543 S    
C63   C71   1.462535 A    
C18   H22   1.106496 S    
N3    O61   1.299675 A    
C61   C69   1.459927 A    
C110  O107  1.221379 D    
O11   Ba3   2.931935 S    
C107  O102  1.374046 S    
C64   C72   1.463815 A    
C75   H59   1.083386 S    
P6    O38   1.746896 S    
O18   C22   1.419145 S    
C29   C89   1.497194 S    
O56   H68   0.998236 S    
C5    C113  1.491342 S    
C114  O116  1.397022 S    
C80   C84   1.402609 A    
P8    Ba4   3.633122 S    
C13   H17   1.110277 S    
C111  O110  1.392227 S    
O100  H82   1.011403 S    
C117  O122  1.388986 S    
C95   O77   1.211332 D    
C23   N7    1.414380 S    
C20   N4    1.460951 S    
C112  O112  1.389853 S    
C35   C65   1.436100 A    
C103  O94   1.380295 S    
C35   C59   1.426294 A    
O96   H80   1.000505 S    
P1    O5    1.611330 S    
O9    Ba1   2.931935 S    
O38   C13   1.397820 S    
O90   H77   0.998431 S    
C4    C32   1.546373 S    
O29   Ba1   2.934406 S    
C11   H47   1.110833 S    
C14   H14   1.111533 S    
P8    O47   1.615636 S    
C33   C105  1.452224 S    
O92   H78   1.005807 S    
C99   O85   1.216557 D    
P12   O36   1.539185 D    
C26   C98   1.508099 S    
O112  H88   1.007808 S    
P7    O39   1.741144 S    
P3    C39   1.992012 S    
O39   C16   1.398284 S    
P1    C37   1.970869 S    
C4    C112  1.488021 S    
O22   P13   1.747933 S    
C18   N2    1.461721 S    
P4    C40   1.961689 S    
C3    H3    1.106784 S    
C98   O84   1.394742 S    
C23   C95   1.487030 S    
O16   P15   1.546521 D    
C21   C93   1.478101 S    
C41   C45   1.405694 A    
O116  H90   1.011347 S    
N6    O68   1.286957 A    
C39   C59   1.486297 A    
C40   C60   1.486300 A    
P12   C79   1.865202 S    
C28   H36   1.110254 S    
O24   C32   1.414875 S    
C10   H46   1.084443 S    
C64   C88   1.415060 A    
O8    Ba3   2.908768 S    
Ba1   Ba2   4.925995 S    
Ba2   O46   2.908896 S    
C2    H42   1.104204 S    
C9    C117  1.487490 S    
O82   H73   1.008017 S    
O106  H85   1.008257 S    
C91   O54   1.392523 S    
O108  H86   1.013940 S    
P10   O34   1.549467 D    
P11   O31   1.768133 S    
C106  O99   1.212923 D    
O28   Ba4   2.959152 S    
C5    H5    1.108655 S    
C26   H34   1.110297 S    
C3    C111  1.500522 S    
C6    C114  1.506786 S    
C7    H7    1.112043 S    
C37   C41   1.418400 A    
C109  O105  1.222249 D    
O102  H83   1.007976 S    
C52   C56   1.411375 A    
C89   O50   1.385567 S    
C104  O95   1.217072 D    
C10   H10   1.098112 S    
O30   Ba2   2.929906 S    
O14   P13   1.544895 D    
C50   H50   1.082809 S    
O10   P13   1.784198 S    
O114  H89   1.007086 S    
P1    O17   1.790063 S    
C102  O91   1.217739 D    
P3    O19   1.788861 S    
O126  H95   1.012306 S    
C66   C82   1.418847 A    
P4    O4    1.643423 D    
C12   C120  1.495479 S    
C113  O113  1.215433 D    
P7    Ba3   3.628904 S    
C84   H56   1.077162 S    
Ba1   O46   3.179506 S    
Ba3   O48   3.179506 S    
C119  O126  1.395802 S    
C16   C20   1.516420 S    
N1    O58   1.302114 A    
C20   H24   1.107071 S    
C28   C100  1.509516 S    
C35   C107  1.450460 S    
C5    C9    1.552090 S    
C83   H55   1.078951 S    
C43   C103  1.441828 S    
O52   H66   1.012038 S    
P15   C48   1.901843 S    
C96   O80   1.353523 S    
O120  H92   1.009293 S    
C108  O104  1.387704 S    
C94   O75   1.218413 D    
C71   C75   1.407098 A    
C21   C25   1.563224 S    
C34   C106  1.470211 S    
C115  O118  1.390112 S    
P2    O2    1.643423 D    
O4    Ba4   2.948348 S    
C2    C30   1.542727 S    
C63   C67   1.421358 A    
N4    O64   1.301292 A    
N5    O66   1.286371 A    
P9    C78   1.882256 S    
C93   O74   1.376984 S    
O12   Ba4   2.936454 S    
C104  O96   1.379134 S    
C98   O83   1.220942 D    
C55   C59   1.439072 A    
C67   C83   1.414650 A    
P11   C80   1.881707 S    
C51   H51   1.082765 S    
P6    Ba2   3.633122 S    
C47   C51   1.402842 A    
C53   C87   1.435104 A    
C13   C17   1.518522 S    
C15   C19   1.512052 S    
C32   C92   1.510824 S    
N2    O60   1.301848 A    
C96   O79   1.217430 D    
C92   O56   1.374582 S    
C26   H30   1.110557 S    
P14   C45   1.898936 S    
C34   C58   1.430857 A    
C7    C115  1.469665 S    
O27   Ba3   2.952391 S    
C62   C86   1.416404 A    
O86   H75   1.005046 S    
C43   C47   1.418616 A    
N7    O69   1.298759 A    
P2    O6    1.608683 S    
O84   H74   1.008566 S    
C64   C68   1.426254 A    
C120  O127  1.220422 D    
P10   O42   1.763919 S    
C30   H38   1.094941 S    
P5    O37   1.739223 S    
P6    C69   1.902448 S    
C118  O123  1.220703 D    
C87   H63   1.078271 S    
O24   P15   1.764097 S    
C20   H28   1.108611 S    
C85   H61   1.077427 S    
C101  O90   1.381838 S    
C77   C81   1.401897 A    
C100  O88   1.395757 S    
P13   C46   1.892122 S    
C33   C57   1.423859 A    
Ba4   O47   3.177347 S    
C107  O101  1.218458 D    
C3    C31   1.551164 S    
C81   H53   1.079534 S    
C42   C46   1.408987 A    
C36   C60   1.431404 A    
C38   C58   1.486023 A    
O32   Ba4   2.929906 S    
O54   H67   1.011409 S    
O6    Ba1   2.908768 S    
C23   C27   1.557549 S    
N3    O62   1.301532 A    
C114  O115  1.216153 D    
C97   O81   1.214482 D    
C36   C66   1.439737 A    
C76   H60   1.081152 S    
C18   H26   1.108729 S    
C19   N3    1.456306 S    
