data_mof_unit_10558.cif
_audit_creation_date              2012-12-10T17:32:13-0500
_audit_creation_method            fapswitch 2.2
_symmetry_space_group_name_H-M    P1
_symmetry_Int_Tables_number       1
_space_group_crystal_system       triclinic
_cell_length_a                    12.331123
_cell_length_b                    13.264957
_cell_length_c                    15.040021
_cell_angle_alpha                 78.136141
_cell_angle_beta                  102.851114
_cell_angle_gamma                 116.906581
_cell_volume                      2123.21623615

loop_
_atom_site_label
_atom_site_type_symbol
_atom_type_description
_atom_site_fract_x
_atom_site_fract_y
_atom_site_fract_z
_atom_type_partial_charge
C1    C     C_R   0.853885 0.286768 0.508341 0.853612
C2    C     C_R   0.054733 0.609231 0.083557 -0.102952
C3    C     C_R   0.994202 0.309474 0.076307 -0.148923
C4    C     C_R   0.988698 0.307471 0.983113 0.424834
C5    C     C_R   0.006000 0.408050 0.922084 0.023848
C6    C     C_R   0.037184 0.510566 0.957186 -0.077583
C7    C     C_R   0.073371 0.615272 0.899315 -0.091990
C8    C     C_R   0.127466 0.717529 0.940030 0.334820
C9    C     C_R   0.109371 0.715613 0.030298 0.339360
C10   C     C_R   0.995326 0.409778 0.827420 -0.227355
C11   C     C_R   0.014510 0.509998 0.768290 -0.189802
C12   C     C_R   0.003941 0.504104 0.670918 0.810355
C13   C     C_R   0.059623 0.614788 0.803452 0.426801
C14   C     C_R   0.258469 0.020758 0.385540 0.426569
C15   C     C_R   0.226172 0.831773 0.460568 -0.093488
C16   C     C_R   0.815695 0.085449 0.553330 -0.134365
C17   C     C_R   0.738989 0.970096 0.560320 -0.128470
C18   C     C_R   0.614336 0.932613 0.527257 -0.168221
C19   C     C_R   0.563417 0.010728 0.484276 0.094268
C20   C     C_R   0.644189 0.126391 0.466584 0.046383
C21   C     C_R   0.435048 0.977146 0.457843 -0.028434
C22   C     C_R   0.388542 0.055514 0.404042 -0.044684
C23   C     C_R   0.144863 0.712425 0.482498 0.817083
C24   C     C_R   0.472762 0.163904 0.369915 0.440836
C25   C     C_R   0.598640 0.198122 0.403648 -0.280956
C26   C     C_R   0.351543 0.867536 0.486944 -0.245804
C27   C     C_R   0.179882 0.908090 0.411210 -0.272665
C28   C     C_R   0.769989 0.164952 0.507906 -0.033282
C29   C     C_R   0.347539 0.326137 0.640816 -0.265213
C30   C     C_R   0.759154 0.647704 0.380043 0.053102
C31   C     C_R   0.662835 0.680531 0.355178 -0.254954
C32   C     C_R   0.559566 0.624823 0.399989 -0.192552
C33   C     C_R   0.551581 0.535563 0.471400 -0.009409
C34   C     C_R   0.000089 0.501049 0.328406 0.959472
C35   C     C_R   0.653466 0.505388 0.494799 0.265711
C36   C     C_R   0.447070 0.475358 0.520567 -0.021126
C37   C     C_R   0.447029 0.386652 0.591438 0.180069
C38   C     C_R   0.546644 0.359038 0.613429 -0.268212
C39   C     C_R   0.647361 0.417350 0.567005 -0.182991
C40   C     C_R   0.341797 0.498614 0.503182 0.053581
C41   C     C_R   0.247708 0.353476 0.620607 0.113210
C42   C     C_R   0.027682 0.602187 0.171502 0.380647
C43   C     C_R   0.999678 0.499665 0.230892 -0.314781
C44   C     C_R   0.981698 0.398943 0.199326 0.347246
C45   C     C_R   0.001300 0.404345 0.109101 -0.058248
C46   C     C_R   0.031724 0.508184 0.050226 -0.107183
Cu1   Cu    Cu3+1 0.098270 0.475420 0.521130 0.989773
Cu2   Cu    Cu3+1 0.901730 0.524580 0.478870 0.950036
H1    H     H_    0.381464 0.808195 0.532760 0.155430
H2    H     H_    0.911331 0.112407 0.583766 0.163731
H3    H     H_    0.561290 0.841560 0.534024 0.129754
H4    H     H_    0.775885 0.909231 0.593359 0.159080
H5    H     H_    0.661600 0.278682 0.374637 0.203237
H6    H     H_    0.170810 0.306786 0.658467 0.131398
H7    H     H_    0.547386 0.291642 0.668072 0.159261
H8    H     H_    0.347129 0.258027 0.694985 0.139887
H9    H     H_    0.333830 0.564190 0.450124 0.119772
H10   H     H_    0.839562 0.692340 0.346659 0.144447
H11   H     H_    0.487811 0.653644 0.377847 0.143309
H12   H     H_    0.668481 0.749935 0.301195 0.153955
H13   H     H_    0.718737 0.390204 0.591326 0.208685
H14   H     H_    0.995311 0.236659 0.122908 0.261570
H15   H     H_    0.969767 0.333071 0.797684 0.217982
H16   H     H_    0.081419 0.879720 0.394453 0.176074
N1    N     N_R   0.246280 0.438190 0.553160 -0.183930
N2    N     N_R   0.754320 0.561190 0.447410 -0.212331
O1    O     O_R   0.972510 0.318130 0.526570 -0.555647
O2    O     O_R   0.806530 0.359650 0.490890 -0.633022
O3    O     O_R   0.082980 0.479210 0.647590 -0.599353
O4    O     O_R   0.917000 0.520730 0.611900 -0.571995
O5    O     O_R   0.193470 0.640350 0.509110 -0.614810
O6    O     O_R   0.027490 0.681870 0.473430 -0.581380
O7    O     O_R   0.083000 0.479270 0.388100 -0.553272
O8    O     O_R   0.917020 0.520790 0.352410 -0.591512
O9    O     O_3   0.024635 0.694591 0.198646 -0.541925
C47   C     C_3   0.906033 0.691108 0.165749 0.087201
H17   H     H_    0.836324 0.617380 0.203024 0.145978
H18   H     H_    0.878738 0.682874 0.090813 0.128847
C48   C     C_3   0.902707 0.799871 0.181029 -0.776657
H19   H     H_    0.806667 0.783577 0.183082 0.195210
H20   H     H_    0.960918 0.830414 0.246243 0.240111
H21   H     H_    0.935716 0.868265 0.124175 0.265217
O10   O     O_3   0.430828 0.225509 0.294820 -0.523537
C49   C     C_3   0.500063 0.344876 0.291097 0.120474
H22   H     H_    0.584776 0.371673 0.260698 0.135610
H23   H     H_    0.523687 0.373050 0.360195 0.143479
C50   C     C_3   0.425135 0.404245 0.229068 -0.669907
H24   H     H_    0.342334 0.385498 0.258754 0.287187
H25   H     H_    0.481792 0.497785 0.221991 0.172721
H26   H     H_    0.396121 0.375142 0.159906 0.251667
S1    S     S_3+6 0.186961 0.114660 0.343702 0.042251
O11   O     O_2   0.255178 0.220192 0.391326 -0.245912
O12   O     O_2   0.186480 0.147013 0.241799 -0.274567
O13   O     O_3   0.040812 0.051331 0.365231 -0.499492
H27   H     H_    0.990656 0.014514 0.309772 0.349555
S2    S     S_3+6 0.915708 0.266258 0.269394 0.008300
O14   O     O_2   0.014966 0.252586 0.342180 -0.193098
O15   O     O_2   0.821878 0.271016 0.314311 -0.371878
O16   O     O_3   0.842624 0.151289 0.212082 -0.529765
H28   H     H_    0.809945 0.085969 0.259604 0.378634
S3    S     S_3+6 0.960312 0.177579 0.946368 -0.033959
O17   O     O_2   0.948346 0.086305 0.026594 -0.308764
O18   O     O_2   0.842917 0.139450 0.879562 -0.313712
O19   O     O_3   0.077376 0.198654 0.894115 -0.570667
H29   H     H_    0.055728 0.123712 0.875304 0.361532
O20   O     O_3   0.071640 0.713185 0.744539 -0.549504
C51   C     C_3   0.184455 0.761128 0.710056 0.125406
H30   H     H_    0.179948 0.711875 0.657588 0.117776
H31   H     H_    0.262603 0.762503 0.764098 0.143901
C52   C     C_3   0.210805 0.882654 0.666667 -0.724240
H32   H     H_    0.211603 0.932916 0.717606 0.271558
H33   H     H_    0.301804 0.923897 0.642706 0.190122
H34   H     H_    0.138599 0.882419 0.607393 0.253616
O21   O     O_3   0.206556 0.817007 0.894814 -0.574144
C53   C     C_3   0.329502 0.836626 0.932922 0.042393
H35   H     H_    0.351070 0.768652 0.919535 0.130696
H36   H     H_    0.347368 0.839492 0.008368 0.192225
C54   C     C_3   0.417571 0.951111 0.890087 -0.764262
H37   H     H_    0.394637 0.019721 0.899637 0.248271
H38   H     H_    0.513356 0.969550 0.923609 0.237393
H39   H     H_    0.412033 0.950015 0.815688 0.237390
O22   O     O_3   0.169194 0.813170 0.074738 -0.547808
C55   C     C_3   0.134321 0.900620 0.028857 0.085474
H40   H     H_    0.032692 0.868604 0.012846 0.142629
H41   H     H_    0.173563 0.939855 0.964197 0.189387
C56   C     C_3   0.186367 0.995126 0.090196 -0.636622
H42   H     H_    0.288447 0.032654 0.100705 0.240446
H43   H     H_    0.156587 0.063213 0.057529 0.254187
H44   H     H_    0.154947 0.961053 0.158294 0.275280

loop_
_geom_bond_atom_site_label_1
_geom_bond_atom_site_label_2
_ccdc_geom_bond_type
C16   C28   A    
C21   C26   A    
C56   H42   S    
C10   H15   S    
C49   C50   S    
C50   H24   S    
C33   C36   A    
O21   C53   S    
C55   H40   S    
C45   C46   A    
C2    C46   A    
C42   O9    S    
S3    O17   D    
C47   H18   S    
C36   C37   A    
C19   C21   A    
C24   O10   S    
C25   H5    S    
C30   C31   A    
C55   H41   S    
O20   C51   S    
C53   H35   S    
S2    O16   S    
C1    O2    A    
C18   C19   A    
C52   H32   S    
Cu1   O3    S    
C1    O1    A    
C54   H37   S    
C49   H22   S    
C38   H7    S    
O10   C49   S    
C8    C9    A    
C53   H36   S    
S2    O15   D    
C1    C28   S    
C51   H30   S    
C47   C48   S    
C14   C27   A    
C8    O21   S    
C15   C23   S    
S3    O18   D    
C21   C22   A    
S2    O14   D    
C51   H31   S    
Cu2   O6    S    
C17   H4    S    
Cu1   O1    S    
O19   H29   S    
C18   H3    S    
C17   C18   A    
C52   H33   S    
C38   C39   A    
C39   H13   S    
Cu2   O8    S    
C36   C40   A    
C24   C25   A    
Cu1   O7    S    
C10   C11   A    
C26   H1    S    
S1    O11   D    
C48   H20   S    
C16   C17   A    
C55   C56   S    
C41   N1    A    
C20   C28   A    
C56   H44   S    
C3    C45   A    
Cu2   O2    S    
C54   H39   S    
C31   H12   S    
C35   C39   A    
O9    C47   S    
C37   C38   A    
C44   S2    S    
C23   O5    A    
S1    O12   D    
C15   C27   A    
Cu1   Cu2   S    
C7    C13   A    
C53   C54   S    
C4    S3    S    
C9    O22   S    
C47   H17   S    
C41   H6    S    
C52   H34   S    
Cu1   O5    S    
C30   N2    A    
C34   O8    A    
C12   O3    A    
S3    O19   S    
C40   N1    A    
C50   H25   S    
C43   C44   A    
C51   C52   S    
C22   C24   A    
C42   C43   A    
C3    C4    A    
C44   C45   A    
C3    H14   S    
C12   O4    A    
C56   H43   S    
C40   H9    S    
C6    C46   A    
C29   C41   A    
C23   O6    A    
C31   C32   A    
C34   C43   S    
Cu2   O4    S    
C13   O20   S    
C15   C26   A    
C48   H21   S    
C11   C12   S    
C6    C7    A    
C29   H8    S    
C35   N2    A    
O16   H28   S    
C32   C33   A    
C14   C22   A    
C19   C20   A    
C5    C10   A    
S1    O13   S    
C11   C13   A    
C5    C6    A    
C2    C42   A    
C30   H10   S    
C33   C35   A    
O13   H27   S    
C16   H2    S    
C54   H38   S    
C14   S1    S    
C7    C8    A    
C27   H16   S    
C34   O7    A    
C48   H19   S    
C4    C5    A    
C20   C25   A    
C50   H26   S    
C29   C37   A    
C49   H23   S    
C32   H11   S    
Cu2   N2    S    
O22   C55   S    
C2    C9    A    
Cu1   N1    S    
