data_mof_unit_54881.cif
_audit_creation_date              2012-12-10T17:48:48-0500
_audit_creation_method            fapswitch 2.2
_symmetry_space_group_name_H-M    P1
_symmetry_Int_Tables_number       1
_space_group_crystal_system       triclinic
_cell_length_a                    15.745608
_cell_length_b                    10.7232
_cell_length_c                    9.890831
_cell_angle_alpha                 89.432555
_cell_angle_beta                  90.068924
_cell_angle_gamma                 91.616089
_cell_volume                      1669.25373439

loop_
_atom_site_label
_atom_site_type_symbol
_atom_type_description
_atom_site_fract_x
_atom_site_fract_y
_atom_site_fract_z
_atom_type_partial_charge
C1    C     C_R   0.505090 0.259817 0.501771 0.863694
C2    C     C_R   0.491156 0.045561 0.878338 -0.150022
C3    C     C_R   0.446056 0.932828 0.868948 -0.162653
C4    C     C_R   0.338369 0.499430 0.500022 0.883050
C5    C     C_R   0.435668 0.876834 0.743304 -0.151708
C6    C     C_R   0.470128 0.934290 0.625014 0.097749
C7    C     C_R   0.499253 0.058312 0.631278 0.094451
C8    C     C_R   0.507887 0.125752 0.507050 -0.118328
C9    C     C_R   0.505282 0.063929 0.383267 -0.230882
C10   C     C_R   0.494450 0.937024 0.380763 -0.224356
C11   C     C_R   0.479752 0.871286 0.501224 -0.126553
C12   C     C_3   0.949421 0.443263 0.633374 -0.522477
C13   C     C_R   0.389577 0.334913 0.141506 -0.173186
C14   C     C_R   0.335860 0.251779 0.072380 0.129924
C15   C     C_R   0.335549 0.253430 0.931667 -0.226804
C16   C     C_R   0.491121 0.738849 0.499886 0.880831
C17   C     C_R   0.389304 0.335799 0.861077 -0.186229
C18   C     C_R   0.445523 0.418807 0.928335 0.153577
C19   C     C_R   0.445576 0.418670 0.072956 0.123029
C20   C     C_R   0.551768 0.578219 0.070829 -0.116063
C21   C     C_R   0.551755 0.578168 0.927563 -0.116976
C22   C     C_R   0.661637 0.500125 0.500029 0.910979
C23   C     C_3   0.917243 0.500729 0.499119 0.210252
C24   C     C_3   0.047310 0.444686 0.635480 -0.428872
C25   C     C_3   0.046546 0.429365 0.374008 0.326245
C26   C     C_3   0.948334 0.420679 0.380044 -0.447540
C27   C     C_1   0.750478 0.499771 0.500203 -0.193834
C28   C     C_3   0.082914 0.500835 0.500611 0.157245
C29   C     C_3   0.907807 0.818018 0.376243 0.092285
C30   C     C_3   0.888044 0.874116 0.238393 -0.824454
C31   C     C_3   0.082425 0.221375 0.437484 0.149482
C32   C     C_3   0.089440 0.095401 0.369841 -0.854356
C33   C     C_3   0.952725 0.637727 0.485588 0.316844
C34   C     C_3   0.052222 0.638146 0.487887 -0.181698
C35   C     C_1   0.825751 0.499783 0.500027 -0.033729
C36   C     C_1   0.174325 0.499754 0.500437 -0.007719
C37   C     C_1   0.249567 0.499367 0.500099 -0.169019
C38   C     C_R   0.517987 0.108051 0.760919 -0.165082
H1    H     H_    0.924501 0.345576 0.645182 0.191516
H2    H     H_    0.594005 0.642094 0.124157 0.145904
H3    H     H_    0.070257 0.350158 0.657339 0.157636
H4    H     H_    0.385267 0.330911 0.248695 0.216059
H5    H     H_    0.294022 0.190136 0.875949 0.148330
H6    H     H_    0.385409 0.330584 0.753956 0.217248
H7    H     H_    0.593950 0.642058 0.872968 0.151789
H8    H     H_    0.060987 0.491659 0.285716 0.120891
H9    H     H_    0.924279 0.322825 0.391503 0.171839
H10   H     H_    0.921530 0.455283 0.282855 0.191833
H11   H     H_    0.076468 0.677854 0.390149 0.169650
H12   H     H_    0.070739 0.500096 0.722874 0.199263
H13   H     H_    0.928469 0.689077 0.574984 0.050111
H14   H     H_    0.963884 0.869472 0.418724 0.129373
H15   H     H_    0.851899 0.830000 0.443190 0.141202
H16   H     H_    0.831570 0.825546 0.193816 0.257694
H17   H     H_    0.874607 0.974665 0.248968 0.202647
H18   H     H_    0.943225 0.864551 0.169785 0.252074
H19   H     H_    0.320406 0.105216 0.199625 0.173396
H20   H     H_    0.244070 0.112705 0.081711 0.182383
H21   H     H_    0.022531 0.218435 0.496433 0.124936
H22   H     H_    0.137809 0.233439 0.506233 0.143695
H23   H     H_    0.925888 0.496869 0.720902 0.185025
H24   H     H_    0.149754 0.091830 0.312401 0.273661
H25   H     H_    0.088689 0.020256 0.447816 0.189005
H26   H     H_    0.035194 0.079525 0.299638 0.255344
H27   H     H_    0.053872 0.703511 0.685685 0.182033
H28   H     H_    0.079605 0.811037 0.567801 0.167812
H29   H     H_    0.512854 0.113231 0.287653 0.169330
H30   H     H_    0.555629 0.192636 0.774610 0.170307
H31   H     H_    0.503818 0.086078 0.976422 0.138428
H32   H     H_    0.421665 0.886730 0.959312 0.137598
H33   H     H_    0.400310 0.788950 0.739683 0.162971
H34   H     H_    0.499284 0.890460 0.284433 0.169216
N1    N     N_R   0.499210 0.498800 0.142780 -0.115563
N2    N     N_R   0.499180 0.498720 0.857170 -0.121121
N3    N     N_3   0.281484 0.166817 0.147441 -0.443133
N4    N     N_3   0.087547 0.717812 0.595626 -0.464761
O1    O     O_R   0.500000 0.316780 0.614690 -0.653756
O2    O     O_3   0.085495 0.316068 0.337256 -0.592920
O3    O     O_R   0.499990 0.316750 0.385360 -0.641769
O4    O     O_R   0.377150 0.500020 0.614720 -0.638506
O5    O     O_R   0.377140 0.499990 0.385380 -0.625773
O6    O     O_R   0.500010 0.683250 0.614640 -0.624636
O7    O     O_R   0.500000 0.683220 0.385310 -0.620240
O8    O     O_R   0.622860 0.500010 0.614620 -0.615866
O9    O     O_R   0.622850 0.499980 0.385280 -0.604756
O10   O     O_3   0.924127 0.690048 0.361599 -0.616267
Zn1   Zn    Zn3+2 0.500010 0.500020 0.653130 0.924013
Zn2   Zn    Zn3+2 0.499990 0.499980 0.346870 0.937761

loop_
_geom_bond_atom_site_label_1
_geom_bond_atom_site_label_2
_ccdc_geom_bond_type
C1    C8    S    
C1    O1    A    
O8    Zn1   S    
C7    C8    A    
C25   C28   S    
C30   H16   S    
C12   C23   S    
H27   N4    S    
C36   C37   T    
C4    O4    A    
O4    Zn1   S    
C5    C6    A    
C20   H2    S    
C23   C26   S    
O6    Zn1   S    
C18   C19   A    
C22   O9    A    
C31   H21   S    
C13   H4    S    
C4    O5    A    
C8    C9    A    
C23   C33   S    
N2    Zn1   S    
C2    H31   S    
C9    C10   A    
C26   H10   S    
O7    Zn2   S    
C28   C34   S    
C18   N2    A    
C13   C14   A    
C24   H3    S    
O3    Zn2   S    
H20   N3    S    
C17   C18   A    
C21   H7    S    
C24   H12   S    
C13   C19   A    
C25   O2    S    
C19   N1    A    
C3    H32   S    
C32   H26   S    
C6    C11   A    
C27   C35   T    
C25   C26   S    
C30   H18   S    
C21   N2    A    
C16   O7    A    
C22   O8    A    
C31   H22   S    
C33   O10   S    
C9    H29   S    
N1    Zn2   S    
C29   C30   S    
C11   C16   S    
C2    C38   A    
C31   C32   S    
H28   N4    S    
C16   O6    A    
C33   C34   S    
C4    C37   S    
C28   C36   S    
C29   O10   S    
C26   H9    S    
C38   H30   S    
C23   C35   S    
C22   C27   S    
C1    O3    A    
C31   O2    S    
O9    Zn2   S    
C15   C17   A    
C34   H11   S    
C24   C28   S    
C32   H25   S    
C3    C5    A    
C6    C7    A    
C33   H13   S    
C30   H17   S    
C12   C24   S    
C14   N3    S    
H19   N3    S    
C12   H1    S    
C2    C3    A    
C17   H6    S    
C15   H5    S    
C5    H33   S    
C12   H23   S    
C29   H15   S    
C7    C38   A    
C20   N1    A    
O5    Zn2   S    
C10   C11   A    
C32   H24   S    
C20   C21   A    
O1    Zn1   S    
C14   C15   A    
C25   H8    S    
C34   N4    S    
C29   H14   S    
C10   H34   S    
