data_mof_unit_26541.cif
_audit_creation_date              2012-10-26T20:24:18-0400
_audit_creation_method            fapswitch 2.2
_symmetry_space_group_name_H-M    P1
_symmetry_Int_Tables_number       1
_space_group_crystal_system       triclinic
_cell_length_a                    15.807667
_cell_length_b                    10.81878
_cell_length_c                    9.678019
_cell_angle_alpha                 89.581344
_cell_angle_beta                  89.645758
_cell_angle_gamma                 88.860456
_cell_volume                      1654.7299393

loop_
_atom_site_label
_atom_site_type_symbol
_atom_type_description
_atom_site_fract_x
_atom_site_fract_y
_atom_site_fract_z
_atom_type_partial_charge
C1    C     C_R   0.505730 0.260657 0.499207 0.520187
C2    C     C_3   0.573692 0.926426 0.606215 -0.097714
C3    C     C_3   0.421123 0.073174 0.527694 -0.233885
C4    C     C_R   0.340406 0.500456 0.500427 0.528097
C5    C     C_3   0.535503 0.071534 0.350073 -0.240572
C6    C     C_3   0.510392 0.122005 0.495007 0.038574
C7    C     C_3   0.509663 0.877653 0.496787 0.073231
C8    C     C_3   0.420500 0.931453 0.530050 -0.253592
C9    C     C_3   0.535424 0.928419 0.351218 -0.226600
C10   C     C_3   0.486882 0.629581 0.085903 -0.023943
C11   C     C_3   0.493494 0.631857 0.918868 -0.039654
C12   C     C_3   0.082775 0.497799 0.499950 0.057311
C13   C     C_3   0.585879 0.455713 0.079926 0.357548
C14   C     C_3   0.428071 0.429173 0.086137 0.253499
C15   C     C_3   0.578249 0.443843 0.914350 -0.097373
C16   C     C_R   0.504196 0.739201 0.499154 0.533616
C17   C     C_3   0.427140 0.434725 0.919206 0.277015
C18   C     C_R   0.659571 0.499705 0.499602 0.529995
C19   C     C_3   0.971875 0.426258 0.602694 -0.102630
C20   C     C_3   0.029664 0.381798 0.482442 -0.100715
C21   C     C_1   0.250463 0.499470 0.501242 -0.057047
C22   C     C_1   0.749475 0.499237 0.498551 -0.043865
C23   C     C_3   0.970212 0.614152 0.515488 -0.102821
C24   C     C_3   0.026511 0.542225 0.620221 -0.101352
C25   C     C_3   0.403646 0.694956 0.142647 -0.394354
C26   C     C_3   0.422019 0.713807 0.850048 -0.366729
C27   C     C_3   0.718072 0.573243 0.041382 -0.014089
C28   C     C_3   0.782451 0.467179 0.017202 -0.274646
C29   C     C_3   0.864557 0.514872 0.954486 -0.486441
C30   C     C_3   0.342249 0.279609 0.213277 0.022860
C31   C     C_3   0.258535 0.338991 0.158191 -0.311736
C32   C     C_3   0.182243 0.261929 0.198415 -0.484791
C33   C     C_3   0.434420 0.212537 0.885416 0.064850
C34   C     C_3   0.917118 0.498188 0.498008 0.053657
C35   C     C_3   0.360900 0.125821 0.914568 -0.249607
C36   C     C_3   0.390941 0.009728 0.989230 -0.501798
C37   C     C_3   0.613863 0.326242 0.136030 -0.264878
C38   C     C_3   0.662389 0.865015 0.597437 -0.428639
C39   C     C_3   0.027982 0.569701 0.395189 -0.101397
C40   C     C_3   0.973305 0.453716 0.377681 -0.101466
C41   C     C_1   0.174688 0.498489 0.500966 -0.074011
C42   C     C_1   0.825238 0.498733 0.497949 -0.074569
C43   C     C_3   0.579282 0.069195 0.594711 -0.212275
Cu1   Cu    Cu3+1 0.500040 0.499860 0.642410 0.906660
Cu2   Cu    Cu3+1 0.499960 0.500140 0.357590 0.938462
H1    H     H_    0.055119 0.286229 0.469480 0.092878
H2    H     H_    0.374326 0.898627 0.452637 0.102826
H3    H     H_    0.537827 0.689751 0.124054 0.178231
H4    H     H_    0.947391 0.367148 0.687582 0.095427
H5    H     H_    0.553330 0.680070 0.893318 0.125006
H6    H     H_    0.633182 0.478045 0.858351 0.134654
H7    H     H_    0.371355 0.479739 0.118228 0.108088
H8    H     H_    0.370263 0.494211 0.899954 0.108345
H9    H     H_    0.950086 0.417570 0.278052 0.095597
H10   H     H_    0.579809 0.345409 0.882831 0.084437
H11   H     H_    0.052444 0.628462 0.309945 0.092496
H12   H     H_    0.549343 0.905508 0.711178 0.124682
H13   H     H_    0.944342 0.709474 0.529017 0.093911
H14   H     H_    0.049587 0.578400 0.719904 0.096736
H15   H     H_    0.577000 0.109867 0.698677 0.085525
H16   H     H_    0.642427 0.096163 0.554074 0.111625
H17   H     H_    0.344789 0.665726 0.092063 0.067828
H18   H     H_    0.387249 0.679121 0.250462 0.202499
H19   H     H_    0.408405 0.795820 0.129688 0.097636
H20   H     H_    0.450711 0.797264 0.807613 0.117828
H21   H     H_    0.387469 0.665327 0.769634 0.195318
H22   H     H_    0.369711 0.752851 0.910266 0.081721
H23   H     H_    0.396993 0.109916 0.625610 0.128001
H24   H     H_    0.751592 0.645794 0.098989 0.155019
H25   H     H_    0.698112 0.621890 0.945470 0.094576
H26   H     H_    0.796928 0.420574 0.117297 0.170378
H27   H     H_    0.756800 0.398362 0.945188 0.136160
H28   H     H_    0.851943 0.560604 0.853296 0.153976
H29   H     H_    0.909623 0.436258 0.938036 0.135920
H30   H     H_    0.894233 0.581652 0.025135 0.139502
H31   H     H_    0.346827 0.296588 0.325004 0.177295
H32   H     H_    0.336411 0.177955 0.209444 0.123342
H33   H     H_    0.248473 0.431836 0.204509 0.150078
H34   H     H_    0.397464 0.899812 0.632291 0.104488
H35   H     H_    0.260060 0.350929 0.044264 0.158172
H36   H     H_    0.185854 0.170436 0.147188 0.137346
H37   H     H_    0.123104 0.310609 0.165644 0.147699
H38   H     H_    0.180116 0.248081 0.312184 0.145005
H39   H     H_    0.482301 0.212603 0.966605 0.140496
H40   H     H_    0.469386 0.171541 0.800129 0.135607
H41   H     H_    0.310844 0.171098 0.975720 0.184535
H42   H     H_    0.329594 0.099367 0.817535 0.131393
H43   H     H_    0.444578 0.966430 0.932378 0.130213
H44   H     H_    0.337340 0.945524 0.997868 0.136352
H45   H     H_    0.490297 0.106476 0.271243 0.151597
H46   H     H_    0.412865 0.031397 0.094231 0.144527
H47   H     H_    0.639162 0.328533 0.241763 0.175668
H48   H     H_    0.563719 0.258145 0.134935 0.128605
H49   H     H_    0.665653 0.285947 0.072164 0.024313
H50   H     H_    0.703075 0.901758 0.680183 0.111609
H51   H     H_    0.659031 0.763593 0.613173 0.156657
H52   H     H_    0.693295 0.883855 0.496483 0.129778
H53   H     H_    0.599351 0.103831 0.319501 0.096106
H54   H     H_    0.598462 0.891158 0.319221 0.119967
H55   H     H_    0.489899 0.898147 0.272738 0.113579
H56   H     H_    0.375782 0.107056 0.448046 0.092493
N1    N     N_3   0.501840 0.500250 0.143650 -0.207890
N2    N     N_3   0.501160 0.503300 0.856280 -0.260692
O1    O     O_R   0.500050 0.317570 0.620260 -0.470682
O2    O     O_3   0.420485 0.308628 0.144305 -0.586565
O3    O     O_3   0.403171 0.329376 0.841957 -0.537006
O4    O     O_R   0.499980 0.317810 0.379740 -0.488365
O5    O     O_R   0.379110 0.499870 0.620240 -0.473708
O6    O     O_R   0.379040 0.500110 0.379720 -0.534139
O7    O     O_R   0.500020 0.682190 0.620260 -0.528475
O8    O     O_R   0.499950 0.682430 0.379740 -0.526118
O9    O     O_R   0.620960 0.499890 0.620280 -0.529733
O10   O     O_R   0.620890 0.500130 0.379760 -0.446669
O11   O     O_3   0.649066 0.539546 0.127092 -0.556081

loop_
_geom_bond_atom_site_label_1
_geom_bond_atom_site_label_2
_ccdc_geom_bond_type
C36   H44   S    
C23   H13   S    
C4    O6    A    
C19   C20   S    
C34   C42   S    
C3    C6    S    
Cu1   O1    S    
C2    H12   S    
C16   O7    A    
C7    C8    S    
C36   H43   S    
C32   H36   S    
C4    O5    A    
C34   C40   S    
C26   H22   S    
C28   C29   S    
C3    H23   S    
C18   O9    A    
C30   C31   S    
C20   C40   S    
C35   H41   S    
Cu2   O6    S    
C14   N1    S    
C29   H28   S    
C25   H18   S    
C2    C38   S    
C33   H40   S    
C30   H32   S    
C35   H42   S    
C14   O2    S    
C14   H7    S    
C2    C7    S    
C38   H50   S    
C8    H34   S    
C23   C24   S    
C15   H6    S    
C13   C37   S    
C5    H45   S    
C27   H24   S    
C3    H56   S    
C9    H54   S    
C14   C17   S    
C28   H27   S    
C38   H52   S    
C18   O10   A    
Cu1   N2    S    
Cu1   O5    S    
C1    C6    S    
C26   H21   S    
C10   N1    S    
C31   H35   S    
C3    C8    S    
Cu2   N1    S    
C39   C40   S    
C29   H29   S    
C11   C26   S    
C35   C36   S    
C15   H10   S    
C5    C9    S    
C12   C41   S    
C30   H31   S    
C19   H4    S    
C39   H11   S    
C2    C43   S    
C23   C34   S    
C12   C20   S    
C37   H48   S    
C1    O1    A    
C27   H25   S    
C43   H15   S    
C1    O4    A    
C21   C41   T    
Cu1   O9    S    
C36   H46   S    
C7    C16   S    
C9    H55   S    
C40   H9    S    
C6    C43   S    
C13   C15   S    
C30   O2    S    
C10   H3    S    
C28   H26   S    
C17   H8    S    
Cu1   Cu2   S    
C43   H16   S    
C31   H33   S    
C7    C9    S    
C32   H38   S    
C37   H47   S    
C18   C22   S    
C26   H20   S    
C31   C32   S    
C33   O3    S    
C13   O11   S    
C19   C34   S    
Cu2   O8    S    
C29   H30   S    
C32   H37   S    
C12   C24   S    
C12   C39   S    
C19   C24   S    
C17   N2    S    
C8    H2    S    
C11   H5    S    
C17   O3    S    
C10   C25   S    
C4    C21   S    
C22   C42   T    
C24   H14   S    
C23   C39   S    
C33   C35   S    
C37   H49   S    
C25   H17   S    
C33   H39   S    
C10   C11   S    
C27   O11   S    
Cu2   O10   S    
C5    H53   S    
C38   H51   S    
C27   C28   S    
C5    C6    S    
C11   N2    S    
C15   N2    S    
C13   N1    S    
C25   H19   S    
C20   H1    S    
Cu2   O4    S    
C16   O8    A    
Cu1   O7    S    
