data_mof_unit_55680.cif
_audit_creation_date              2012-12-10T17:48:48-0500
_audit_creation_method            fapswitch 2.2
_symmetry_space_group_name_H-M    P1
_symmetry_Int_Tables_number       1
_space_group_crystal_system       triclinic
_cell_length_a                    10.728585
_cell_length_b                    14.675192
_cell_length_c                    14.672253
_cell_angle_alpha                 65.102687
_cell_angle_beta                  103.464474
_cell_angle_gamma                 102.962844
_cell_volume                      2016.78564788

loop_
_atom_site_label
_atom_site_type_symbol
_atom_type_description
_atom_site_fract_x
_atom_site_fract_y
_atom_site_fract_z
_atom_type_partial_charge
C1    C     C_R   0.480698 0.119732 0.311906 0.827122
C2    C     C_3   0.877700 0.000764 0.496467 -0.087006
C3    C     C_3   0.914966 0.892418 0.561862 0.515966
C4    C     C_3   0.965798 0.075964 0.543353 0.486207
C5    C     C_R   0.482524 0.187053 0.204121 -0.171823
C6    C     C_R   0.549106 0.812554 0.795718 -0.040531
C7    C     C_R   0.477216 0.215839 0.028230 -0.215712
C8    C     C_R   0.466062 0.149124 0.128092 0.581472
C9    C     C_R   0.509252 0.291910 0.178479 -0.302440
C10   C     C_R   0.525576 0.360398 0.079152 0.012739
C11   C     C_R   0.505903 0.321037 0.002825 -0.061538
C12   C     C_R   0.260368 0.999511 0.501475 0.828608
C13   C     C_R   0.556664 0.466981 0.053309 0.091369
C14   C     C_R   0.550652 0.533431 0.949159 -0.025098
C15   C     C_R   0.534131 0.491412 0.875471 -0.308812
C16   C     C_R   0.514059 0.387189 0.902103 0.608473
C17   C     C_R   0.594964 0.509287 0.128071 -0.187901
C18   C     C_R   0.616472 0.613545 0.101254 -0.236935
C19   C     C_R   0.597911 0.679274 0.999456 0.168714
C20   C     C_R   0.562877 0.639860 0.922381 0.120940
C21   C     C_R   0.612684 0.784230 0.973872 -0.192385
C22   C     C_R   0.589243 0.850613 0.872478 -0.154461
C23   C     C_R   0.524530 0.880209 0.687959 0.833102
C24   C     C_R   0.535782 0.708036 0.821174 -0.235386
C25   C     C_R   0.720022 0.284612 0.667682 -0.298180
C26   C     C_R   0.683083 0.202569 0.638540 0.094562
C27   C     C_R   0.518815 0.285194 0.511081 0.060540
C28   C     C_R   0.545159 0.368697 0.541641 -0.018422
C29   C     C_R   0.653450 0.369904 0.618771 0.132875
C30   C     C_R   0.470222 0.451196 0.496627 -0.043922
C31   C     C_R   0.514755 0.539934 0.519274 0.012035
C32   C     C_R   0.626422 0.539643 0.592665 -0.186352
C33   C     C_R   0.694242 0.455958 0.644720 0.144479
C34   C     C_R   0.739801 0.000955 0.497781 0.838680
C35   C     C_R   0.349560 0.446938 0.432903 0.557704
C36   C     C_R   0.284694 0.530727 0.383093 -0.226971
C37   C     C_R   0.330737 0.621751 0.397684 -0.049431
C38   C     C_R   0.444849 0.626008 0.469065 -0.028976
C39   C     C_R   0.262156 0.707122 0.344471 -0.086072
C40   C     C_R   0.309098 0.794066 0.367612 0.808194
C41   C     C_R   0.482970 0.716267 0.488122 -0.113117
C42   C     C_3   0.050092 0.028888 0.390252 -0.393004
C43   C     C_3   0.906351 0.037112 0.384767 -0.276421
C44   C     C_3   0.060722 0.893691 0.568133 -0.428586
C45   C     C_3   0.108690 0.078479 0.541613 -0.401846
C46   C     C_3   0.122774 0.000340 0.500652 -0.050725
Cu1   Cu    Cu3+1 0.465900 0.918260 0.475680 1.005387
Cu2   Cu    Cu3+1 0.534100 0.081740 0.524320 0.971040
H1    H     H_    0.057174 0.970000 0.363333 0.222560
H2    H     H_    0.110107 0.873259 0.648340 0.207796
H3    H     H_    0.500024 0.681047 0.760787 0.152191
H4    H     H_    0.601287 0.931343 0.854345 0.159598
H5    H     H_    0.644959 0.642787 0.160874 0.138624
H6    H     H_    0.463001 0.184833 0.970737 0.215345
H7    H     H_    0.513960 0.318765 0.237239 0.178548
H8    H     H_    0.097868 0.102543 0.339244 0.173179
H9    H     H_    0.539984 0.537352 0.796379 0.163762
H10   H     H_    0.612908 0.463805 0.208400 0.138304
H11   H     H_    0.641267 0.814847 0.032434 0.140697
H12   H     H_    0.565591 0.726397 0.542292 0.160530
H13   H     H_    0.194393 0.521078 0.334597 0.167765
H14   H     H_    0.800660 0.279644 0.728681 0.144876
H15   H     H_    0.733806 0.137204 0.677397 0.174443
H16   H     H_    0.448841 0.283378 0.446131 0.199835
H17   H     H_    0.894141 0.118879 0.345242 0.163487
H18   H     H_    0.661440 0.604326 0.611844 0.120857
H19   H     H_    0.073127 0.834976 0.542938 0.145388
H20   H     H_    0.858953 0.838211 0.527262 0.055601
H21   H     H_    0.164750 0.061519 0.619611 0.225670
H22   H     H_    0.148733 0.156265 0.492290 0.198341
H23   H     H_    0.940734 0.154090 0.498439 0.080234
N1    N     N_R   0.585360 0.204570 0.560800 -0.207524
N2    N     N_R   0.414550 0.795430 0.439160 -0.237593
O1    O     O_R   0.455060 0.022100 0.338110 -0.476641
O2    O     O_R   0.512640 0.160150 0.379180 -0.618542
O3    O     O_R   0.288900 0.930980 0.479450 -0.543444
O4    O     O_R   0.346480 0.069030 0.520520 -0.584301
O5    O     O_R   0.487360 0.839850 0.620820 -0.595986
O6    O     O_R   0.544940 0.977900 0.661890 -0.582359
O7    O     O_R   0.653520 0.930970 0.479480 -0.611723
O8    O     O_R   0.711100 0.069020 0.520550 -0.564250
F1    F     F_    0.947468 0.048656 0.642636 -0.608856
F2    F     F_    0.884844 0.857007 0.659107 -0.632014
F3    F     F_    0.499298 0.351172 0.828157 -0.675628
F4    F     F_    0.438946 0.047969 0.149649 -0.659483
C47   C     C_3   0.812118 0.457741 0.726767 -0.422371
C48   C     C_3   0.853277 0.555539 0.747688 -0.342899
C49   C     C_3   0.971488 0.546484 0.830706 -0.792157
H24   H     H_    0.949324 0.483067 0.902973 0.250062
H25   H     H_    0.054774 0.532955 0.807379 0.250663
H26   H     H_    0.998916 0.618074 0.843873 0.262383
H27   H     H_    0.878347 0.620825 0.677324 0.224379
H28   H     H_    0.773125 0.570596 0.773256 0.234569
H29   H     H_    0.791228 0.393983 0.799309 0.226315
H30   H     H_    0.896294 0.444564 0.704054 0.196350
F5    F     F_    0.250024 0.878090 0.321119 -0.675122
F6    F     F_    0.284840 0.359869 0.423726 -0.717192
C50   C     C_3   0.140791 0.701238 0.266076 -0.423692
C51   C     C_3   0.073103 0.796189 0.206381 -0.262484
C52   C     C_3   0.957498 0.777572 0.129777 -0.872964
H31   H     H_    0.989389 0.758016 0.074249 0.275643
H32   H     H_    0.885085 0.714758 0.169722 0.247995
H33   H     H_    0.910837 0.847288 0.087501 0.253749
H34   H     H_    0.036358 0.816163 0.259507 0.245534
H35   H     H_    0.141961 0.860641 0.163704 0.281887
H36   H     H_    0.168521 0.680916 0.209248 0.212148
H37   H     H_    0.067929 0.638914 0.306410 0.199234
C53   C     C_3   0.813977 0.982411 0.318491 -0.367510
C54   C     C_3   0.838085 0.029598 0.207364 -0.343224
C55   C     C_3   0.746908 0.973121 0.145250 -0.823698
H38   H     H_    0.762135 0.892324 0.177917 0.242213
H39   H     H_    0.644515 0.976881 0.144613 0.301179
H40   H     H_    0.766468 0.008402 0.065624 0.241860
H41   H     H_    0.822177 0.110404 0.172463 0.220759
H42   H     H_    0.939063 0.026857 0.203170 0.233425
H43   H     H_    0.824280 0.900551 0.351824 0.201213
H44   H     H_    0.712214 0.989244 0.315491 0.234310

loop_
_geom_bond_atom_site_label_1
_geom_bond_atom_site_label_2
_ccdc_geom_bond_type
C48   C49   S    
C26   N1    A    
C19   C20   A    
C33   C47   S    
C7    C8    A    
C45   C46   S    
C40   N2    A    
C7    C11   A    
C30   C35   A    
C1    C5    S    
C1    O1    A    
Cu2   O6    S    
C32   H18   S    
C28   C29   A    
C19   C21   A    
C3    H20   S    
C40   F5    S    
Cu1   O3    S    
C21   H11   S    
C30   C31   A    
C15   C16   A    
C6    C22   A    
C29   C33   A    
C16   F3    S    
C53   C54   S    
C8    F4    S    
C42   C46   S    
C20   C24   A    
C55   H38   S    
C47   H29   S    
C18   H5    S    
C42   H8    S    
C31   C32   A    
C9    H7    S    
C34   O8    A    
C9    C10   A    
C17   H10   S    
C43   C53   S    
C34   O7    A    
C2    C34   S    
C24   H3    S    
C51   H34   S    
C21   C22   A    
C15   H9    S    
Cu2   O2    S    
Cu1   O7    S    
Cu2   N1    S    
C44   C46   S    
C4    C45   S    
C25   C29   A    
C51   H35   S    
C3    C44   S    
C45   H21   S    
C1    O2    A    
C14   C20   A    
C7    H6    S    
Cu1   N2    S    
C38   C41   A    
C12   C46   S    
C47   H30   S    
C39   C40   A    
C47   C48   S    
C18   C19   A    
C39   C50   S    
C25   C26   A    
C52   H33   S    
C50   H37   S    
C35   C36   A    
Cu2   O4    S    
C2    C4    S    
C26   H15   S    
C5    C9    A    
C37   C38   A    
C11   C16   A    
Cu1   Cu2   S    
C49   H26   S    
C2    C43   S    
C43   H17   S    
C6    C24   A    
C12   O4    A    
Cu1   O1    S    
C52   H32   S    
C17   C18   A    
C55   H40   S    
C54   H41   S    
C49   H25   S    
C10   C11   A    
C12   O3    A    
C3    F2    S    
C42   C43   S    
C36   H13   S    
C48   H27   S    
C22   H4    S    
C44   H2    S    
C36   C37   A    
C45   H22   S    
C53   H44   S    
C41   H12   S    
C10   C13   A    
C5    C8    A    
C50   H36   S    
C31   C38   A    
C13   C17   A    
C32   C33   A    
C53   H43   S    
C28   C30   A    
Cu2   O8    S    
C37   C39   A    
C35   F6    S    
C51   C52   S    
C6    C23   S    
C48   H28   S    
C52   H31   S    
C2    C3    S    
C25   H14   S    
C23   O5    A    
C55   H39   S    
C27   H16   S    
C54   H42   S    
C42   H1    S    
C41   N2    A    
C4    F1    S    
C49   H24   S    
C50   C51   S    
C54   C55   S    
C27   C28   A    
C14   C15   A    
C44   H19   S    
Cu1   O5    S    
C23   O6    A    
C13   C14   A    
C4    H23   S    
C27   N1    A    
