data_mof_unit_36907.cif
_audit_creation_date              2012-12-10T17:47:01-0500
_audit_creation_method            fapswitch 2.2
_symmetry_space_group_name_H-M    P1
_symmetry_Int_Tables_number       1
_space_group_crystal_system       triclinic
_cell_length_a                    9.973275
_cell_length_b                    10.620778
_cell_length_c                    13.615406
_cell_angle_alpha                 92.263875
_cell_angle_beta                  83.548249
_cell_angle_gamma                 89.166177
_cell_volume                      1431.68329969

loop_
_atom_site_label
_atom_site_type_symbol
_atom_type_description
_atom_site_fract_x
_atom_site_fract_y
_atom_site_fract_z
_atom_type_partial_charge
C1    C     C_R   0.499811 0.739011 0.496634 0.892322
C2    C     C_1   0.458819 0.501718 0.789046 -0.157105
C3    C     C_R   0.396575 0.862370 0.332949 -0.170464
C4    C     C_R   0.347749 0.925143 0.255842 -0.124658
C5    C     C_R   0.350131 0.056057 0.255137 -0.136494
C6    C     C_R   0.401354 0.124661 0.331535 -0.181283
C7    C     C_R   0.449680 0.062516 0.411039 0.100390
C8    C     C_R   0.447312 0.930594 0.411737 0.091677
C9    C     C_R   0.499857 0.871193 0.490395 -0.073552
C10   C     C_R   0.557837 0.938041 0.564224 -0.167799
C11   C     C_R   0.560001 0.066572 0.563588 -0.194572
C12   C     C_R   0.476307 0.499879 0.685349 0.918397
C13   C     C_R   0.504088 0.127933 0.489163 -0.095451
C14   C     C_R   0.831631 0.628753 0.651103 -0.121399
C15   C     C_R   0.876156 0.652999 0.742342 -0.245246
C16   C     C_R   0.011392 0.636781 0.752317 -0.200549
C17   C     C_R   0.103175 0.615153 0.667596 0.306806
C18   C     C_R   0.057915 0.560197 0.578839 0.094239
C19   C     C_R   0.914162 0.562417 0.575615 0.137061
C20   C     C_R   0.941091 0.441435 0.426573 -0.102989
C21   C     C_R   0.083733 0.442499 0.426062 -0.100777
C22   C     C_R   0.501327 0.260688 0.496690 0.856325
C23   C     C_R   0.523748 0.499732 0.314630 0.851949
C24   C     C_1   0.541186 0.501746 0.211046 -0.183902
C25   C     C_2   0.557937 0.505787 0.019565 -0.164453
C26   C     C_2   0.441931 0.505205 0.980750 -0.164855
C27   C     C_1   0.446633 0.503537 0.876819 0.016360
C28   C     C_1   0.553295 0.503792 0.123390 0.007331
H1    H     H_    0.345037 0.504326 0.026155 0.157386
H2    H     H_    0.733220 0.663656 0.641189 0.198783
H3    H     H_    0.807893 0.693545 0.803235 0.165922
H4    H     H_    0.045811 0.669365 0.821530 0.180788
H5    H     H_    0.146817 0.394729 0.365704 0.142403
H6    H     H_    0.654850 0.506215 0.974132 0.159870
H7    H     H_    0.599166 0.890425 0.623461 0.148509
H8    H     H_    0.395776 0.760607 0.329218 0.146868
H9    H     H_    0.309241 0.871950 0.195950 0.141406
H10   H     H_    0.313495 0.104572 0.194693 0.138862
H11   H     H_    0.404621 0.225953 0.326663 0.139928
H12   H     H_    0.602221 0.118660 0.622608 0.156291
H13   H     H_    0.897994 0.392833 0.366597 0.145036
N1    N     N_R   0.857120 0.501200 0.500900 -0.112505
N2    N     N_R   0.142720 0.501280 0.500940 -0.108678
O1    O     O_R   0.385310 0.683220 0.500000 -0.566536
O2    O     O_R   0.614640 0.683250 0.500010 -0.642212
O3    O     O_R   0.368830 0.499960 0.640340 -0.581992
O4    O     O_R   0.598160 0.499980 0.640350 -0.635455
O5    O     O_R   0.385360 0.316750 0.499990 -0.612135
O6    O     O_R   0.614690 0.316780 0.500000 -0.609293
O7    O     O_R   0.401840 0.500020 0.359650 -0.630988
O8    O     O_R   0.631170 0.500040 0.359660 -0.606826
Zn1   Zn    Zn3+2 0.346870 0.499980 0.499990 0.975084
Zn2   Zn    Zn3+2 0.653130 0.500020 0.500010 0.945501
Br1   Br    Br    0.234463 0.743736 0.674763 -0.523327

loop_
_geom_bond_atom_site_label_1
_geom_bond_atom_site_label_2
_ccdc_geom_bond_type
O7    Zn1   S    
C23   C24   S    
C15   H3    S    
C6    C7    A    
C16   H4    S    
C24   C28   T    
C9    C10   A    
C1    O1    A    
C23   O8    A    
C14   C15   A    
C19   N1    A    
C7    C13   A    
C25   H6    S    
O4    Zn2   S    
C2    C12   S    
O1    Zn1   S    
C17   C18   A    
O2    Zn2   S    
C7    C8    A    
C21   N2    A    
C18   N2    A    
C20   C21   A    
C25   C28   S    
C20   N1    A    
C11   C13   A    
C1    O2    A    
C26   C27   S    
C2    C27   T    
C3    H8    S    
C14   H2    S    
C22   O6    A    
O6    Zn2   S    
C5    C6    A    
C14   C19   A    
C13   C22   S    
C3    C8    A    
C12   O4    A    
N1    Zn2   S    
C11   H12   S    
C10   H7    S    
N2    Zn1   S    
C21   H5    S    
C10   C11   A    
C15   C16   A    
O3    Zn1   S    
C22   O5    A    
O5    Zn1   S    
C1    C9    S    
C4    H9    S    
C26   H1    S    
C12   O3    A    
C18   C19   A    
C6    H11   S    
C16   C17   A    
C23   O7    A    
C25   C26   D    
C5    H10   S    
C4    C5    A    
C17   Br1   S    
C3    C4    A    
C20   H13   S    
C8    C9    A    
O8    Zn2   S    
