data_mof_unit_17518.cif
_audit_creation_date              2013-03-05T15:47:03-0500
_audit_creation_method            fapswitch 2.2
_symmetry_space_group_name_H-M    P1
_symmetry_Int_Tables_number       1
_space_group_crystal_system       triclinic
_cell_length_a                    8.293447
_cell_length_b                    17.318031
_cell_length_c                    18.968712
_cell_angle_alpha                 98.18717
_cell_angle_beta                  94.180938
_cell_angle_gamma                 97.988889
_cell_volume                      2658.49740464

loop_
_atom_site_label
_atom_site_type_symbol
_atom_site_description
_atom_site_fract_x
_atom_site_fract_y
_atom_site_fract_z
_atom_type_partial_charge
P1    P     P_3+3 0.992230 0.679190 0.566750 0.497949
O1    O     O_2   0.166667 0.691630 0.546720 -0.364062
O2    O     O_3   0.893830 0.593690 0.541700 -0.408555
O3    O     O_3   0.390350 0.644650 0.417800 -0.411482
O4    O     O_2   0.277420 0.778965 0.454687 -0.377597
O5    O     O_3   0.016307 0.696677 0.660408 -0.547047
O6    O     O_3   0.475643 0.781496 0.354334 -0.547110
H1    H     H_    0.287629 0.698152 0.299172 0.167691
C1    C     C_3   0.438420 0.751740 0.226782 -0.954229
H2    H     H_    0.394319 0.703613 0.181425 0.224606
H3    H     H_    0.365918 0.800636 0.223484 0.286245
P2    P     P_3+3 0.339610 0.439630 0.337240 0.507052
P3    P     P_3+3 0.932411 0.605132 0.288151 0.482957
O7    O     O_2   0.171750 0.463380 0.328050 -0.302547
O8    O     O_3   0.965290 0.605410 0.380210 -0.388253
O9    O     O_2   0.060235 0.560053 0.251601 -0.355785
O10   O     O_3   0.298660 0.337497 0.309623 -0.565377
O11   O     O_3   0.982469 0.702353 0.272503 -0.540083
C2    C     C_3   0.914480 0.751820 0.323860 0.358412
H4    H     H_    0.975326 0.752211 0.378065 0.133310
H5    H     H_    0.780712 0.732716 0.323377 0.054058
C3    C     C_3   0.941553 0.835763 0.307398 -0.867763
H6    H     H_    0.074638 0.857240 0.309304 0.271682
H7    H     H_    0.882534 0.837776 0.253364 0.258771
C4    C     C_3   0.674337 0.305433 0.299148 0.567838
H8    H     H_    0.581307 0.326035 0.332726 0.033312
C5    C     C_3   0.603469 0.225481 0.252695 0.133995
H9    H     H_    0.482201 0.230191 0.226032 0.094568
H10   H     H_    0.685236 0.211826 0.210200 0.123636
Ba1   Ba    Ba6+2 0.162080 0.538580 0.468810 1.610796
C6    C     C_3   0.047745 0.627919 0.686288 0.427088
H11   H     H_    0.155783 0.607165 0.663475 0.083340
H12   H     H_    0.940887 0.580564 0.672775 0.133026
C7    C     C_3   0.080752 0.646373 0.767312 -0.950244
H13   H     H_    0.192044 0.691093 0.782394 0.268093
H14   H     H_    0.099349 0.592291 0.789707 0.225142
H15   H     H_    0.974882 0.669593 0.790712 0.265727
C8    C     C_3   0.230353 0.300060 0.363307 0.344005
H16   H     H_    0.136071 0.332046 0.386977 0.118947
H17   H     H_    0.327647 0.296382 0.405575 0.110938
C9    C     C_3   0.150127 0.217066 0.330022 -0.769584
H18   H     H_    0.042826 0.219953 0.292533 0.284339
H19   H     H_    0.110142 0.182321 0.372040 0.202732
H20   H     H_    0.237023 0.186160 0.299252 0.283479
P4    P     P_3+3 0.818060 0.320800 0.433200 0.538937
O12   O     O_2   0.643630 0.308330 0.453260 -0.365072
O13   O     O_3   0.916470 0.406310 0.458240 -0.383730
O14   O     O_3   0.419940 0.355340 0.582140 -0.423248
O15   O     O_3   0.819329 0.298330 0.339458 -0.577977
P5    P     P_3+3 0.867115 0.388130 0.712266 0.525592
O16   O     O_3   0.383960 0.539280 0.585630 -0.390657
O17   O     O_3   0.845010 0.394580 0.619730 -0.335249
O18   O     O_2   0.772990 0.452827 0.745936 -0.394725
O19   O     O_3   0.743625 0.301624 0.729785 -0.579266
Ba2   Ba    Ba6+2 0.648090 0.461410 0.531130 1.625257
P6    P     P_3+3 0.436375 0.747140 0.434977 0.460809
C10   C     C_3   0.418897 0.720594 0.297113 0.472342
H21   H     H_    0.491609 0.671593 0.298332 0.028472
H22   H     H_    0.569233 0.773663 0.222712 0.255267
O20   O     O_3   0.426330 0.460710 0.414310 -0.412291
C11   C     C_3   0.526537 0.706730 0.665484 0.172637
H23   H     H_    0.643506 0.696084 0.643415 0.088478
H24   H     H_    0.427269 0.698314 0.621532 0.140824
C12   C     C_3   0.546152 0.790974 0.706254 -0.123705
H25   H     H_    0.661665 0.802561 0.742305 0.145430
H26   H     H_    0.443383 0.796792 0.740237 0.160216
P7    P     P_3+3 0.460845 0.557102 0.676004 0.447238
O21   O     O_2   0.638540 0.536570 0.671920 -0.348873
O22   O     O_3   0.486199 0.656273 0.714990 -0.591856
H27   H     H_    0.887348 0.875061 0.347595 0.221512
C13   C     C_3   0.811395 0.231092 0.736362 0.805606
C14   C     C_3   0.798821 0.213260 0.814101 -0.169155
H28   H     H_    0.669157 0.203970 0.825815 0.140836
H29   H     H_    0.844298 0.156716 0.819705 0.177299
P8    P     P_3+3 0.381409 0.253873 0.577031 0.556584
C15   C     C_3   0.391695 0.297815 0.713030 0.516787
H30   H     H_    0.270647 0.313999 0.701127 0.085562
O23   O     O_2   0.511658 0.218936 0.533504 -0.310773
O24   O     O_3   0.415339 0.232031 0.663969 -0.457921
H31   H     H_    0.483264 0.350069 0.709902 0.126038
H32   H     H_    0.306220 0.303485 0.819111 0.237491
C16   C     C_3   0.403865 0.279879 0.789600 -0.813514
H33   H     H_    0.522193 0.309095 0.818644 0.249719
H34   H     H_    0.390840 0.215338 0.790364 0.302660
C17   C     C_2   0.735886 0.726128 0.498272 -0.539137
C18   C     C_3   0.610397 0.781660 0.504934 0.278824
C19   C     C_2   0.687265 0.865539 0.500992 -0.090191
C20   C     C_2   0.851766 0.887431 0.513197 0.067361
C21   C     C_2   0.954894 0.825836 0.528726 -0.248856
C22   C     C_1   0.886907 0.751414 0.526977 0.324955
C23   C     C_R   0.107631 0.139405 0.527078 -0.152527
C24   C     C_R   0.175157 0.218811 0.533496 0.277787
C25   C     C_R   0.923230 0.250023 0.478585 0.321302
C26   C     C_R   0.853810 0.170196 0.474173 -0.112411
C27   C     C_R   0.944348 0.113803 0.498209 0.094686
C28   C     C_2   0.934202 0.970764 0.515921 -0.091625
C29   C     C_2   0.862908 0.029770 0.492763 -0.105443
C30   C     C_R   0.082535 0.273861 0.510549 -0.462830
H35   H     H_    0.737976 0.016792 0.468394 0.133587
H36   H     H_    0.085388 0.842880 0.542913 0.201538
H37   H     H_    0.183370 0.099602 0.546385 0.148146
H38   H     H_    0.060461 0.982274 0.538153 0.148529
H39   H     H_    0.605823 0.908168 0.493903 0.154955
H40   H     H_    0.728865 0.151667 0.452231 0.208037
H41   H     H_    0.701631 0.665967 0.470766 0.177841
H42   H     H_    0.136400 0.335202 0.515776 0.152029
C31   C     C_R   0.618164 0.530770 0.301036 -0.434754
C32   C     C_R   0.459679 0.493507 0.276917 0.312216
C33   C     C_R   0.401523 0.489459 0.204999 -0.184834
C34   C     C_R   0.503061 0.521192 0.156394 0.033233
C35   C     C_R   0.663688 0.558013 0.181603 -0.212023
C36   C     C_R   0.721315 0.561731 0.253645 0.296312
C37   C     C_R   0.475984 0.571890 0.038450 -0.175962
C38   C     C_R   0.423132 0.560445 0.965225 -0.137718
C39   C     C_R   0.339527 0.486897 0.930524 0.144142
C40   C     C_R   0.310091 0.425479 0.970975 -0.127766
C41   C     C_R   0.361473 0.436955 0.044134 -0.084732
C42   C     C_R   0.445352 0.510256 0.078820 0.138742
C43   C     C_R   0.130231 0.434211 0.824274 -0.283214
C44   C     C_R   0.081939 0.423443 0.750343 0.269616
C45   C     C_R   0.344636 0.495939 0.731947 0.273975
C46   C     C_R   0.394289 0.503852 0.804918 -0.239255
C47   C     C_R   0.287945 0.473537 0.852119 0.002794
C48   C     C_R   0.190880 0.454499 0.704773 -0.505213
H43   H     H_    0.513312 0.536747 0.825218 0.161278
H44   H     H_    0.446863 0.609356 0.935785 0.130168
H45   H     H_    0.539399 0.629164 0.063710 0.129412
H46   H     H_    0.279283 0.459246 0.186548 0.163171
H47   H     H_    0.251670 0.367803 0.945535 0.191497
H48   H     H_    0.339155 0.387689 0.073265 0.160302
H49   H     H_    0.043391 0.416459 0.860486 0.210303
H50   H     H_    0.745381 0.581178 0.145064 0.145033
H51   H     H_    0.151724 0.451363 0.648622 0.165737
H52   H     H_    0.664013 0.532540 0.356220 0.163668
S1    S     S_3+6 0.577444 0.143162 0.299718 -0.048009
O25   O     O_2   0.500727 0.163878 0.367808 -0.325058
O26   O     O_2   0.467274 0.076373 0.252801 -0.265362
O27   O     O_3   0.760416 0.115112 0.317121 -0.551779
H53   H     H_    0.735220 0.061687 0.330265 0.363900
N1    N     N_R   0.547450 0.849469 0.658186 0.236117
O28   O     O_R   0.672655 0.904854 0.662703 -0.341808
O29   O     O_R   0.413426 0.855051 0.620358 -0.389020
N2    N     N_R   0.710799 0.165606 0.687081 0.248936
O30   O     O_R   0.717510 0.161725 0.618521 -0.311667
O31   O     O_R   0.619520 0.108822 0.710265 -0.359213
N3    N     N_R   0.979874 0.234287 0.717545 0.175969
O32   O     O_R   0.009356 0.251143 0.654850 -0.454194
O33   O     O_R   0.074771 0.191366 0.746638 -0.411250
N4    N     N_R   0.888642 0.275918 0.867556 0.244032
O34   O     O_R   0.811819 0.330730 0.897300 -0.393122
O35   O     O_R   0.023816 0.263660 0.900259 -0.387655
N5    N     N_R   0.714102 0.362432 0.250565 0.178420
O36   O     O_R   0.861247 0.401308 0.254354 -0.339028
O37   O     O_R   0.611698 0.365018 0.195908 -0.470500

loop_
_geom_bond_atom_site_label_1
_geom_bond_atom_site_label_2
_geom_bond_distance
_ccdc_geom_bond_type
O14   Ba2   2.774497 S    
C19   C20   1.357854 D    
C20   C28   1.500729 S    
P1    C22   1.836570 S    
C28   H38   1.080599 S    
C5    H10   1.111537 S    
C7    H15   1.110750 S    
C31   C36   1.396202 A    
O4    P6    1.548079 D    
C2    H4    1.110541 S    
C15   O24   1.410379 S    
Ba1   O16   2.772760 S    
P4    C25   1.868833 S    
C34   C42   1.490941 S    
H32   C16   1.108709 S    
C24   C30   1.400504 A    
S1    O25   1.500999 D    
N5    O37   1.301377 A    
C17   C18   1.512201 S    
C32   C33   1.402136 A    
P5    O19   1.780049 S    
C48   H51   1.082157 S    
C4    N5    1.464710 S    
P5    C44   1.858386 S    
C13   N2    1.475598 S    
C2    H5    1.111729 S    
C23   H37   1.078207 S    
C7    H13   1.110519 S    
C31   H52   1.082040 S    
P3    C36   1.839939 S    
N4    O35   1.299579 A    
C8    H16   1.104793 S    
C38   H44   1.082814 S    
N4    O34   1.301257 A    
N2    O30   1.298298 A    
C40   C41   1.399495 A    
S1    O26   1.503045 D    
P1    O1    1.516736 D    
C9    H18   1.109201 S    
C11   H24   1.107283 S    
C34   C35   1.412113 A    
C45   C48   1.396855 A    
O2    Ba2   2.820198 S    
O19   C13   1.430903 S    
C35   C36   1.403984 A    
Ba1   O20   2.906023 S    
O12   Ba2   2.839138 S    
P5    O17   1.772496 S    
C31   C32   1.394924 A    
C6    H12   1.108436 S    
C1    H2    1.110773 S    
C7    H14   1.106981 S    
O17   Ba2   2.740499 S    
C20   C21   1.504146 S    
O5    C6    1.400350 S    
C26   H40   1.075456 S    
Ba2   O20   2.772159 S    
O3    P6    1.740984 S    
C9    H19   1.107688 S    
O14   P8    1.729209 S    
C11   H23   1.112302 S    
O6    P6    1.754433 S    
O7    Ba1   2.810948 S    
C17   H41   1.086149 S    
P7    C45   1.833679 S    
C29   H35   1.083316 S    
Ba2   O21   2.811065 S    
N3    O33   1.300984 A    
P4    O13   1.578564 S    
P5    O18   1.544230 D    
C39   C47   1.493378 S    
C40   H47   1.076752 S    
C21   H36   1.084855 S    
P7    O21   1.568024 D    
Ba1   O13   2.819428 S    
C2    C3    1.519866 S    
C15   H30   1.095695 S    
C8    C9    1.523682 S    
C14   H29   1.113059 S    
C15   C16   1.527099 S    
C23   C24   1.395644 A    
P2    C32   1.839419 S    
C18   C19   1.517428 S    
O11   C2    1.406245 S    
O16   Ba2   2.905183 S    
C4    H8    1.100774 S    
P4    O12   1.516899 D    
P1    O5    1.751013 S    
P1    O2    1.578417 S    
C12   H26   1.112473 S    
P2    O10   1.749690 S    
O2    Ba1   2.904267 S    
P6    C18   1.859094 S    
H1    C10   1.109360 S    
N3    O32   1.296435 A    
C33   H46   1.082918 S    
C43   H49   1.075062 S    
C6    H11   1.105002 S    
P4    O15   1.766414 S    
C17   C22   1.318017 D    
C28   C29   1.358204 D    
C6    C7    1.521067 S    
C25   C26   1.410106 A    
O16   P7    1.753799 S    
N1    O28   1.300898 A    
C41   H48   1.082976 S    
C1    H3    1.110679 S    
C45   C46   1.396952 A    
S1    O27   1.680833 S    
P8    C24   1.827326 S    
C19   H39   1.083028 S    
P3    O11   1.749639 S    
P2    O7    1.510563 D    
C16   H33   1.107397 S    
C16   H34   1.110159 S    
P3    O8    1.746866 S    
C9    H20   1.107286 S    
C3    H7    1.110460 S    
O8    Ba1   2.739842 S    
O13   Ba2   2.905116 S    
C37   C38   1.403331 A    
C12   N1    1.455730 S    
C11   O22   1.398415 S    
N2    O31   1.303195 A    
P2    Ba1   3.369255 S    
C15   H31   1.109049 S    
N1    O29   1.301158 A    
C14   H28   1.108417 S    
C43   C44   1.408793 A    
C27   C29   1.502827 S    
C38   C39   1.409084 A    
C37   H45   1.082997 S    
C43   C47   1.415220 A    
C4    C5    1.545903 S    
Ba1   Ba2   4.547803 S    
C30   H42   1.081441 S    
O1    Ba1   2.838822 S    
C5    S1    1.783048 S    
C12   H25   1.112492 S    
C46   H43   1.083046 S    
C21   C22   1.327868 D    
C13   C14   1.556888 S    
C41   C42   1.406488 A    
C11   C12   1.532111 S    
C8    H17   1.110184 S    
C10   H21   1.109104 S    
P8    O24   1.755391 S    
P1    Ba1   3.378151 S    
C3    H27   1.110801 S    
C1    C10   1.519570 S    
O10   C8    1.395795 S    
C26   C27   1.416403 A    
P8    O23   1.544056 D    
C4    O15   1.406974 S    
O27   H53   0.990651 S    
C23   C27   1.409288 A    
C37   C42   1.405710 A    
P2    O20   1.552237 S    
C44   C48   1.401423 A    
C35   H50   1.082801 S    
C13   N3    1.462766 S    
N5    O36   1.301044 A    
P4    Ba2   3.378614 S    
C14   N4    1.453394 S    
P3    O9    1.548219 D    
C5    H9    1.110995 S    
C3    H6    1.110907 S    
P7    O22   1.748125 S    
C46   C47   1.405491 A    
C33   C34   1.410684 A    
C1    H22   1.110482 S    
C25   C30   1.394233 A    
O6    C10   1.404820 S    
O3    Ba1   2.775106 S    
C39   C40   1.402587 A    
