data_mof_unit_34283.cif
_audit_creation_date              2012-12-10T17:30:20-0500
_audit_creation_method            fapswitch 2.2
_symmetry_space_group_name_H-M    P1
_symmetry_Int_Tables_number       1
_space_group_crystal_system       triclinic
_cell_length_a                    12.208786
_cell_length_b                    12.942126
_cell_length_c                    14.886681
_cell_angle_alpha                 92.672166
_cell_angle_beta                  86.735685
_cell_angle_gamma                 95.33262
_cell_volume                      2336.20716091

loop_
_atom_site_label
_atom_site_type_symbol
_atom_type_description
_atom_site_fract_x
_atom_site_fract_y
_atom_site_fract_z
_atom_type_partial_charge
C1    C     C_R   0.523455 0.700081 0.497547 0.909742
C2    C     C_R   0.370339 0.133329 0.462508 0.020919
C3    C     C_R   0.457681 0.864504 0.459306 0.021104
C4    C     C_R   0.541201 0.135165 0.539996 0.022582
C5    C     C_R   0.454739 0.972074 0.477071 0.033360
C6    C     C_R   0.544894 0.027962 0.520856 0.033418
C7    C     C_R   0.953851 0.444117 0.389919 0.026761
C8    C     C_R   0.046121 0.556096 0.610048 0.026464
C9    C     C_R   0.838636 0.433529 0.407550 0.258868
C10   C     C_R   0.161366 0.566564 0.592417 0.251748
C11   C     C_R   0.859121 0.528244 0.547371 0.247366
C12   C     C_R   0.476530 0.299955 0.502157 0.917280
C13   C     C_R   0.140798 0.471924 0.452639 0.254108
C14   C     C_R   0.975822 0.520674 0.540371 -0.045657
C15   C     C_R   0.024118 0.479547 0.459621 -0.045060
C16   C     C_R   0.500522 0.501161 0.672333 0.915508
C17   C     C_R   0.499826 0.499835 0.327639 0.921803
C18   C     C_R   0.492215 0.408888 0.180781 0.085025
C19   C     C_R   0.519008 0.602789 0.814853 0.106386
C20   C     C_R   0.501587 0.502566 0.231789 -0.078429
C21   C     C_R   0.502767 0.505989 0.768234 -0.088443
C22   C     C_R   0.524887 0.598054 0.191042 0.092394
C23   C     C_R   0.488593 0.695112 0.963375 0.089736
C24   C     C_R   0.489931 0.412608 0.812576 0.093272
C25   C     C_R   0.508156 0.601124 0.098826 0.091099
C26   C     C_R   0.519582 0.414308 0.901926 0.078897
C27   C     C_R   0.515696 0.507886 0.046362 -0.082099
C28   C     C_R   0.515835 0.509249 0.952777 -0.098884
C29   C     C_R   0.520919 0.412339 0.088181 0.044216
C30   C     C_R   0.509199 0.604335 0.910016 0.072595
C31   C     C_R   0.482644 0.692065 0.058071 0.157775
C32   C     C_R   0.554661 0.326275 0.941801 0.182195
C33   C     C_3   0.444800 0.309906 0.224794 -0.936227
C34   C     C_R   0.556953 0.325966 0.036334 0.093693
C35   C     C_3   0.545174 0.701134 0.762732 -0.886225
C36   C     C_3   0.581179 0.689572 0.243091 -0.902196
C37   C     C_3   0.430260 0.317320 0.768045 -0.905051
C38   C     C_3   0.435042 0.780901 0.112994 -0.939321
C39   C     C_3   0.601807 0.238421 0.885190 -0.910633
C40   C     C_3   0.189963 0.403069 0.380202 -0.794576
C41   C     C_3   0.809884 0.597232 0.619827 -0.776705
C42   C     C_3   0.230174 0.629198 0.660272 -0.831851
C43   C     C_3   0.769833 0.370970 0.339629 -0.845195
C44   C     C_R   0.460093 0.187526 0.503362 -0.102235
C45   C     C_R   0.539764 0.812553 0.495260 -0.099821
C46   C     C_R   0.636132 0.975408 0.543297 0.071814
C47   C     C_R   0.364432 0.025194 0.453220 0.071738
C48   C     C_R   0.630919 0.867308 0.533778 0.020227
H1    H     H_    0.365281 0.323512 0.260998 0.242591
H2    H     H_    0.018887 0.651161 0.721166 0.186830
H3    H     H_    0.612224 0.753973 0.199254 0.252724
H4    H     H_    0.524421 0.718004 0.297150 0.246933
H5    H     H_    0.654632 0.665142 0.274213 0.252206
H6    H     H_    0.408965 0.253942 0.815342 0.253915
H7    H     H_    0.350968 0.337906 0.743938 0.248979
H8    H     H_    0.480395 0.288768 0.709468 0.246987
H9    H     H_    0.409332 0.760309 0.182839 0.261246
H10   H     H_    0.495410 0.850536 0.113699 0.241283
H11   H     H_    0.358164 0.800881 0.084487 0.234447
H12   H     H_    0.426232 0.245208 0.174915 0.264117
H13   H     H_    0.549386 0.164676 0.895389 0.247724
H14   H     H_    0.611033 0.253665 0.812608 0.253436
H15   H     H_    0.686927 0.228716 0.903190 0.229495
H16   H     H_    0.514481 0.851105 0.947046 0.195160
H17   H     H_    0.381647 0.799854 0.935036 0.190976
H18   H     H_    0.684443 0.238004 0.048541 0.176723
H19   H     H_    0.622544 0.263611 0.144141 0.196668
H20   H     H_    0.616277 0.153787 0.660172 0.194929
H21   H     H_    0.692984 0.206754 0.569068 0.237793
H22   H     H_    0.303990 0.794524 0.434115 0.236702
H23   H     H_    0.501976 0.286116 0.273821 0.230436
H24   H     H_    0.380123 0.842097 0.340380 0.196053
H25   H     H_    0.280999 0.171802 0.359891 0.177128
H26   H     H_    0.210287 0.165549 0.461951 0.188554
H27   H     H_    0.725608 0.829696 0.633320 0.174289
H28   H     H_    0.791626 0.836202 0.529399 0.189431
H29   H     H_    0.750869 0.007703 0.637385 0.179248
H30   H     H_    0.801238 0.015238 0.528341 0.183483
H31   H     H_    0.198897 0.986647 0.465173 0.183220
H32   H     H_    0.252272 0.993888 0.356920 0.180482
H33   H     H_    0.266841 0.377055 0.399998 0.287370
H34   H     H_    0.582712 0.685915 0.694604 0.221650
H35   H     H_    0.136281 0.329892 0.370191 0.207803
H36   H     H_    0.205425 0.444516 0.316452 0.247938
H37   H     H_    0.733155 0.623569 0.600055 0.283833
H38   H     H_    0.794199 0.555862 0.683602 0.248692
H39   H     H_    0.863695 0.670317 0.629893 0.206052
H40   H     H_    0.235630 0.584287 0.721362 0.232665
H41   H     H_    0.312740 0.655473 0.633645 0.284237
H42   H     H_    0.193178 0.702616 0.679817 0.192214
H43   H     H_    0.806919 0.297652 0.319879 0.192599
H44   H     H_    0.687349 0.344508 0.366321 0.282903
H45   H     H_    0.468769 0.739266 0.754653 0.253111
H46   H     H_    0.764197 0.416010 0.278635 0.230092
H47   H     H_    0.607254 0.754801 0.797143 0.250248
H48   H     H_    0.961759 0.473865 0.256559 0.194727
H49   H     H_    0.981206 0.349139 0.278763 0.186385
H50   H     H_    0.038110 0.526398 0.743416 0.195090
N1    N     N_R   0.207800 0.519350 0.516680 -0.120696
N2    N     N_3   0.717693 0.812633 0.564557 -0.462662
N3    N     N_3   0.735516 0.031106 0.573397 -0.493392
N4    N     N_3   0.265566 0.970311 0.421296 -0.494318
N5    N     N_R   0.792200 0.480650 0.483320 -0.120674
N6    N     N_3   0.998202 0.426924 0.299431 -0.466038
N7    N     N_3   0.001767 0.573385 0.700520 -0.466683
N8    N     N_3   0.464479 0.787708 0.921655 -0.466832
N9    N     N_3   0.605220 0.243077 0.077577 -0.453202
N10   N     N_3   0.614572 0.192812 0.600410 -0.449502
N11   N     N_3   0.381966 0.805770 0.401469 -0.445923
N12   N     N_3   0.285812 0.188665 0.428968 -0.462439
O1    O     O_R   0.421700 0.658830 0.504450 -0.621314
O2    O     O_R   0.578300 0.341170 0.495550 -0.624210
O3    O     O_R   0.609310 0.646410 0.493750 -0.615550
O4    O     O_R   0.390690 0.353590 0.506250 -0.611575
O5    O     O_R   0.406180 0.506230 0.637500 -0.622679
O6    O     O_R   0.593820 0.493770 0.362500 -0.627723
O7    O     O_R   0.593800 0.493820 0.626800 -0.626911
O8    O     O_R   0.406200 0.506180 0.373200 -0.623896
Zn1   Zn    Zn3+2 0.374730 0.508290 0.507150 0.932282
Zn2   Zn    Zn3+2 0.625270 0.491710 0.492850 0.928652

loop_
_geom_bond_atom_site_label_1
_geom_bond_atom_site_label_2
_ccdc_geom_bond_type
C25   C31   A    
C26   C32   A    
C16   C21   S    
C10   C42   S    
C40   H36   S    
H29   N3    S    
N5    Zn2   S    
H18   N9    S    
H19   N9    S    
C8    N7    S    
C43   H46   S    
H25   N12   S    
C41   H38   S    
C5    C47   A    
H50   N7    S    
C34   N9    S    
C19   C21   A    
C24   C26   A    
C5    C6    A    
C11   C14   A    
C27   C29   A    
C33   H1    S    
C38   H9    S    
C17   C20   S    
O1    Zn1   S    
C32   C39   S    
O8    Zn1   S    
C13   C40   S    
C36   H5    S    
C38   H10   S    
C37   H8    S    
H21   N10   S    
C2    C44   A    
C22   C25   A    
H2    N7    S    
H31   N4    S    
O4    Zn1   S    
C36   H4    S    
C7    C15   A    
C47   N4    S    
H30   N3    S    
C40   H35   S    
C1    O3    A    
C48   N2    S    
C35   H34   S    
C12   O4    A    
C35   H45   S    
C41   H39   S    
C46   N3    S    
C46   C48   A    
C9    C43   S    
C23   C30   A    
C4    C6    A    
O7    Zn2   S    
O2    Zn2   S    
C4    C44   A    
C23   N8    S    
C29   C34   A    
C3    C45   A    
C43   H43   S    
O6    Zn2   S    
H32   N4    S    
C42   H42   S    
C32   C34   A    
C13   N1    A    
H22   N11   S    
O3    Zn2   S    
C4    N10   S    
C9    N5    A    
C24   C37   S    
C18   C29   A    
C36   H3    S    
C17   O8    A    
C37   H6    S    
C20   C22   A    
C33   H12   S    
O5    Zn1   S    
C7    N6    S    
H48   N6    S    
C25   C27   A    
C42   H40   S    
C16   O5    A    
H17   N8    S    
C12   O2    A    
C39   H13   S    
C39   H15   S    
C45   C48   A    
C7    C9    A    
C39   H14   S    
H24   N11   S    
C2    N12   S    
C8    C14   A    
C6    C46   A    
C40   H33   S    
C3    C5    A    
H26   N12   S    
H16   N8    S    
C35   H47   S    
C2    C47   A    
H28   N2    S    
C22   C36   S    
C26   C28   A    
C43   H44   S    
C31   C38   S    
C42   H41   S    
C13   C15   A    
C12   C44   S    
C19   C35   S    
C16   O7    A    
C1    O1    A    
C1    C45   S    
C3    N11   S    
C28   C30   A    
H27   N2    S    
C11   C41   S    
C18   C20   A    
C10   N1    A    
C18   C33   S    
H49   N6    S    
C33   H23   S    
N1    Zn1   S    
C38   H11   S    
C37   H7    S    
C8    C10   A    
C21   C24   A    
C27   C28   A    
C14   C15   A    
C11   N5    A    
H20   N10   S    
C19   C30   A    
C41   H37   S    
C17   O6    A    
C23   C31   A    
