data_mof_unit_36769.cif
_audit_creation_date              2012-12-10T17:09:25-0500
_audit_creation_method            fapswitch 2.2
_symmetry_space_group_name_H-M    P1
_symmetry_Int_Tables_number       1
_space_group_crystal_system       triclinic
_cell_length_a                    10.508548
_cell_length_b                    10.701716
_cell_length_c                    10.073744
_cell_angle_alpha                 90.093804
_cell_angle_beta                  90.658256
_cell_angle_gamma                 90.100461
_cell_volume                      1132.81011376

loop_
_atom_site_label
_atom_site_type_symbol
_atom_type_description
_atom_site_fract_x
_atom_site_fract_y
_atom_site_fract_z
_atom_type_partial_charge
C1    C     C_R   0.508756 0.262884 0.499640 0.925495
C2    C     C_2   0.588984 0.548959 0.073646 -0.175714
C3    C     C_R   0.257668 0.499101 0.499210 0.867810
C4    C     C_R   0.500334 0.737207 0.500031 0.926020
C5    C     C_R   0.742376 0.501459 0.500750 0.875520
C6    C     C_3   0.043221 0.410283 0.581844 -0.237443
C7    C     C_3   0.957217 0.390861 0.459187 0.030560
C8    C     C_3   0.877372 0.502027 0.501961 -0.050531
C9    C     C_3   0.961700 0.523381 0.625444 -0.153211
C10   C     C_3   0.043291 0.611581 0.540665 0.209844
C11   C     C_1   0.907283 0.269263 0.415483 0.156373
C12   C     C_3   0.957031 0.591619 0.417792 -0.191843
C13   C     C_1   0.653401 0.663609 0.865881 0.253841
C14   C     C_1   0.376035 0.504949 0.101202 0.329134
C15   C     C_3   0.100203 0.736745 0.584619 -0.437906
C16   C     C_3   0.996733 0.831406 0.616457 -0.824341
C17   C     C_1   0.575429 0.115396 0.259905 0.253954
C18   C     C_3   0.038654 0.478570 0.374415 -0.202742
C19   C     C_3   0.122750 0.499803 0.497847 -0.045971
C20   C     C_2   0.563421 0.928702 0.402431 -0.196817
C21   C     C_2   0.501540 0.869387 0.498864 -0.331457
C22   C     C_2   0.557884 0.063351 0.391227 0.036206
C23   C     C_2   0.535117 0.131753 0.500721 -0.382330
C24   C     C_2   0.575715 0.569022 0.926128 -0.001285
H1    H     H_    0.538885 0.090231 0.598862 0.159258
H2    H     H_    0.934188 0.847062 0.528434 0.260584
H3    H     H_    0.938627 0.797539 0.700298 0.271518
H4    H     H_    0.041270 0.921747 0.645335 0.252159
H5    H     H_    0.161158 0.722068 0.674038 0.221716
H6    H     H_    0.160539 0.773981 0.503873 0.203351
H7    H     H_    0.463868 0.422073 0.894201 0.175333
H8    H     H_    0.677545 0.577861 0.121061 0.156796
H9    H     H_    0.082455 0.335869 0.647118 0.155910
H10   H     H_    0.926824 0.542568 0.727073 0.159641
H11   H     H_    0.917591 0.665613 0.352126 0.144601
H12   H     H_    0.073379 0.459138 0.272793 0.172765
H13   H     H_    0.612548 0.876658 0.325533 0.166668
H14   H     H_    0.447645 0.915962 0.575486 0.145029
N1    N     N_2   0.501360 0.501330 0.852150 -0.211550
N2    N     N_2   0.501400 0.501360 0.147810 -0.140604
N3    N     N_1   0.868217 0.173231 0.381172 -0.209517
N4    N     N_1   0.715732 0.739990 0.817820 -0.236307
N5    N     N_1   0.271734 0.508018 0.063080 -0.263002
N6    N     N_1   0.589592 0.156660 0.154949 -0.206050
O1    O     O_R   0.499980 0.319060 0.613040 -0.618372
O2    O     O_R   0.500020 0.319100 0.386900 -0.600770
O3    O     O_R   0.313930 0.499950 0.613050 -0.617792
O4    O     O_R   0.313970 0.499990 0.386910 -0.623542
O5    O     O_R   0.499980 0.680900 0.613100 -0.608045
O6    O     O_R   0.500020 0.680940 0.386960 -0.617878
O7    O     O_R   0.686030 0.500010 0.613090 -0.618128
O8    O     O_R   0.686070 0.500050 0.386950 -0.625175
Zn1   Zn    Zn3+2 0.499970 0.499970 0.650990 0.955602
Zn2   Zn    Zn3+2 0.500030 0.500030 0.349010 0.962635

loop_
_geom_bond_atom_site_label_1
_geom_bond_atom_site_label_2
_ccdc_geom_bond_type
C16   H4    S    
C5    C8    S    
C7    C11   S    
C5    O8    A    
C3    C19   S    
C6    C7    S    
C4    C21   S    
C15   H5    S    
C9    C10   S    
C4    O5    A    
C17   C22   S    
C6    H9    S    
C8    C12   S    
C10   C19   S    
O3    Zn1   S    
C7    C18   S    
O2    Zn2   S    
C16   H3    S    
C8    C9    S    
C17   N6    T    
O1    Zn1   S    
C7    C8    S    
N1    Zn1   S    
C12   H11   S    
O4    Zn2   S    
C20   H13   S    
C1    O1    A    
O6    Zn2   S    
C10   C12   S    
C6    C9    S    
O5    Zn1   S    
C3    O3    A    
C13   N4    T    
O8    Zn2   S    
C1    C23   S    
N2    Zn2   S    
C10   C15   S    
C23   H1    S    
C2    C24   S    
C9    H10   S    
C1    O2    A    
C20   C22   S    
C14   N2    S    
C15   C16   S    
C2    N2    D    
C3    O4    A    
C24   N1    D    
C20   C21   D    
C15   H6    S    
C2    H8    S    
C18   C19   S    
C11   N3    T    
C12   C18   S    
H7    N1    S    
C22   C23   D    
C5    O7    A    
C18   H12   S    
C6    C19   S    
C21   H14   S    
C13   C24   S    
C4    O6    A    
C14   N5    T    
O7    Zn1   S    
C16   H2    S    
