data_mof_unit_5140.cif
_audit_creation_date              2012-12-11T15:15:14-0500
_audit_creation_method            fapswitch 2.2
_symmetry_space_group_name_H-M    P1
_symmetry_Int_Tables_number       1
_space_group_crystal_system       triclinic
_cell_length_a                    19.367843
_cell_length_b                    19.305506
_cell_length_c                    20.468481
_cell_angle_alpha                 107.320788
_cell_angle_beta                  106.22102
_cell_angle_gamma                 111.868898
_cell_volume                      6087.26854356

loop_
_atom_site_label
_atom_site_type_symbol
_atom_type_description
_atom_site_fract_x
_atom_site_fract_y
_atom_site_fract_z
_atom_type_partial_charge
C1    C     C_R   0.038600 0.088807 0.347481 -0.261686
C2    C     C_R   0.746341 0.001690 0.480943 -0.238799
C3    C     C_R   0.772371 0.734282 0.279484 -0.098110
C4    C     C_R   0.054990 0.286026 0.544858 0.118921
C5    C     C_R   0.238289 0.196001 0.654385 0.580880
C6    C     C_R   0.966069 0.789483 0.536432 0.521755
C7    C     C_R   0.168233 0.936728 0.429378 -0.091938
C8    C     C_R   0.974175 0.053411 0.704487 -0.099298
C9    C     C_R   0.909588 0.916887 0.646315 0.583882
C10   C     C_R   0.235753 0.074796 0.494560 -0.048921
C11   C     C_R   0.162519 0.181349 0.718232 0.548721
C12   C     C_R   0.753766 0.930084 0.466273 0.481324
C13   C     C_R   0.046854 0.801927 0.476688 0.568630
C14   C     C_R   0.243666 0.211113 0.726126 -0.145089
C15   C     C_R   0.024784 0.770096 0.524584 -0.119391
C16   C     C_R   0.239868 0.008503 0.452400 -0.017661
C17   C     C_R   0.925882 0.984120 0.709834 -0.027043
C18   C     C_R   0.080736 0.713462 0.605991 0.533565
C19   C     C_R   0.035734 0.703622 0.533881 -0.223290
C20   C     C_R   0.003259 0.630759 0.467566 0.549541
C21   C     C_R   0.029031 0.573642 0.471425 -0.112786
C22   C     C_R   0.067651 0.577842 0.542798 -0.004094
C23   C     C_R   0.848354 0.784443 0.287481 -0.085023
C24   C     C_R   0.093821 0.647933 0.610699 -0.111494
C25   C     C_R   0.015758 0.512423 0.404843 -0.354629
C26   C     C_R   0.026580 0.445455 0.406089 0.660045
C27   C     C_R   0.050238 0.441229 0.476102 -0.190348
C28   C     C_R   0.076219 0.510036 0.545522 -0.116925
C29   C     C_R   0.105847 0.508992 0.616838 -0.190370
C30   C     C_R   0.134854 0.580646 0.684962 0.636556
C31   C     C_R   0.132044 0.650706 0.681085 -0.321311
C32   C     C_R   0.042103 0.367210 0.477383 0.547696
C33   C     C_R   0.066803 0.364670 0.547509 -0.305102
C34   C     C_R   0.006523 0.238018 0.569719 -0.066529
C35   C     C_R   0.102866 0.435285 0.617271 0.520007
C36   C     C_R   0.386729 0.068070 0.516976 -0.266799
C37   C     C_R   0.314480 0.015435 0.448850 0.115263
C38   C     C_R   0.314292 0.967461 0.382597 -0.282578
C39   C     C_R   0.388074 0.970663 0.385325 0.140457
C40   C     C_R   0.460147 0.020044 0.455737 0.075024
C41   C     C_R   0.459179 0.069558 0.521418 0.138971
C42   C     C_R   0.390707 0.923487 0.320156 -0.214617
C43   C     C_R   0.464033 0.923680 0.325131 -0.186284
C44   C     C_R   0.534259 0.969175 0.395694 0.124826
C45   C     C_R   0.770063 0.770669 0.349111 0.670177
C46   C     C_R   0.532214 0.017366 0.461457 -0.038422
C47   C     C_R   0.601363 0.060994 0.533587 -0.068779
C48   C     C_R   0.600028 0.111892 0.597873 -0.147230
C49   C     C_R   0.529318 0.116772 0.591561 -0.227096
C50   C     C_R   0.606264 0.966470 0.402203 -0.330645
C51   C     C_R   0.672722 0.006358 0.474044 -0.025619
C52   C     C_R   0.670055 0.051517 0.540518 0.556095
C53   C     C_R   0.319536 0.247116 0.795692 -0.204141
C54   C     C_R   0.333412 0.308918 0.863206 0.620321
C55   C     C_R   0.404397 0.340398 0.929976 -0.491765
C56   C     C_R   0.079817 0.240109 0.503434 -0.079685
C57   C     C_R   0.461176 0.312159 0.929527 -0.113490
C58   C     C_R   0.448046 0.251238 0.862244 0.456078
C59   C     C_R   0.374704 0.215458 0.795673 0.407901
C60   C     C_R   0.709894 0.521118 0.134526 0.466452
C61   C     C_R   0.751603 0.594306 0.204303 0.439121
C62   C     C_R   0.651336 0.635751 0.156627 -0.294274
C63   C     C_R   0.612273 0.565825 0.086964 -0.239902
C64   C     C_R   0.640624 0.508370 0.075590 -0.036537
C65   C     C_2   0.541540 0.361577 0.996245 0.036322
C66   C     C_2   0.593114 0.434439 0.001940 -0.199577
C67   C     C_R   0.825210 0.070090 0.525037 0.610957
C68   C     C_R   0.720541 0.650298 0.215504 -0.054827
C69   C     C_R   0.941491 0.031852 0.210004 -0.056766
C70   C     C_R   0.984284 0.099130 0.197343 -0.423216
C71   C     C_R   0.946122 0.105629 0.132040 0.639988
C72   C     C_R   0.862640 0.046120 0.081890 -0.179781
C73   C     C_R   0.816996 0.984770 0.099240 -0.396473
C74   C     C_R   0.856362 0.975262 0.162272 0.664064
C75   C     C_R   0.918148 0.047840 0.900484 -0.408154
C76   C     C_R   0.942071 0.051894 0.842849 0.564113
C77   C     C_R   0.813592 0.921582 0.751313 0.436059
C78   C     C_R   0.974334 0.950163 0.281521 0.680736
C79   C     C_R   0.795739 0.913633 0.812300 0.431916
C80   C     C_R   0.846417 0.979145 0.885922 -0.177675
C81   C     C_2   0.831684 0.034666 0.002610 0.445267
C82   C     C_2   0.832426 0.971921 0.951407 0.569833
C83   C     C_R   0.892744 0.985197 0.768016 -0.232047
C84   C     C_R   0.986457 0.023567 0.275339 -0.036650
H1    H     H_    0.385356 0.104011 0.568276 0.174158
H2    H     H_    0.528521 0.155099 0.641987 0.134139
H3    H     H_    0.419171 0.391519 0.981612 0.182845
N1    N     N_R   0.052580 0.056040 0.395500 -0.076618
N2    N     N_R   0.954640 0.834860 0.500130 -0.151588
N3    N     N_R   0.122510 0.958490 0.460420 -0.053287
N4    N     N_R   0.990180 0.030970 0.644220 -0.092204
N5    N     N_R   0.947420 0.943960 0.604500 -0.137195
N6    N     N_R   0.165270 0.045500 0.500140 -0.051584
N7    N     N_R   0.109790 0.150600 0.644220 -0.138768
N8    N     N_R   0.002890 0.838860 0.460420 -0.132586
N9    N     N_R   0.834730 0.954500 0.499860 -0.154863
N10   N     N_R   0.890210 0.849400 0.355780 -0.088674
N11   N     N_R   0.997110 0.161140 0.539580 -0.054822
N12   N     N_R   0.841950 0.845400 0.395490 -0.112079
N13   N     N_R   0.045360 0.165140 0.499870 -0.055882
N14   N     N_R   0.877490 0.041510 0.539580 -0.141000
N15   N     N_R   0.009820 0.969030 0.355780 -0.108484
N16   N     N_R   0.158050 0.154600 0.604510 -0.156872
Ni1   Ni    Ni4+2 0.104370 0.104380 0.500010 0.174519
Ni2   Ni    Ni4+2 0.895630 0.895620 0.499990 0.208085
Ni3   Ni    Ni4+2 0.006300 0.904810 0.408930 0.216558
Ni4   Ni    Ni4+2 0.993700 0.095190 0.591070 0.212197
H4    H     H_    0.059080 0.154101 0.363570 0.178255
O1    O     O_3   0.922201 0.761887 0.574489 -0.596371
C85   C     C_3   0.859864 0.677472 0.527613 -0.217402
H5    H     H_    0.886063 0.635244 0.526790 0.118416
H6    H     H_    0.823951 0.665944 0.468776 0.141840
H7    H     H_    0.815548 0.661372 0.552409 0.167079
H8    H     H_    0.147521 0.875620 0.385974 0.153713
H9    H     H_    0.984831 0.115595 0.734509 0.199022
O2    O     O_3   0.851963 0.835587 0.624065 -0.587554
C86   C     C_3   0.787744 0.803970 0.552027 0.055297
H10   H     H_    0.810302 0.794370 0.508367 0.160646
H11   H     H_    0.761165 0.845671 0.551172 0.125565
H12   H     H_    0.737397 0.742443 0.538568 0.128647
H13   H     H_    0.276337 0.139159 0.510145 0.146799
O3    O     O_3   0.138320 0.174799 0.774563 -0.592895
C87   C     C_3   0.160166 0.121169 0.798756 -0.196254
H14   H     H_    0.226703 0.153396 0.838422 0.109109
H15   H     H_    0.142688 0.062735 0.749914 0.101923
H16   H     H_    0.126307 0.101793 0.831168 0.215497
O4    O     O_3   0.090817 0.783594 0.437931 -0.623045
C88   C     C_3   0.168603 0.802115 0.489654 -0.237016
H17   H     H_    0.163638 0.748462 0.501460 0.152907
H18   H     H_    0.197585 0.860120 0.543873 0.127303
H19   H     H_    0.211436 0.812646 0.462706 0.162904
O5    O     O_3   0.114953 0.788240 0.670183 -0.622195
C89   C     C_3   0.062917 0.782003 0.707391 -0.168683
H20   H     H_    0.003971 0.720981 0.678644 0.129623
H21   H     H_    0.047000 0.832349 0.712572 0.186179
H22   H     H_    0.097552 0.792827 0.766027 0.120657
O6    O     O_3   0.947097 0.617194 0.399239 -0.596237
C90   C     C_3   0.869037 0.546404 0.373409 -0.156718
H23   H     H_    0.864484 0.517148 0.412697 0.063892
H24   H     H_    0.853494 0.498049 0.317572 0.166936
H25   H     H_    0.820841 0.564982 0.364853 0.187124
H26   H     H_    0.996799 0.517018 0.352024 0.175142
O7    O     O_3   0.691511 0.847563 0.421764 -0.596474
C91   C     C_3   0.626415 0.827219 0.443743 -0.226142
H27   H     H_    0.569924 0.815927 0.398921 0.161730
H28   H     H_    0.640753 0.874167 0.499827 0.099465
H29   H     H_    0.611645 0.767985 0.448063 0.147746
O8    O     O_3   0.020055 0.386841 0.341786 -0.570137
C92   C     C_3   0.947839 0.357542 0.275884 -0.190369
H30   H     H_    0.893460 0.349999 0.287873 0.091673
H31   H     H_    0.959804 0.399438 0.248275 0.129589
H32   H     H_    0.931529 0.295023 0.234553 0.177952
O9    O     O_3   0.008154 0.295894 0.409640 -0.571178
C93   C     C_3   0.921704 0.249929 0.384187 -0.173388
H33   H     H_    0.892119 0.289474 0.383198 0.094809
H34   H     H_    0.907339 0.218512 0.419793 0.122611
H35   H     H_    0.893813 0.200446 0.325068 0.166350
O10   O     O_3   0.127657 0.429222 0.684720 -0.594045
C94   C     C_3   0.208442 0.440642 0.706245 -0.096803
H36   H     H_    0.252923 0.502133 0.713241 0.131927
H37   H     H_    0.209576 0.389223 0.664658 0.083052
H38   H     H_    0.229690 0.439677 0.762060 0.181267
O11   O     O_3   0.169642 0.584265 0.755682 -0.595887
C95   C     C_3   0.113021 0.576854 0.787649 -0.167421
H39   H     H_    0.137990 0.572190 0.840999 0.166064
H40   H     H_    0.051787 0.519133 0.748814 0.135880
H41   H     H_    0.105310 0.632925 0.802795 0.095232
H42   H     H_    0.157033 0.705805 0.733740 0.179373
H43   H     H_    0.257232 0.927479 0.330225 0.123007
H44   H     H_    0.336056 0.885982 0.265789 0.128128
H45   H     H_    0.465232 0.886575 0.274416 0.127065
H46   H     H_    0.610173 0.931594 0.352204 0.174759
H47   H     H_    0.876225 0.765204 0.252220 0.180451
O12   O     O_3   0.737680 0.093143 0.611377 -0.587842
C96   C     C_3   0.732474 0.038495 0.644843 -0.278230
H48   H     H_    0.670546 0.007619 0.643836 0.121272
H49   H     H_    0.779180 0.075323 0.705424 0.179384
H50   H     H_    0.747827 0.991353 0.616810 0.148251
H51   H     H_    0.652963 0.147075 0.653342 0.172402
O13   O     O_3   0.281362 0.343080 0.859570 -0.603031
C97   C     C_3   0.261820 0.355295 0.922093 -0.146589
H52   H     H_    0.311386 0.415527 0.972134 0.109269
H53   H     H_    0.249712 0.302366 0.937097 0.134080
H54   H     H_    0.204333 0.359372 0.906283 0.158467
O14   O     O_3   0.822367 0.612417 0.263105 -0.617524
C98   C     C_3   0.887099 0.622811 0.240949 -0.074965
H55   H     H_    0.881060 0.640203 0.193161 0.047586
H56   H     H_    0.891801 0.565126 0.225917 0.164970
H57   H     H_    0.946389 0.674070 0.290398 0.194912
H58   H     H_    0.629982 0.680787 0.163480 0.157054
H59   H     H_    0.581205 0.445429 0.951794 0.130322
O15   O     O_3   0.504789 0.223865 0.862918 -0.599347
C99   C     C_3   0.552769 0.260127 0.829218 -0.182712
H60   H     H_    0.600875 0.241400 0.833608 0.151831
H61   H     H_    0.585307 0.329605 0.859404 0.104048
H62   H     H_    0.514666 0.237486 0.767663 0.170417
O16   O     O_3   0.734884 0.461678 0.127389 -0.607970
C100  C     C_3   0.765531 0.453818 0.071994 -0.262941
H63   H     H_    0.792780 0.512003 0.065500 0.103960
H64   H     H_    0.716054 0.400992 0.016154 0.176849
H65   H     H_    0.815384 0.438507 0.089506 0.155511
O17   O     O_3   0.359873 0.153527 0.729353 -0.578086
C101  C     C_3   0.319832 0.075474 0.728725 -0.176336
H66   H     H_    0.258473 0.061591 0.727986 0.101217
H67   H     H_    0.358827 0.072120 0.777914 0.156965
H68   H     H_    0.308804 0.026127 0.675807 0.160589
H69   H     H_    0.988744 0.261178 0.613399 0.182109
H70   H     H_    0.546094 0.353259 0.047225 0.129644
H71   H     H_    0.559002 0.555972 0.041641 0.161187
H72   H     H_    0.048363 0.144569 0.236947 0.173815
O18   O     O_3   0.018298 0.116665 0.861447 -0.624112
C102  C     C_3   0.019454 0.193667 0.888613 -0.226309
H73   H     H_    0.029230 0.215792 0.948828 0.148150
H74   H     H_    0.962213 0.190263 0.852250 0.132991
H75   H     H_    0.072456 0.241066 0.887022 0.175602
O19   O     O_3   0.755837 0.867765 0.676069 -0.603657
C103  C     C_3   0.676687 0.859285 0.662652 -0.228652
H76   H     H_    0.645789 0.849496 0.603814 0.120404
H77   H     H_    0.678845 0.915243 0.701733 0.125975
H78   H     H_    0.637192 0.802622 0.665694 0.191881
O20   O     O_3   0.827588 0.903600 0.963884 -0.615456
C104  C     C_3   0.904771 0.906473 0.981697 -0.326080
H79   H     H_    0.920727 0.898986 0.932857 0.146660
H80   H     H_    0.900774 0.853797 0.994905 0.171289
H81   H     H_    0.955086 0.965346 0.032991 0.128200
H82   H     H_    0.752159 0.941446 0.060582 0.168769
H83   H     H_    0.959183 0.095942 0.958490 0.208758
O21   O     O_3   0.812517 0.916194 0.182140 -0.622875
C105  C     C_3   0.761059 0.836331 0.118736 -0.139901
H84   H     H_    0.791108 0.822467 0.081227 0.149591
H85   H     H_    0.700750 0.829662 0.085737 0.117059
H86   H     H_    0.747907 0.788617 0.140019 0.172575
O22   O     O_3   0.722754 0.727212 0.378233 -0.642118
C106  C     C_3   0.641095 0.666704 0.322627 -0.188654
H87   H     H_    0.601612 0.651713 0.352069 0.145410
H88   H     H_    0.638334 0.607506 0.290385 0.137295
H89   H     H_    0.614200 0.689723 0.284183 0.143367
O23   O     O_3   0.829603 0.099057 0.986052 -0.613851
C107  C     C_3   0.796087 0.137822 0.027429 -0.149352
H90   H     H_    0.841232 0.178096 0.088466 0.148336
H91   H     H_    0.736570 0.091143 0.021636 0.110839
H92   H     H_    0.782867 0.178828 0.004013 0.154814
O24   O     O_3   0.987674 0.169380 0.115563 -0.597574
C108  C     C_3   0.065923 0.179274 0.123052 -0.267887
H93   H     H_    0.064064 0.118269 0.099543 0.111008
H94   H     H_    0.112968 0.218909 0.183468 0.155903
H95   H     H_    0.085879 0.212415 0.090140 0.170198
O25   O     O_3   0.726426 0.844784 0.800248 -0.602155
C109  C     C_3   0.736794 0.774055 0.778785 -0.153912
H96   H     H_    0.795463 0.785307 0.820766 0.133218
H97   H     H_    0.734448 0.753828 0.721029 0.155162
H98   H     H_    0.685038 0.721596 0.776867 0.150992
H99   H     H_    0.125920 0.262484 0.483549 0.102853
O26   O     O_3   0.847419 0.153622 0.558642 -0.592735
C110  C     C_3   0.809908 0.175680 0.504380 -0.221720
H100  H     H_    0.751075 0.170668 0.504548 0.161538
H101  H     H_    0.798974 0.138423 0.445475 0.100683
H102  H     H_    0.851628 0.242258 0.521242 0.142548
O27   O     O_3   0.936258 0.871304 0.222163 -0.633640
C111  C     C_3   0.979913 0.871660 0.177396 -0.366519
H103  H     H_    0.047030 0.896971 0.212634 0.139350
H104  H     H_    0.971566 0.907029 0.144718 0.155841
H105  H     H_    0.954350 0.806205 0.135376 0.176954
O28   O     O_3   0.304835 0.224968 0.638102 -0.581634
C112  C     C_3   0.302343 0.283887 0.611572 -0.325073
H106  H     H_    0.246164 0.254619 0.557065 0.130781
H107  H     H_    0.357083 0.308910 0.600368 0.175824
H108  H     H_    0.305989 0.337593 0.655298 0.141524

loop_
_geom_bond_atom_site_label_1
_geom_bond_atom_site_label_2
_ccdc_geom_bond_type
N14   Ni4   S    
C101  H66   S    
C110  H101  S    
C78   N15   A    
C73   C74   A    
C54   C55   A    
C18   O5    S    
C25   H26   S    
C61   C68   A    
N9    Ni2   S    
C10   H13   S    
C2    C12   A    
C88   H17   S    
C5    N16   A    
C81   C82   D    
C53   C59   A    
C90   H23   S    
C87   H14   S    
C96   H49   S    
C65   H70   S    
C53   C54   A    
C108  H93   S    
C103  H78   S    
C15   C19   S    
C101  H67   S    
C67   N14   A    
C109  H96   S    
C62   C63   A    
C38   H43   S    
C18   C24   A    
C7    H8    S    
C28   C29   A    
C107  H90   S    
C45   O22   S    
C105  H86   S    
C86   H11   S    
O24   C108  S    
C73   H82   S    
O12   C96   S    
C11   C14   A    
C87   H15   S    
C77   C83   A    
C44   C50   A    
O7    C91   S    
O22   C106  S    
C110  H100  S    
N13   Ni1   S    
C81   O23   S    
C76   C83   A    
C18   C19   A    
C85   H5    S    
C74   O21   S    
C42   H44   S    
C8    H9    S    
N10   N12   A    
C6    C15   A    
C46   C47   A    
C3    C23   A    
C98   H57   S    
C47   C48   A    
C108  H94   S    
O5    C89   S    
C99   H61   S    
C50   H46   S    
C89   H22   S    
C78   O27   S    
C94   H37   S    
N6    Ni1   S    
C70   C71   A    
C32   O9    S    
C96   H50   S    
C29   C30   A    
C5    C14   A    
C112  H106  S    
O1    C85   S    
C93   H34   S    
C72   C81   S    
C16   C37   S    
C1    N1    A    
C97   H53   S    
C110  H102  S    
O9    C93   S    
C22   C28   A    
C21   C22   A    
C4    C56   A    
C95   H40   S    
C95   H39   S    
C36   C41   A    
O16   C100  S    
C106  H88   S    
C30   O11   S    
C63   H71   S    
C91   H29   S    
O25   C109  S    
C9    N5    A    
C41   C49   A    
O21   C105  S    
N1    Ni1   S    
C44   C46   A    
C60   C64   A    
C39   C42   A    
C57   C58   A    
C77   C79   A    
C38   C39   A    
N12   Ni2   S    
C101  H68   S    
C4    C34   A    
N7    Ni4   S    
C109  H97   S    
O17   C101  S    
C51   C52   A    
N4    Ni4   S    
N9    N14   A    
O8    C92   S    
N3    Ni3   S    
C93   H35   S    
C111  H104  S    
C2    C67   A    
C45   N12   A    
C92   H32   S    
C39   C40   A    
C82   O20   S    
C43   H45   S    
O28   C112  S    
C87   H16   S    
C104  H81   S    
C58   C59   A    
C97   H52   S    
C7    N3    A    
C3    C45   A    
N11   Ni4   S    
C79   C80   A    
C60   C61   A    
C1    C84   A    
C106  H89   S    
C64   C66   S    
C20   O6    S    
N2    N8    A    
C40   C46   A    
C75   C76   A    
O18   C102  S    
C105  H84   S    
N8    Ni3   S    
C78   C84   A    
C5    O28   S    
O20   C104  S    
C94   H36   S    
C102  H75   S    
C111  H105  S    
C99   H62   S    
C66   H59   S    
C62   H58   S    
C100  H65   S    
C61   O14   S    
C50   C51   A    
C26   C27   A    
C94   H38   S    
C69   C74   A    
C107  H91   S    
C8    N4    A    
C31   H42   S    
C104  H80   S    
C112  H107  S    
C85   H7    S    
C93   H33   S    
C100  H63   S    
C90   H24   S    
C60   O16   S    
C3    C68   S    
N10   Ni3   S    
C76   O18   S    
C91   H28   S    
C40   C41   A    
C23   N10   A    
C102  H74   S    
N7    N16   A    
C65   C66   D    
C37   C38   A    
N11   N13   A    
C55   C57   A    
C13   C15   A    
C58   O15   S    
C89   H20   S    
C36   H1    S    
C6    O1    S    
C22   C24   A    
C86   H12   S    
C11   O3    S    
C42   C43   A    
C56   N13   A    
C98   H56   S    
O4    C88   S    
C88   H19   S    
C52   O12   S    
N4    N5    A    
O13   C97   S    
C11   N7    A    
N3    N6    A    
C89   H21   S    
C75   C80   A    
C67   O26   S    
C9    C17   A    
C111  H103  S    
C21   C25   A    
C4    C33   S    
C36   C37   A    
C109  H98   S    
C97   H54   S    
C27   C32   A    
C9    O2    S    
C49   H2    S    
C95   H41   S    
C7    C16   A    
C57   C65   S    
C72   C73   A    
C90   H25   S    
C88   H18   S    
C19   C20   A    
N1    N15   A    
C108  H95   S    
C79   O25   S    
O3    C87   S    
C47   C52   A    
C23   H47   S    
C34   H69   S    
C103  H77   S    
C6    N2    A    
O6    C90   S    
C29   C35   A    
C86   H10   S    
C8    C17   A    
C10   N6    A    
C12   O7    S    
C62   C68   A    
C91   H27   S    
O15   C99   S    
C34   N11   A    
O26   C110  S    
C92   H31   S    
C25   C26   A    
C35   O10   S    
C71   O24   S    
C71   C72   A    
C105  H85   S    
C96   H48   S    
C10   C16   A    
C92   H30   S    
C32   C33   A    
C13   N8    A    
C59   O17   S    
O14   C98   S    
C30   C31   A    
C43   C44   A    
C48   C49   A    
C103  H76   S    
O23   C107  S    
C33   C35   A    
C80   C82   S    
C54   O13   S    
O2    C86   S    
N15   Ni3   S    
C107  H92   S    
O10   C94   S    
C55   H3    S    
C69   C70   A    
C104  H79   S    
C112  H108  S    
C85   H6    S    
C24   C31   A    
O11   C95   S    
C2    C51   S    
C1    H4    S    
C63   C64   A    
C13   O4    S    
O19   C103  S    
N5    Ni2   S    
C26   O8    S    
C14   C53   S    
C102  H73   S    
C20   C21   A    
C99   H60   S    
C106  H87   S    
N2    Ni2   S    
N16   Ni1   S    
C69   C84   S    
C12   N9    A    
C100  H64   S    
C70   H72   S    
C17   C83   S    
C98   H55   S    
C56   H99   S    
C75   H83   S    
C48   H51   S    
O27   C111  S    
C77   O19   S    
C27   C28   A    
