data_mof_unit_25869.cif
_audit_creation_date              2012-12-10T17:59:47-0500
_audit_creation_method            fapswitch 2.2
_symmetry_space_group_name_H-M    P1
_symmetry_Int_Tables_number       1
_space_group_crystal_system       triclinic
_cell_length_a                    10.835232
_cell_length_b                    9.54959
_cell_length_c                    15.897956
_cell_angle_alpha                 89.890783
_cell_angle_beta                  91.100184
_cell_angle_gamma                 89.870837
_cell_volume                      1644.68311195

loop_
_atom_site_label
_atom_site_type_symbol
_atom_type_description
_atom_site_fract_x
_atom_site_fract_y
_atom_site_fract_z
_atom_type_partial_charge
C1    C     C_R   0.262894 0.500288 0.509275 0.785427
C2    C     C_3   0.622719 0.395269 0.951067 -0.146459
C3    C     C_3   0.636772 0.414666 0.052280 0.935733
C4    C     C_1   0.505032 0.496092 0.824371 -0.072938
C5    C     C_1   0.506140 0.493002 0.176233 -0.068210
C6    C     C_1   0.502474 0.498804 0.251403 -0.245962
C7    C     C_R   0.062919 0.373561 0.532151 -0.028280
C8    C     C_R   0.061565 0.629625 0.521130 -0.025025
C9    C     C_R   0.935135 0.374289 0.520923 -0.163598
C10   C     C_R   0.934641 0.626696 0.509086 -0.259313
C11   C     C_R   0.871589 0.499762 0.507360 -0.061003
C12   C     C_R   0.128677 0.501361 0.523400 -0.139173
C13   C     C_R   0.410426 0.074928 0.456036 0.505372
C14   C     C_R   0.411787 0.925551 0.454869 0.547269
C15   C     C_R   0.500129 0.500015 0.340488 0.805969
C16   C     C_R   0.589264 0.925469 0.542799 -0.130035
C17   C     C_R   0.589676 0.073842 0.542396 -0.134396
C18   C     C_R   0.737832 0.499837 0.500902 0.792241
C19   C     C_R   0.500044 0.499839 0.659652 0.820341
C20   C     C_3   0.504031 0.646259 0.051201 0.375241
C21   C     C_3   0.393900 0.398252 0.047152 0.262095
C22   C     C_3   0.382823 0.434843 0.950582 -0.204143
C23   C     C_3   0.522560 0.644401 0.951887 -0.240453
C24   C     C_1   0.501985 0.498927 0.749015 -0.134206
C25   C     C_3   0.509431 0.486201 0.083848 -0.120431
C26   C     C_3   0.510524 0.490527 0.917173 -0.211704
Cu1   Cu    Cu3+1 0.500020 0.640660 0.500000 1.006388
Cu2   Cu    Cu3+1 0.500020 0.359340 0.500000 0.966334
H1    H     H_    0.445910 0.704678 0.921697 0.167015
H2    H     H_    0.317336 0.524063 0.942897 0.237439
H3    H     H_    0.660391 0.869599 0.577862 0.166882
H4    H     H_    0.661160 0.129148 0.577102 0.169815
H5    H     H_    0.884423 0.277040 0.526144 0.181038
H6    H     H_    0.884316 0.724865 0.504651 0.149523
N1    N     N_R   0.500030 0.852070 0.500020 -0.213431
N2    N     N_R   0.500030 0.147930 0.500020 -0.225461
O1    O     O_R   0.319660 0.618740 0.500000 -0.496122
O2    O     O_R   0.319660 0.381260 0.500000 -0.561558
O3    O     O_R   0.500020 0.618840 0.379440 -0.566918
O4    O     O_R   0.500020 0.381160 0.379440 -0.579606
O5    O     O_R   0.680370 0.618830 0.500010 -0.593027
O6    O     O_R   0.680370 0.381170 0.500010 -0.596908
O7    O     O_R   0.500010 0.618730 0.620560 -0.556252
O8    O     O_R   0.500010 0.381270 0.620560 -0.583369
C27   C     C_2   0.379008 0.711291 0.075849 0.242393
H7    H     H_    0.355391 0.715461 0.141834 0.082739
O9    O     O_2   0.306524 0.762042 0.024443 -0.541465
C28   C     C_2   0.273748 0.436587 0.093151 0.322641
H8    H     H_    0.270818 0.429368 0.161192 0.049696
O10   O     O_2   0.179209 0.469979 0.054971 -0.489165
O11   O     O_3   0.423762 0.252310 0.055822 -0.597296
C29   C     C_3   0.324836 0.161357 0.074735 -0.308340
H9    H     H_    0.241390 0.181538 0.034835 0.209185
H10   H     H_    0.302370 0.168801 0.142432 0.137401
H11   H     H_    0.354527 0.052269 0.062663 0.207965
O12   O     O_3   0.601110 0.722072 0.093417 -0.537531
C30   C     C_3   0.588749 0.869974 0.089768 -0.118040
H12   H     H_    0.534721 0.907433 0.144004 0.097565
H13   H     H_    0.545201 0.907856 0.030041 0.177264
H14   H     H_    0.682011 0.917102 0.094893 0.222942
C31   C     C_2   0.322265 0.319458 0.898506 0.467336
H15   H     H_    0.354753 0.212314 0.901853 0.090482
O13   O     O_2   0.233295 0.345671 0.852774 -0.498181
C32   C     C_2   0.634023 0.722295 0.918204 0.428169
H16   H     H_    0.626722 0.770778 0.856470 0.062459
O14   O     O_2   0.732430 0.729125 0.956585 -0.435520
O15   O     O_3   0.736288 0.511964 0.064371 -0.526979
C33   C     C_3   0.808234 0.497851 0.138600 -0.067450
H17   H     H_    0.854417 0.394091 0.142703 0.172695
H18   H     H_    0.754192 0.523919 0.194907 0.120225
H19   H     H_    0.883445 0.576262 0.136326 0.196137
O16   O     O_3   0.670288 0.278048 0.085106 -0.531047
C34   C     C_3   0.643924 0.240476 0.169138 -0.249331
H20   H     H_    0.688134 0.137677 0.181931 0.164978
H21   H     H_    0.544474 0.224187 0.179382 0.197436
H22   H     H_    0.683794 0.311778 0.216735 0.122734
C35   C     C_2   0.743501 0.431573 0.907580 0.527419
H23   H     H_    0.744386 0.497610 0.852057 0.045034
O17   O     O_2   0.841249 0.379739 0.931674 -0.432948
C36   C     C_2   0.601674 0.244090 0.921060 0.474023
H24   H     H_    0.549694 0.225445 0.863326 0.019127
O18   O     O_2   0.656139 0.143961 0.952173 -0.473988
C37   C     C_2   0.122395 0.240801 0.560555 0.493650
H25   H     H_    0.207989 0.242294 0.597016 0.104776
O19   O     O_2   0.074305 0.127789 0.545734 -0.558846
C38   C     C_2   0.116108 0.769229 0.537115 0.505621
H26   H     H_    0.082819 0.859073 0.501444 0.119162
O20   O     O_2   0.191805 0.786856 0.593998 -0.495529
O21   O     O_3   0.307321 0.144566 0.424612 -0.538521
C39   C     C_3   0.317075 0.172110 0.337643 -0.228925
H27   H     H_    0.238259 0.123090 0.303745 0.152534
H28   H     H_    0.405347 0.137627 0.309034 0.095655
H29   H     H_    0.304681 0.285866 0.326605 0.177825
O22   O     O_3   0.314175 0.854752 0.417286 -0.554466
C40   C     C_3   0.333029 0.836834 0.330175 -0.275887
H30   H     H_    0.315008 0.725953 0.313719 0.182992
H31   H     H_    0.427046 0.865338 0.308349 0.118338
H32   H     H_    0.262724 0.896596 0.293823 0.154721

loop_
_geom_bond_atom_site_label_1
_geom_bond_atom_site_label_2
_ccdc_geom_bond_type
C7    C37   S    
C11   C18   S    
C34   H20   S    
C40   H30   S    
C20   O12   S    
C30   H12   S    
C40   H32   S    
C35   H23   S    
C29   H9    S    
C16   H3    S    
C23   H1    S    
C2    C3    S    
C18   O6    A    
C16   N1    A    
C5    C6    T    
C4    C24   T    
C38   O20   D    
C30   H13   S    
C20   C25   S    
Cu2   O4    S    
O12   C30   S    
C23   C26   S    
C31   O13   D    
C6    C15   S    
C33   H17   S    
Cu1   O3    S    
C16   C17   A    
C17   N2    A    
C20   C27   S    
C29   H11   S    
C1    O1    A    
C21   C28   S    
C29   H10   S    
C28   O10   D    
C21   C22   S    
C9    H5    S    
C34   H21   S    
C31   H15   S    
C1    C12   S    
C19   O7    A    
C27   O9    D    
C7    C12   A    
O11   C29   S    
C3    C25   S    
C13   N2    A    
C10   H6    S    
C18   O5    A    
C14   N1    A    
C38   H26   S    
O16   C34   S    
C30   H14   S    
Cu1   N1    S    
C27   H7    S    
Cu2   O8    S    
O15   C33   S    
C32   O14   D    
Cu1   O5    S    
C39   H28   S    
C37   H25   S    
C20   C23   S    
Cu2   O2    S    
C8    C12   A    
C35   O17   D    
C2    C26   S    
C9    C11   A    
C15   O3    A    
C1    O2    A    
C5    C25   S    
C36   O18   D    
C28   H8    S    
C37   O19   D    
C17   H4    S    
C34   H22   S    
C21   O11   S    
C19   O8    A    
C39   H29   S    
C7    C9    A    
C21   C25   S    
C23   C32   S    
C22   H2    S    
C13   O21   S    
C3    O15   S    
C36   H24   S    
C4    C26   S    
C40   H31   S    
C32   H16   S    
C3    O16   S    
C2    C35   S    
C22   C31   S    
C39   H27   S    
Cu1   O1    S    
C33   H19   S    
Cu2   O6    S    
C19   C24   S    
C8    C38   S    
O22   C40   S    
C15   O4    A    
C2    C36   S    
C10   C11   A    
Cu1   O7    S    
Cu2   N2    S    
C8    C10   A    
C22   C26   S    
Cu1   Cu2   S    
C33   H18   S    
O21   C39   S    
C13   C14   A    
C14   O22   S    
