data_mof_unit_11671.cif
_audit_creation_date              2013-03-05T16:47:13-0500
_audit_creation_method            fapswitch 2.2
_symmetry_space_group_name_H-M    P1
_symmetry_Int_Tables_number       1
_space_group_crystal_system       triclinic
_cell_length_a                    22.294138
_cell_length_b                    22.331322
_cell_length_c                    22.290379
_cell_angle_alpha                 110.151699
_cell_angle_beta                  108.002799
_cell_angle_gamma                 110.480811
_cell_volume                      8515.85943869

loop_
_atom_site_label
_atom_site_type_symbol
_atom_site_description
_atom_site_fract_x
_atom_site_fract_y
_atom_site_fract_z
_atom_type_partial_charge
Zn1   Zn    Zn3+2 0.104790 0.561410 0.543380 0.987416
Zn2   Zn    Zn3+2 0.981970 0.438590 0.543380 0.983805
Zn3   Zn    Zn3+2 0.956640 0.438570 0.395200 0.993229
Zn4   Zn    Zn3+2 0.956600 0.561430 0.518040 0.997897
O1    O     O_3   0.000000 0.500000 0.500000 -0.489328
O2    O     O_R   0.909130 0.543010 0.573110 -0.616584
O3    O     O_R   0.133840 0.542970 0.469880 -0.640787
O4    O     O_R   0.072820 0.457010 0.615810 -0.645564
O5    O     O_R   0.884200 0.457010 0.341200 -0.635595
O6    O     O_R   0.926910 0.336030 0.469870 -0.643051
O7    O     O_R   0.030090 0.663980 0.573120 -0.658573
O8    O     O_R   0.909180 0.336020 0.366160 -0.633432
O9    O     O_R   0.133810 0.663960 0.590860 -0.648958
O10   O     O_R   0.158790 0.542980 0.615810 -0.647505
O11   O     O_R   0.884180 0.543000 0.427180 -0.608795
O12   O     O_R   0.926880 0.457030 0.590850 -0.649081
O13   O     O_R   0.030150 0.456990 0.366160 -0.642864
C1    C     C_R   0.900744 0.500131 0.599792 0.829216
C2    C     C_R   0.099486 0.500413 0.400402 0.831035
C3    C     C_R   0.140728 0.501110 0.640953 0.868444
C4    C     C_R   0.860074 0.500417 0.359573 0.868081
C5    C     C_R   0.900919 0.301039 0.400593 0.820218
C6    C     C_R   0.099567 0.699106 0.599141 0.823152
C7    C     C_3   0.176825 0.956282 0.665966 0.032368
C8    C     C_3   0.293821 0.957653 0.726542 0.027316
C9    C     C_3   0.341064 0.045141 0.771443 0.529660
H1    H     H_    0.236898 0.065192 0.675667 0.264347
H2    H     H_    0.288168 0.939353 0.670992 0.190684
C10   C     C_1   0.359249 0.222305 0.856827 -0.152400
C11   C     C_3   0.213008 0.927353 0.713129 -0.199277
C12   C     C_3   0.220218 0.042605 0.708601 -0.448979
C13   C     C_3   0.287536 0.074233 0.783221 -0.063609
C14   C     C_3   0.257675 0.046790 0.829639 0.185923
C15   C     C_3   0.209405 0.958322 0.787124 0.601190
C16   C     C_1   0.325893 0.155724 0.822126 0.078381
C17   C     C_1   0.171904 0.845314 0.671151 0.169449
C18   C     C_1   0.139060 0.778496 0.637940 -0.061045
H3    H     H_    0.120185 0.938462 0.657540 0.187726
H4    H     H_    0.182956 0.062363 0.718747 0.229498
H5    H     H_    0.307049 0.066238 0.880357 0.136686
C19   C     C_3   0.250852 0.574714 0.291141 -0.013478
C20   C     C_3   0.156168 0.436992 0.199657 0.746413
C21   C     C_3   0.202827 0.444211 0.158390 -0.032234
H6    H     H_    0.285613 0.592053 0.215156 0.119746
H7    H     H_    0.207168 0.580871 0.257635 0.149057
H8    H     H_    0.190243 0.474683 0.130821 0.115049
C22   C     C_1   0.360925 0.497109 0.138826 -0.040654
C23   C     C_3   0.211159 0.496729 0.284427 -0.157582
C24   C     C_3   0.302142 0.575096 0.256255 0.013035
C25   C     C_3   0.287450 0.494591 0.213385 -0.232077
C26   C     C_3   0.306793 0.463938 0.265760 0.096583
C27   C     C_3   0.272080 0.478854 0.316607 0.059813
C28   C     C_1   0.327773 0.495121 0.172183 0.168904
C29   C     C_1   0.170854 0.499417 0.325893 0.150184
C30   C     C_1   0.138625 0.500711 0.360355 -0.107472
H9    H     H_    0.315870 0.529317 0.369849 0.241053
H10   H     H_    0.281408 0.403612 0.230921 0.223725
C31   C     C_R   0.893206 0.387124 0.166752 -0.437902
H11   H     H_    0.945368 0.409283 0.168035 0.183864
C32   C     C_R   0.870880 0.435634 0.196728 0.510431
C33   C     C_R   0.805024 0.407350 0.198969 0.008638
C34   C     C_R   0.763016 0.331213 0.172335 -0.435532
H12   H     H_    0.714613 0.311248 0.178210 0.180391
C35   C     C_R   0.784242 0.281759 0.139755 0.488340
C36   C     C_R   0.848751 0.310316 0.135403 0.430086
C37   C     C_R   0.725928 0.458596 0.176869 -0.297388
H13   H     H_    0.707720 0.424862 0.119278 0.177458
C38   C     C_R   0.695688 0.501662 0.198234 -0.119121
C39   C     C_R   0.719180 0.544896 0.273591 -0.112580
C40   C     C_R   0.776381 0.547871 0.326313 0.411878
C41   C     C_R   0.804768 0.501753 0.303766 -0.146734
C42   C     C_R   0.778819 0.456980 0.228132 0.028392
C43   C     C_R   0.695804 0.651039 0.307283 -0.211614
H14   H     H_    0.734624 0.678407 0.292580 0.139126
C44   C     C_R   0.660441 0.685307 0.333783 -0.245649
H15   H     H_    0.671390 0.738341 0.338494 0.147287
C45   C     C_R   0.611345 0.651350 0.354719 0.575191
C46   C     C_R   0.596118 0.581798 0.346590 -0.163685
H16   H     H_    0.558231 0.555154 0.362411 0.219976
C47   C     C_R   0.630650 0.547019 0.319287 -0.184568
H17   H     H_    0.618909 0.493591 0.314113 0.169938
C48   C     C_R   0.680590 0.581278 0.299351 0.181420
C49   C     C_3   0.811162 0.578140 0.768040 -0.577461
C50   C     C_3   0.801787 0.459690 0.758347 0.264249
C51   C     C_3   0.756692 0.457061 0.800106 0.290732
H18   H     H_    0.806231 0.610234 0.870014 0.222412
H19   H     H_    0.870766 0.608316 0.807832 0.199451
H20   H     H_    0.861566 0.496045 0.799706 0.104920
H21   H     H_    0.714548 0.397936 0.776655 0.104044
C52   C     C_1   0.639286 0.499599 0.860875 -0.137506
C53   C     C_3   0.785605 0.497443 0.712565 0.072808
C54   C     C_3   0.767434 0.577792 0.810073 -0.348640
C55   C     C_3   0.713590 0.497280 0.786784 0.126134
C56   C     C_3   0.659193 0.454551 0.703611 -0.609735
C57   C     C_3   0.700758 0.455935 0.657748 0.737196
C58   C     C_1   0.672791 0.498474 0.827635 -0.000114
C59   C     C_1   0.827932 0.499210 0.673094 0.063863
C60   C     C_1   0.861447 0.500004 0.639847 -0.107107
H22   H     H_    0.622376 0.477036 0.692895 0.231065
H23   H     H_    0.804295 0.609586 0.739708 0.251017
H24   H     H_    0.736379 0.605854 0.798859 0.221067
H25   H     H_    0.622237 0.396214 0.686892 0.175647
C61   C     C_3   0.787945 0.042255 0.339873 -0.429613
C62   C     C_3   0.827223 0.044546 0.245258 0.030312
C63   C     C_3   0.780978 0.957333 0.198845 0.085764
H26   H     H_    0.844443 0.064666 0.382462 0.255189
H27   H     H_    0.827500 0.067219 0.207955 0.161902
H28   H     H_    0.816334 0.935631 0.217882 0.208990
C64   C     C_1   0.639753 0.778226 0.139604 -0.064274
C65   C     C_3   0.789955 0.073920 0.287752 -0.066832
C66   C     C_3   0.745645 0.955867 0.296189 0.277414
C67   C     C_3   0.713891 0.926604 0.212075 -0.098390
C68   C     C_3   0.661621 0.957635 0.192103 0.040440
C69   C     C_3   0.709772 0.043365 0.227955 0.222934
C70   C     C_1   0.673316 0.844930 0.172761 0.094223
C71   C     C_1   0.830721 0.155346 0.328697 0.050429
C72   C     C_1   0.862940 0.221955 0.361490 -0.113270
H29   H     H_    0.716413 0.051844 0.183555 0.168433
H30   H     H_    0.624986 0.945104 0.215697 0.107200
H31   H     H_    0.762931 0.061492 0.372296 0.107392
H32   H     H_    0.698334 0.936729 0.306557 0.061387
H33   H     H_    0.412054 0.814191 0.744844 0.192873
C73   C     C_R   0.351976 0.695247 0.679979 0.496347
C74   C     C_R   0.314585 0.630256 0.679837 -0.130978
H34   H     H_    0.301146 0.577871 0.637169 0.190495
C75   C     C_R   0.295758 0.631885 0.734683 -0.118378
C76   C     C_R   0.315168 0.700509 0.791626 0.267935
C77   C     C_R   0.360125 0.767204 0.797108 0.462161
C78   C     C_R   0.377338 0.763740 0.740569 -0.405636
C79   C     C_R   0.323142 0.563342 0.795283 0.276758
C80   C     C_R   0.303188 0.501178 0.804901 -0.183875
C81   C     C_R   0.229830 0.440806 0.761061 0.017525
C82   C     C_R   0.178469 0.442963 0.708634 -0.248451
H35   H     H_    0.122583 0.396205 0.675362 0.173763
C83   C     C_R   0.197997 0.503247 0.697536 -0.071079
C84   C     C_R   0.271113 0.564246 0.741098 -0.000466
C85   C     C_R   0.208241 0.313237 0.726689 -0.257790
H36   H     H_    0.233051 0.316321 0.692219 0.155741
C86   C     C_R   0.179004 0.247822 0.729069 0.497310
C87   C     C_R   0.147952 0.244290 0.774505 -0.299391
H37   H     H_    0.126251 0.193684 0.776257 0.187468
C88   C     C_R   0.142546 0.304365 0.815119 0.287955
C89   C     C_R   0.170389 0.368911 0.810834 -0.193683
H38   H     H_    0.166179 0.415567 0.841147 0.190368
C90   C     C_R   0.203774 0.373755 0.767361 0.042045
Zn5   Zn    Zn3+2 0.395190 0.438590 0.956630 0.999968
Zn6   Zn    Zn3+2 0.543350 0.561430 0.104810 0.995090
Zn7   Zn    Zn3+2 0.518020 0.561410 0.956640 1.076915
Zn8   Zn    Zn3+2 0.543380 0.438570 0.981970 0.955773
O14   O     O_3   0.499990 0.500000 0.000010 -0.502779
O15   O     O_R   0.615810 0.457000 0.072830 -0.654363
O16   O     O_R   0.341200 0.457020 0.884200 -0.639159
O17   O     O_R   0.469840 0.543010 0.133850 -0.611445
O18   O     O_R   0.573110 0.542970 0.909170 -0.615306
O19   O     O_R   0.590800 0.663980 0.133850 -0.657848
O20   O     O_R   0.469890 0.336020 0.926900 -0.643633
O21   O     O_R   0.573080 0.663970 0.030140 -0.576918
O22   O     O_R   0.366170 0.336040 0.909160 -0.632226
O23   O     O_R   0.366140 0.457030 0.030130 -0.634037
O24   O     O_R   0.590860 0.456990 0.926900 -0.647830
O25   O     O_R   0.615780 0.542990 0.158810 -0.637606
O26   O     O_R   0.427160 0.542990 0.884210 -0.583386
C91   C     C_R   0.639658 0.499918 0.140725 0.831766
C92   C     C_R   0.359423 0.499980 0.859760 0.854761
C93   C     C_R   0.400432 0.499559 0.099414 0.817876
C94   C     C_R   0.599561 0.500003 0.900525 0.814762
C95   C     C_R   0.599608 0.699017 0.099621 0.823845
C96   C     C_R   0.400122 0.301156 0.899565 0.816797
O27   O     O_3   0.125458 0.364018 0.190196 -0.591509
C97   C     C_3   0.058867 0.337550 0.192940 0.124957
H39   H     H_    0.013386 0.295560 0.136228 0.169290
H40   H     H_    0.046000 0.381024 0.216079 0.156122
C98   C     C_3   0.061178 0.299667 0.238465 -0.315789
H41   H     H_    0.075002 0.256410 0.217265 0.278763
H42   H     H_    0.104005 0.341396 0.296251 0.254614
C99   C     C_3   0.987803 0.263817 0.236407 -0.818617
H43   H     H_    0.971231 0.305357 0.254551 0.277808
H44   H     H_    0.992963 0.241326 0.273824 0.289353
H45   H     H_    0.944667 0.217476 0.180130 0.300706
O28   O     O_3   0.101453 0.455269 0.173574 -0.721889
C100  C     C_3   0.048331 0.406370 0.098105 0.036458
H46   H     H_    0.994297 0.379026 0.094460 0.139718
H47   H     H_    0.056824 0.361229 0.068928 0.203823
C101  C     C_3   0.044857 0.450432 0.058779 -0.322456
H48   H     H_    0.044138 0.500043 0.092092 0.231043
H49   H     H_    0.094068 0.469853 0.051964 0.239662
C102  C     C_3   0.976580 0.403420 0.983266 -0.925431
H50   H     H_    0.976049 0.353287 0.948925 0.300876
H51   H     H_    0.976610 0.436407 0.955665 0.260620
H52   H     H_    0.926125 0.386165 0.988418 0.236742
N1    N     N_R   0.182340 0.372095 0.099634 0.217073
O29   O     O_R   0.184697 0.319870 0.111945 -0.347269
O30   O     O_R   0.160951 0.359909 0.033156 -0.347980
N2    N     N_R   0.169220 0.924747 0.592187 0.204977
O31   O     O_R   0.109596 0.863187 0.538550 -0.417925
O32   O     O_R   0.218913 0.958972 0.578144 -0.354638
N3    N     N_R   0.246031 0.419070 0.332852 0.227531
O33   O     O_R   0.248996 0.435679 0.396092 -0.369057
O34   O     O_R   0.230130 0.352259 0.290539 -0.338035
N4    N     N_R   0.385839 0.491443 0.306648 0.252271
O35   O     O_R   0.418594 0.473338 0.270490 -0.407467
O36   O     O_R   0.418430 0.516026 0.376692 -0.338725
N5    N     N_R   0.289482 0.639686 0.365223 0.253902
O37   O     O_R   0.302229 0.633631 0.423218 -0.411570
O38   O     O_R   0.311153 0.705382 0.372979 -0.358912
N6    N     N_R   0.380529 0.629837 0.308480 0.293349
O39   O     O_R   0.412969 0.635890 0.371552 -0.306434
O40   O     O_R   0.417407 0.676738 0.293483 -0.338349
O41   O     O_3   0.870562 0.262828 0.104035 -0.632150
C103  C     C_3   0.855198 0.251026 0.033008 0.043891
H53   H     H_    0.897633 0.242029 0.022218 0.165117
H54   H     H_    0.858246 0.299493 0.027001 0.112680
C104  C     C_3   0.780050 0.181478 0.975375 -0.299530
H55   H     H_    0.778425 0.133055 0.980119 0.251769
H56   H     H_    0.736730 0.189329 0.984898 0.209030
C105  C     C_3   0.764013 0.165556 0.898135 -0.944708
H57   H     H_    0.764329 0.212967 0.892037 0.260182
H58   H     H_    0.709050 0.115194 0.857744 0.273768
H59   H     H_    0.805739 0.155818 0.886397 0.276119
O42   O     O_3   0.917584 0.511369 0.231433 -0.634894
C106  C     C_3   0.901749 0.536687 0.181755 0.075335
H60   H     H_    0.911802 0.593280 0.213364 0.181006
H61   H     H_    0.843286 0.502576 0.137282 0.120033
C107  C     C_3   0.952944 0.541198 0.148742 -0.372197
H62   H     H_    0.010338 0.568853 0.192832 0.257902
H63   H     H_    0.936729 0.484254 0.109348 0.204252
C108  C     C_3   0.949670 0.584580 0.109048 -0.914464
H64   H     H_    0.892298 0.560395 0.067203 0.268073
H65   H     H_    0.983347 0.582473 0.081495 0.268340
H66   H     H_    0.971571 0.643509 0.148703 0.277057
O43   O     O_3   0.748225 0.206851 0.117973 -0.600453
C109  C     C_3   0.670802 0.172156 0.079732 0.005106
H67   H     H_    0.649861 0.121601 0.027596 0.161944
H68   H     H_    0.650476 0.206220 0.063834 0.138142
C110  C     C_3   0.638901 0.148266 0.124684 -0.306983
H69   H     H_    0.651793 0.106429 0.131175 0.273008
H70   H     H_    0.664207 0.196749 0.180018 0.225727
C111  C     C_3   0.555877 0.114533 0.087398 -0.857841
H71   H     H_    0.541755 0.156319 0.082636 0.249450
H72   H     H_    0.534277 0.095992 0.120388 0.287809
H73   H     H_    0.529450 0.065942 0.031928 0.264304
N7    N     N_R   0.330597 0.922759 0.755552 0.253306
O44   O     O_R   0.349006 0.882807 0.715719 -0.455950
O45   O     O_R   0.352244 0.936906 0.822553 -0.281335
O46   O     O_3   0.799302 0.589907 0.400220 -0.605806
C112  C     C_3   0.838370 0.667017 0.425857 0.066722
H74   H     H_    0.804843 0.690642 0.439433 0.164764
H75   H     H_    0.850460 0.680477 0.385540 0.109084
C113  C     C_3   0.911037 0.704873 0.495636 -0.259725
H76   H     H_    0.901323 0.686309 0.533797 0.253338
H77   H     H_    0.948665 0.688887 0.481147 0.239180
C114  C     C_3   0.947541 0.789236 0.534259 -0.928875
H78   H     H_    0.958468 0.809336 0.497471 0.287453
H79   H     H_    0.000394 0.814615 0.584071 0.286529
H80   H     H_    0.911815 0.806996 0.551017 0.252125
O47   O     O_3   0.574769 0.683946 0.379130 -0.575111
C115  C     C_3   0.620190 0.737864 0.454606 0.066037
H81   H     H_    0.606476 0.782410 0.465212 0.198520
H82   H     H_    0.680019 0.765233 0.472186 0.102535
C116  C     C_3   0.604943 0.703682 0.501014 -0.295645
H83   H     H_    0.545348 0.676515 0.483161 0.297909
H84   H     H_    0.621045 0.660958 0.493320 0.220907
C117  C     C_3   0.647781 0.762482 0.582194 -0.887909
H85   H     H_    0.707675 0.789689 0.601503 0.259186
H86   H     H_    0.635888 0.735968 0.614312 0.289947
H87   H     H_    0.631481 0.805115 0.591804 0.266600
O48   O     O_3   0.783683 0.386552 0.711404 -0.612004
C118  C     C_3   0.837825 0.370301 0.741315 0.059038
H88   H     H_    0.809929 0.309578 0.719906 0.176310
H89   H     H_    0.864677 0.397721 0.802103 0.116070
C119  C     C_3   0.895671 0.390826 0.717170 -0.349554
H90   H     H_    0.868189 0.362600 0.656408 0.249181
H91   H     H_    0.925559 0.451717 0.739758 0.214177
C120  C     C_3   0.951112 0.368121 0.743866 -0.876021
H92   H     H_    0.979945 0.396521 0.804628 0.278195
H93   H     H_    0.992432 0.384110 0.725874 0.270000
H94   H     H_    0.923045 0.307101 0.720711 0.261944
O49   O     O_3   0.804984 0.492503 0.876469 -0.656381
C121  C     C_3   0.804337 0.440807 0.899822 0.039567
H95   H     H_    0.860417 0.465590 0.944769 0.180533
H96   H     H_    0.791930 0.387376 0.856627 0.122612
C122  C     C_3   0.750131 0.426287 0.929033 -0.301575
H97   H     H_    0.762275 0.479941 0.971334 0.229114
H98   H     H_    0.693354 0.398030 0.883622 0.223466
C123  C     C_3   0.754564 0.377684 0.962500 -0.995137
H99   H     H_    0.737551 0.321823 0.919822 0.271617
H100  H     H_    0.717478 0.371524 0.986477 0.275810
H101  H     H_    0.811279 0.403289 0.006618 0.256196
N8    N     N_R   0.687600 0.495011 0.617509 0.167167
O50   O     O_R   0.663706 0.540189 0.635867 -0.410364
O51   O     O_R   0.705376 0.488946 0.566189 -0.394333
O52   O     O_3   0.678321 0.381836 0.607719 -0.620982
C124  C     C_3   0.605910 0.342068 0.548368 0.122526
H102  H     H_    0.608480 0.346689 0.501038 0.196641
H103  H     H_    0.570014 0.362675 0.561152 0.142372
C125  C     C_3   0.571427 0.260405 0.526708 -0.361367
H104  H     H_    0.606147 0.238822 0.512721 0.244190
H105  H     H_    0.568896 0.255227 0.573835 0.237769
C126  C     C_3   0.494155 0.213846 0.461133 -0.901683
H106  H     H_    0.457950 0.233179 0.474693 0.280297
H107  H     H_    0.471076 0.154822 0.446418 0.278585
H108  H     H_    0.495479 0.217820 0.413186 0.265150
O53   O     O_3   0.794293 0.930869 0.319340 -0.597214
C127  C     C_3   0.773367 0.890385 0.353287 0.111357
H109  H     H_    0.799001 0.855563 0.350135 0.162836
H110  H     H_    0.713024 0.851074 0.323926 0.117549
C128  C     C_3   0.801698 0.943066 0.434192 -0.347548
H111  H     H_    0.862435 0.978382 0.462425 0.232365
H112  H     H_    0.778230 0.979834 0.439063 0.212723
C129  C     C_3   0.780729 0.900119 0.471826 -0.980107
H113  H     H_    0.720091 0.867593 0.446518 0.262910
H114  H     H_    0.803908 0.939548 0.530750 0.276158
H115  H     H_    0.802616 0.861994 0.467130 0.259920
N9    N     N_R   0.373134 0.068709 0.728574 0.195206
O54   O     O_R   0.415495 0.045759 0.712932 -0.359574
O55   O     O_R   0.365294 0.116421 0.711026 -0.400455
N10   N     N_R   0.904661 0.072219 0.293789 0.228000
O56   O     O_R   0.923024 0.044612 0.334286 -0.370669
O57   O     O_R   0.956077 0.120851 0.291693 -0.383281
N11   N     N_R   0.758376 0.929463 0.120792 0.235775
O58   O     O_R   0.738832 0.963255 0.088343 -0.397470
O59   O     O_R   0.763938 0.873691 0.084701 -0.343041
O60   O     O_3   0.673694 0.082809 0.245988 -0.625300
C130  C     C_3   0.666329 0.090584 0.308487 0.121955
H116  H     H_    0.718895 0.136217 0.358726 0.146474
H117  H     H_    0.648752 0.038671 0.310513 0.120292
C131  C     C_3   0.608072 0.112003 0.306775 -0.306609
H118  H     H_    0.624057 0.163841 0.304340 0.224842
H119  H     H_    0.554710 0.067174 0.256870 0.247641
C132  C     C_3   0.598941 0.124270 0.374343 -0.958066
H120  H     H_    0.582081 0.072868 0.377499 0.275009
H121  H     H_    0.555907 0.139143 0.370935 0.277894
H122  H     H_    0.651218 0.170220 0.424814 0.263626
O61   O     O_3   0.398502 0.067574 0.840338 -0.629054
C133  C     C_3   0.457138 0.142280 0.879932 0.137365
H123  H     H_    0.455397 0.172828 0.930052 0.125345
H124  H     H_    0.455486 0.172591 0.849693 0.175562
C134  C     C_3   0.530134 0.144281 0.902754 -0.290479
H125  H     H_    0.536537 0.120942 0.939431 0.209955
H126  H     H_    0.530581 0.109616 0.853409 0.263657
C135  C     C_3   0.594315 0.223586 0.942067 -1.004094
H127  H     H_    0.589064 0.247156 0.905516 0.293748
H128  H     H_    0.646669 0.223752 0.957545 0.257177
H129  H     H_    0.595981 0.259226 0.992470 0.264269
N12   N     N_R   0.611982 0.923609 0.113437 0.239912
O62   O     O_R   0.566417 0.945810 0.094018 -0.378784
O63   O     O_R   0.604402 0.865219 0.063692 -0.325199
O64   O     O_3   0.369045 0.688808 0.623785 -0.610133
C136  C     C_3   0.365081 0.739563 0.600302 0.151266
H130  H     H_    0.382446 0.731178 0.557994 0.230415
H131  H     H_    0.405385 0.798251 0.643803 0.140750
C137  C     C_3   0.286711 0.725663 0.565732 -0.354582
H132  H     H_    0.249014 0.667085 0.520730 0.268935
H133  H     H_    0.268254 0.735621 0.607215 0.247836
C138  C     C_3   0.282195 0.776317 0.535020 -0.770590
H134  H     H_    0.320052 0.835502 0.578683 0.293179
H135  H     H_    0.225341 0.765917 0.512193 0.262576
H136  H     H_    0.296808 0.765200 0.490716 0.303855
N13   N     N_R   0.292931 0.702445 0.846194 0.247429
O65   O     O_R   0.228415 0.651707 0.827681 -0.392115
O66   O     O_R   0.336258 0.755267 0.914357 -0.260685
O67   O     O_3   0.383288 0.834069 0.857149 -0.526258
C139  C     C_3   0.456707 0.890128 0.886277 0.172602
H137  H     H_    0.469359 0.938134 0.935920 0.199230
H138  H     H_    0.462821 0.911347 0.848985 0.159508
C140  C     C_3   0.513101 0.866824 0.909791 -0.384530
H139  H     H_    0.505920 0.847269 0.947935 0.324445
H140  H     H_    0.504852 0.820603 0.861686 0.232936
C141  C     C_3   0.591187 0.931475 0.946761 -0.772083
H141  H     H_    0.598397 0.952222 0.909320 0.224778
H142  H     H_    0.630483 0.912320 0.960341 0.329999
H143  H     H_    0.603562 0.977568 0.997900 0.277981
N14   N     N_R   0.396011 0.627327 0.842057 0.210334
O68   O     O_R   0.438888 0.645736 0.815123 -0.382444
O69   O     O_R   0.418334 0.668954 0.911019 -0.331733
O70   O     O_3   0.181173 0.186991 0.687690 -0.634458
C142  C     C_3   0.123541 0.149059 0.615035 0.049061
H144  H     H_    0.135332 0.182613 0.588569 0.159771
H145  H     H_    0.070000 0.137477 0.613596 0.138672
C143  C     C_3   0.116709 0.074882 0.571346 -0.327976
H146  H     H_    0.169674 0.084831 0.572631 0.260742
H147  H     H_    0.103768 0.040484 0.596618 0.224379
C144  C     C_3   0.056084 0.032327 0.491856 -0.819803
H148  H     H_    0.002327 0.020579 0.489215 0.253011
H149  H     H_    0.052473 0.978759 0.461833 0.281052
H150  H     H_    0.068176 0.064916 0.464742 0.285921
O71   O     O_3   0.133616 0.933871 0.765549 -0.663342
C145  C     C_3   0.115822 0.943925 0.822840 0.192288
H151  H     H_    0.093240 0.981435 0.826592 0.175596
H152  H     H_    0.163211 0.970036 0.877832 0.160951
C146  C     C_3   0.056186 0.869208 0.803643 -0.362170
H153  H     H_    0.007709 0.845173 0.750086 0.229058
H154  H     H_    0.076822 0.830108 0.798526 0.270536
C147  C     C_3   0.032573 0.877577 0.861991 -0.904712
H155  H     H_    0.079945 0.900180 0.915755 0.280898
H156  H     H_    0.989215 0.822477 0.846323 0.273331
H157  H     H_    0.010223 0.915312 0.867091 0.266538
N15   N     N_R   0.107578 0.299276 0.859142 0.234879
O72   O     O_R   0.095406 0.351447 0.890354 -0.378566
O73   O     O_R   0.085841 0.241538 0.866866 -0.377439
N16   N     N_R   0.235414 0.927240 0.831925 0.209054
O74   O     O_R   0.282648 0.969567 0.901657 -0.386243
O75   O     O_R   0.202346 0.855810 0.805197 -0.361585
O76   O     O_3   0.215099 0.078549 0.845413 -0.627148
C148  C     C_3   0.250876 0.134483 0.919859 0.032875
H158  H     H_    0.311019 0.169674 0.942490 0.131797
H159  H     H_    0.241993 0.108310 0.953050 0.156737
C149  C     C_3   0.218434 0.184904 0.925993 -0.309770
H160  H     H_    0.223403 0.207229 0.889131 0.244888
H161  H     H_    0.159266 0.152214 0.908382 0.246464
C150  C     C_3   0.258130 0.249830 0.004126 -0.785659
H162  H     H_    0.252428 0.229225 0.042000 0.273255
H163  H     H_    0.233895 0.285740 0.006088 0.320956
H164  H     H_    0.317264 0.283739 0.022379 0.231634

loop_
_geom_bond_atom_site_label_1
_geom_bond_atom_site_label_2
_geom_bond_distance
_ccdc_geom_bond_type
C146  C147  1.525841 S    
N2    O32   1.302388 A    
C75   C76   1.415271 A    
C14   O76   1.425892 S    
C150  H163  1.109312 S    
C110  H70   1.110907 S    
C105  H59   1.110811 S    
C8    N7    1.471107 S    
N5    O38   1.301256 A    
C122  H97   1.111205 S    
C114  H79   1.110352 S    
C77   O67   1.394171 S    
C22   C93   1.424185 S    
C38   C91   1.465230 S    
C31   C32   1.397082 A    
C119  H90   1.111613 S    
C120  H92   1.111116 S    
N3    O34   1.301864 A    
C142  C143  1.528306 S    
C34   C35   1.412970 A    
Zn5   O14   1.929301 S    
C127  C128  1.532743 S    
C37   C42   1.386636 A    
O19   C95   1.276430 A    
C130  H116  1.110272 S    
N7    O45   1.298399 A    
C26   H10   1.100980 S    
C50   C53   1.568568 S    
O24   C94   1.278701 A    
Zn6   O19   1.908554 S    
C112  H74   1.111021 S    
C22   C28   1.200213 T    
C141  H143  1.110598 S    
C76   N13   1.441734 S    
C75   C84   1.490126 S    
O46   C112  1.419551 S    
C43   C44   1.398082 A    
C45   O47   1.381152 S    
C19   C24   1.568327 S    
C62   C63   1.572777 S    
O25   C91   1.262886 A    
O26   C92   1.271078 A    
C100  H47   1.110400 S    
C129  H114  1.110246 S    
C25   C28   1.470416 S    
C132  H120  1.110799 S    
H1    C12   1.106458 S    
O60   C130  1.411584 S    
C83   C84   1.418426 A    
Zn6   O14   1.934306 S    
C87   H37   1.082679 S    
C133  H124  1.109199 S    
N6    O39   1.300012 A    
N9    O54   1.302023 A    
C45   C46   1.399825 A    
C50   O48   1.423192 S    
C44   H15   1.081369 S    
C9    N9    1.485539 S    
O53   C127  1.414900 S    
C137  H132  1.108690 S    
C109  H68   1.112336 S    
C144  H148  1.110997 S    
C98   H42   1.108725 S    
C86   O70   1.381513 S    
C103  H54   1.117147 S    
C125  H104  1.111480 S    
C63   C67   1.577558 S    
C149  H161  1.111583 S    
O3    C2    1.277326 A    
C49   H23   1.111952 S    
C15   N16   1.488809 S    
O71   C145  1.420037 S    
C65   C71   1.467224 S    
C117  H86   1.110409 S    
C50   H20   1.119312 S    
Zn4   O1    1.941394 S    
C35   O43   1.392198 S    
C86   C87   1.400524 A    
C124  C125  1.527297 S    
C49   C53   1.552996 S    
C10   C16   1.200130 T    
C11   C17   1.478390 S    
Zn7   O26   1.953675 S    
N14   O69   1.301386 A    
C79   C80   1.415201 A    
C123  H100  1.110121 S    
C148  H158  1.114128 S    
C35   C36   1.404089 A    
C62   C65   1.567654 S    
O5    C4    1.274427 A    
C80   C92   1.471807 S    
C130  C131  1.527660 S    
O7    C6    1.277442 A    
O64   C136  1.420119 S    
Zn3   O13   1.908262 S    
C121  H96   1.113589 S    
C39   C40   1.404377 A    
Zn6   O17   1.908264 S    
C147  H155  1.110945 S    
C40   O46   1.390957 S    
C133  H123  1.111399 S    
C23   C27   1.578902 S    
C24   N6    1.473289 S    
C56   H25   1.113300 S    
N4    O36   1.302329 A    
N13   O65   1.301296 A    
C82   C83   1.396038 A    
C19   H7    1.113564 S    
C115  H82   1.116967 S    
C62   H27   1.113035 S    
C89   H38   1.083272 S    
C114  H78   1.110766 S    
C9    C13   1.591773 S    
C136  H130  1.108615 S    
C66   C67   1.566885 S    
C77   C78   1.412106 A    
N16   O74   1.302982 A    
C73   C74   1.396367 A    
C113  H76   1.111902 S    
C106  H60   1.111078 S    
C61   C65   1.558155 S    
C81   C90   1.478452 S    
C10   C96   1.422411 S    
C17   C18   1.204125 T    
Zn7   O14   1.935119 S    
Zn8   O15   1.953917 S    
C46   C47   1.395945 A    
O67   C139  1.420218 S    
O20   C96   1.279301 A    
C137  C138  1.526110 S    
O8    C5    1.277912 A    
C101  H48   1.109942 S    
O9    C6    1.280402 A    
C115  H81   1.111041 S    
C54   C55   1.550635 S    
C39   C48   1.484268 S    
C51   C55   1.558702 S    
C125  C126  1.525859 S    
C145  H151  1.111287 S    
C149  C150  1.525810 S    
C65   C69   1.576297 S    
C127  H110  1.114580 S    
C37   H13   1.085269 S    
O47   C115  1.415496 S    
O42   C106  1.414180 S    
N8    O50   1.302117 A    
C135  H128  1.108397 S    
C14   H5    1.111895 S    
C11   C15   1.593730 S    
O76   C148  1.416548 S    
C47   C48   1.402272 A    
C148  C149  1.527921 S    
C20   O28   1.437398 S    
C131  H119  1.111835 S    
O61   C133  1.420284 S    
C8    C9    1.577713 S    
O23   C93   1.273970 A    
N11   O59   1.301211 A    
C124  H102  1.111394 S    
Zn3   O5    1.957528 S    
C31   C36   1.403219 A    
C12   C13   1.556798 S    
C7    N2    1.474910 S    
C139  H137  1.109683 S    
O41   C103  1.416855 S    
C20   C23   1.593683 S    
C118  H88   1.110789 S    
C44   C45   1.403441 A    
C140  C141  1.526024 S    
C114  H80   1.110881 S    
C108  H65   1.110366 S    
C136  C137  1.538275 S    
C134  H126  1.111155 S    
C143  C144  1.526454 S    
C139  C140  1.537760 S    
N15   O73   1.301619 A    
Zn2   O1    1.935303 S    
C69   O60   1.426909 S    
Zn2   O12   1.911708 S    
C74   C75   1.403330 A    
N1    O29   1.301019 A    
C146  H154  1.109958 S    
C138  H134  1.109834 S    
C29   C30   1.203143 T    
C127  H109  1.111026 S    
C113  C114  1.526178 S    
C100  C101  1.532431 S    
O17   C93   1.275553 A    
C88   C89   1.406222 A    
C116  H83   1.111051 S    
C73   O64   1.394006 S    
C21   C25   1.569270 S    
C52   C58   1.204150 T    
Zn5   O22   1.911298 S    
C103  C104  1.530807 S    
Zn8   O24   1.908640 S    
C122  H98   1.110850 S    
C101  C102  1.527350 S    
C115  C116  1.532356 S    
C104  H56   1.108204 S    
C41   C42   1.416903 A    
C145  C146  1.529325 S    
C110  C111  1.525191 S    
C120  H93   1.110738 S    
Zn7   O21   1.908029 S    
C57   N8    1.485864 S    
N3    O33   1.301549 A    
C126  H108  1.110866 S    
C142  H145  1.116828 S    
C26   N4    1.475638 S    
C53   C57   1.579331 S    
C122  C123  1.526986 S    
C130  H117  1.108457 S    
C24   C25   1.569467 S    
O49   C121  1.418086 S    
C143  H146  1.111589 S    
Zn1   O10   1.956642 S    
C97   C98   1.528977 S    
C141  H142  1.108880 S    
C112  C113  1.528567 S    
C119  C120  1.526681 S    
C49   H19   1.113370 S    
C5    C72   1.425608 S    
C120  H94   1.110801 S    
C43   H14   1.083109 S    
C61   H31   1.104871 S    
C107  H62   1.111765 S    
O21   C95   1.278948 A    
O22   C96   1.274143 A    
C117  H85   1.110955 S    
C104  H55   1.111549 S    
O6    C5    1.276558 A    
C8    H2    1.111275 S    
C85   C86   1.403602 A    
C111  H73   1.109641 S    
C132  H121  1.109892 S    
C4    C41   1.473713 S    
Zn1   O1    1.929118 S    
C85   C90   1.401427 A    
C69   H29   1.112354 S    
C87   C88   1.406284 A    
C106  C107  1.531066 S    
C32   O42   1.382504 S    
N6    O40   1.301226 A    
C135  H129  1.111083 S    
N9    O55   1.301546 A    
C61   C66   1.556945 S    
N10   O57   1.300940 A    
C140  H139  1.109196 S    
C102  H52   1.110845 S    
C68   H30   1.108590 S    
C38   C39   1.418769 A    
C132  H122  1.110932 S    
C137  H133  1.109634 S    
C110  H69   1.109855 S    
C40   C41   1.417676 A    
N12   O63   1.300776 A    
H33   C78   1.071295 S    
C125  H105  1.111672 S    
N2    O31   1.301010 A    
C52   C94   1.431602 S    
C150  H164  1.111087 S    
Zn7   O18   1.911712 S    
C116  C117  1.525698 S    
C59   C60   1.204126 T    
C111  H72   1.110492 S    
C128  H111  1.111547 S    
O10   C3    1.259989 A    
C50   C51   1.566989 S    
Zn4   O2    1.908488 S    
Zn6   O25   1.957370 S    
C51   H21   1.118962 S    
C31   H11   1.079375 S    
C98   H41   1.111408 S    
C26   C27   1.567459 S    
C32   C33   1.405423 A    
C126  H106  1.110844 S    
N1    O30   1.300699 A    
C123  H99   1.110498 S    
C20   O27   1.435970 S    
O48   C118  1.417391 S    
C25   C26   1.569572 S    
C129  H113  1.110182 S    
O4    C3    1.275878 A    
C53   C59   1.475508 S    
Zn4   O7    1.905223 S    
C63   N11   1.469959 S    
C9    O61   1.433367 S    
C147  H156  1.110522 S    
C54   H24   1.113148 S    
C33   C42   1.477702 S    
C68   N12   1.473371 S    
C82   H35   1.085125 S    
C20   C21   1.590760 S    
C62   N10   1.473441 S    
C80   C81   1.417289 A    
C134  C135  1.527757 S    
C107  C108  1.525420 S    
C43   C48   1.405918 A    
O28   C100  1.422228 S    
C143  H147  1.110909 S    
C68   C69   1.559985 S    
C104  C105  1.525531 S    
C2    C30   1.428220 S    
C8    C11   1.570918 S    
C111  H71   1.110982 S    
Zn1   O3    1.910716 S    
Zn2   O4    1.953518 S    
C105  H58   1.110395 S    
Zn3   O1    1.934305 S    
C147  H157  1.110927 S    
C133  C134  1.526725 S    
C106  H61   1.117152 S    
C13   C14   1.570500 S    
C99   H45   1.110314 S    
C7    C12   1.555487 S    
C102  H50   1.110892 S    
C6    C18   1.430687 S    
Zn8   O14   1.941213 S    
C97   H40   1.110018 S    
C109  H67   1.111239 S    
C101  H49   1.109175 S    
C56   C57   1.578604 S    
C144  H150  1.110868 S    
C149  H160  1.111682 S    
C145  H152  1.111171 S    
C97   H39   1.109512 S    
C150  H162  1.110703 S    
C51   O49   1.423221 S    
O18   C94   1.282326 A    
C27   N3    1.473540 S    
C129  H115  1.111225 S    
H6    C24   1.116437 S    
C117  H87   1.110871 S    
C37   C38   1.393851 A    
N5    O37   1.300178 A    
C55   C56   1.549185 S    
C66   H32   1.118867 S    
O27   C97   1.422713 S    
C146  H153  1.111916 S    
C135  H127  1.110921 S    
C23   C29   1.475903 S    
C49   C54   1.546802 S    
C128  C129  1.524807 S    
C34   H12   1.082252 S    
O52   C124  1.418475 S    
Zn8   O20   1.905230 S    
C15   O71   1.433714 S    
C123  H101  1.109409 S    
C148  H159  1.111629 S    
C100  H46   1.105079 S    
C71   C72   1.200584 T    
C121  C122  1.532042 S    
Zn3   O8    1.908559 S    
C64   C95   1.427255 S    
O13   C2    1.274417 A    
C89   C90   1.402290 A    
C108  H64   1.108946 S    
N4    O35   1.300859 A    
C7    H3    1.112837 S    
C19   N5    1.472876 S    
C36   O41   1.382060 S    
C21   N1    1.476380 S    
C136  H131  1.107701 S    
C73   C78   1.408073 A    
C139  H138  1.109220 S    
C33   C34   1.402476 A    
C67   C68   1.579052 S    
N16   O75   1.301403 A    
N7    O44   1.299401 A    
C7    C11   1.575321 S    
O2    C1    1.281177 A    
C63   H28   1.112866 S    
C112  H75   1.117943 S    
C113  H77   1.110426 S    
C13   C16   1.469772 S    
C105  H57   1.110855 S    
C116  H84   1.110652 S    
C46   H16   1.081137 S    
C81   C82   1.389024 A    
Zn5   O23   1.910719 S    
C109  C110  1.528970 S    
C128  H112  1.110852 S    
C144  H149  1.110438 S    
C118  C119  1.532400 S    
C121  H95   1.110272 S    
C138  H136  1.108866 S    
C14   C15   1.597206 S    
N13   O66   1.301376 A    
C57   O52   1.427041 S    
C126  H107  1.110363 S    
C142  H144  1.114082 S    
O16   C92   1.267421 A    
Zn5   O16   1.956541 S    
C99   H43   1.110990 S    
C79   N14   1.438771 S    
C134  H125  1.110804 S    
C55   C58   1.472875 S    
O15   C91   1.279954 A    
Zn1   O9    1.911310 S    
Zn2   O6    1.908083 S    
O70   C142  1.413551 S    
C141  H141  1.110972 S    
C98   C99   1.526726 S    
C119  H91   1.110558 S    
C79   C84   1.404232 A    
C118  H89   1.113425 S    
C47   H17   1.083202 S    
C107  H63   1.109737 S    
C131  C132  1.526122 S    
C88   N15   1.439187 S    
C85   H36   1.083309 S    
N11   O58   1.301484 A    
Zn4   O11   1.953824 S    
C124  H103  1.114328 S    
H18   C54   1.112826 S    
N14   O68   1.301137 A    
C131  H118  1.112026 S    
C56   H22   1.110278 S    
C66   O53   1.424930 S    
C99   H44   1.109428 S    
N8    O51   1.301943 A    
C19   C23   1.580656 S    
C12   H4    1.113453 S    
C61   H26   1.109315 S    
C138  H135  1.110558 S    
C3    C83   1.464149 S    
N10   O56   1.301611 A    
C21   H8    1.111079 S    
C140  H140  1.109816 S    
C102  H51   1.110564 S    
C64   C70   1.201914 T    
C27   H9    1.106308 S    
O11   C4    1.272181 A    
C108  H66   1.110668 S    
O12   C1    1.279737 A    
C103  H53   1.110668 S    
O43   C109  1.416279 S    
N15   O72   1.301737 A    
C1    C60   1.431158 S    
N12   O62   1.301376 A    
C67   C70   1.472073 S    
C76   C77   1.411412 A    
C74   H34   1.083884 S    
