data_mof_unit_64737.cif
_audit_creation_date              2012-12-10T17:32:01-0500
_audit_creation_method            fapswitch 2.2
_symmetry_space_group_name_H-M    P1
_symmetry_Int_Tables_number       1
_space_group_crystal_system       triclinic
_cell_length_a                    21.53732
_cell_length_b                    21.538138
_cell_length_c                    55.803519
_cell_angle_alpha                 90.051354
_cell_angle_beta                  90.131956
_cell_angle_gamma                 90.09372
_cell_volume                      25885.6749895

loop_
_atom_site_label
_atom_site_type_symbol
_atom_type_description
_atom_site_fract_x
_atom_site_fract_y
_atom_site_fract_z
_atom_type_partial_charge
C1    C     C_R   0.998638 0.120265 0.000010 0.756006
C2    C     C_3   0.998585 0.189224 0.000093 0.151772
C3    C     C_R   0.000573 0.499691 0.275421 0.073184
C4    C     C_R   0.499992 0.000025 0.046252 0.807920
C5    C     C_R   0.000064 0.500000 0.046256 0.808229
C6    C     C_R   0.999973 0.500025 0.546252 0.811351
C7    C     C_R   0.500063 0.999976 0.546256 0.812341
C8    C     C_R   0.379917 0.999954 0.000543 0.753979
C9    C     C_R   0.999963 0.379923 0.000661 0.754258
C10   C     C_R   0.620089 0.000042 0.000566 0.753939
C11   C     C_R   0.000044 0.620082 0.000649 0.754239
C12   C     C_R   0.879906 0.499954 0.499547 0.753650
C13   C     C_3   0.810779 0.998533 0.000023 0.152806
C14   C     C_R   0.499961 0.879913 0.499458 0.753874
C15   C     C_R   0.120092 0.500045 0.500527 0.753939
C16   C     C_R   0.500039 0.120086 0.500606 0.754206
C17   C     C_R   0.081109 0.577718 0.801190 -0.148357
C18   C     C_R   0.424015 0.917149 0.800994 -0.146884
C19   C     C_R   0.917738 0.423022 0.800969 -0.148356
C20   C     C_R   0.576919 0.082206 0.801218 -0.146883
C21   C     C_R   0.581007 0.077909 0.301188 -0.148372
C22   C     C_R   0.924109 0.417139 0.300993 -0.146912
C23   C     C_R   0.417864 0.922972 0.300969 -0.148390
C24   C     C_3   0.001392 0.810779 0.000057 0.151640
C25   C     C_R   0.076937 0.582266 0.301219 -0.146896
C26   C     C_R   0.500007 0.999975 0.953769 0.795437
C27   C     C_R   0.999937 0.500000 0.953765 0.796037
C28   C     C_R   0.000026 0.499975 0.453768 0.792003
C29   C     C_R   0.499937 0.000024 0.453764 0.791902
C30   C     C_R   0.040361 0.539133 0.813729 -0.018939
C31   C     C_R   0.462098 0.958341 0.813644 -0.019112
C32   C     C_R   0.958506 0.461562 0.813619 -0.018935
C33   C     C_R   0.538758 0.041054 0.813756 -0.019107
C34   C     C_R   0.540312 0.039269 0.313728 -0.018964
C35   C     C_3   0.689215 0.501558 0.500055 0.153002
C36   C     C_R   0.962178 0.458343 0.313644 -0.019073
C37   C     C_R   0.458572 0.961577 0.313619 -0.018885
C38   C     C_R   0.038801 0.541091 0.313757 -0.019126
C39   C     C_R   0.999432 0.500361 0.800898 -0.051756
C40   C     C_R   0.500464 0.999681 0.800925 -0.051793
C41   C     C_R   0.499444 0.000431 0.300897 -0.051764
C42   C     C_R   0.000519 0.499706 0.300925 -0.051799
C43   C     C_R   0.453201 0.966896 0.237264 -0.006628
C44   C     C_R   0.033798 0.546238 0.237402 -0.006291
C45   C     C_R   0.545816 0.033946 0.237384 -0.006628
C46   C     C_3   0.498531 0.689215 0.500019 0.151852
C47   C     C_R   0.967460 0.453138 0.237297 -0.006275
C48   C     C_R   0.953118 0.466922 0.737265 -0.006627
C49   C     C_R   0.533797 0.046165 0.737400 -0.006293
C50   C     C_R   0.045827 0.533840 0.737384 -0.006629
C51   C     C_R   0.467410 0.953099 0.737298 -0.006271
C52   C     C_R   0.499589 0.000365 0.199100 -0.163477
C53   C     C_R   0.000634 0.499718 0.199119 -0.162820
C54   C     C_R   0.999539 0.500342 0.699100 -0.163465
C55   C     C_R   0.500624 0.999645 0.699118 -0.162806
C56   C     C_R   0.499534 0.000404 0.224648 0.065310
C57   C     C_3   0.310782 0.498436 0.500018 0.152626
C58   C     C_R   0.000634 0.499696 0.224668 0.068417
C59   C     C_R   0.999493 0.500370 0.724648 0.065315
C60   C     C_R   0.500613 0.999635 0.724668 0.068419
C61   C     C_R   0.082625 0.576896 0.776282 -0.207654
C62   C     C_R   0.424926 0.915640 0.776086 -0.207033
C63   C     C_R   0.916229 0.423885 0.776059 -0.207627
C64   C     C_R   0.576136 0.083660 0.776309 -0.207027
C65   C     C_R   0.582534 0.077077 0.276280 -0.207658
C66   C     C_R   0.925011 0.415641 0.276085 -0.207051
C67   C     C_R   0.416362 0.923823 0.276059 -0.207647
C68   C     C_3   0.501502 0.310784 0.500053 0.151800
C69   C     C_R   0.076141 0.583733 0.276310 -0.207036
C70   C     C_R   0.405041 0.938630 0.223988 -0.283656
C71   C     C_R   0.062241 0.594284 0.224231 -0.287658
C72   C     C_R   0.594022 0.062189 0.224230 -0.283661
C73   C     C_R   0.939056 0.405091 0.224031 -0.287724
C74   C     C_R   0.904913 0.438730 0.723990 -0.283634
C75   C     C_R   0.562274 0.094188 0.724228 -0.287653
C76   C     C_R   0.094067 0.562023 0.724230 -0.283660
C77   C     C_R   0.438987 0.905061 0.724033 -0.287708
C78   C     C_R   0.402752 0.941530 0.199026 0.510401
C79   C     C_3   0.310912 0.000069 0.000584 0.147786
C80   C     C_R   0.062455 0.594729 0.199230 0.510434
C81   C     C_R   0.596418 0.059211 0.199273 0.510427
C82   C     C_R   0.938839 0.404689 0.199030 0.510444
C83   C     C_R   0.902622 0.441642 0.699028 0.510378
C84   C     C_R   0.562499 0.094621 0.699227 0.510427
C85   C     C_R   0.096448 0.559056 0.699273 0.510420
C86   C     C_R   0.438779 0.904650 0.699032 0.510427
C87   C     C_R   0.451234 0.970520 0.186262 -0.093891
C88   C     C_R   0.031111 0.547707 0.186386 -0.092965
C89   C     C_R   0.548001 0.030165 0.186385 -0.093892
C90   C     C_3   0.999789 0.310915 0.000683 0.145534
C91   C     C_R   0.970148 0.451757 0.186286 -0.092899
C92   C     C_R   0.951140 0.470569 0.686262 -0.093928
C93   C     C_R   0.531133 0.047611 0.686384 -0.092943
C94   C     C_R   0.047987 0.530083 0.686385 -0.093872
C95   C     C_R   0.470116 0.951696 0.686287 -0.092939
C96   C     C_R   0.959761 0.461673 0.838817 0.532903
C97   C     C_R   0.538538 0.039857 0.838950 0.532995
C98   C     C_R   0.039154 0.538926 0.838924 0.532856
C99   C     C_R   0.462164 0.959615 0.838838 0.533020
C100  C     C_R   0.459820 0.961699 0.338816 0.532831
C101  C     C_3   0.689097 0.999942 0.000570 0.147714
C102  C     C_R   0.038590 0.539884 0.338950 0.533010
C103  C     C_R   0.539098 0.039069 0.338922 0.532884
C104  C     C_R   0.962251 0.459609 0.338838 0.532947
C105  C     C_R   0.955716 0.463437 0.762719 0.067846
C106  C     C_R   0.536996 0.043787 0.762862 0.068712
C107  C     C_R   0.043170 0.537338 0.762834 0.067849
C108  C     C_R   0.464122 0.955498 0.762753 0.068714
C109  C     C_R   0.455795 0.963426 0.262719 0.067851
C110  C     C_R   0.037012 0.543848 0.262863 0.068713
C111  C     C_R   0.543142 0.037454 0.262834 0.067849
C112  C     C_R   0.879735 0.998519 0.999984 0.755913
C113  C     C_3   0.000213 0.689091 0.000658 0.145526
C114  C     C_R   0.964181 0.455523 0.262753 0.068719
C115  C     C_3   0.214552 0.048269 0.018989 -0.374423
C116  C     C_3   0.948785 0.214078 0.017701 -0.377383
C117  C     C_3   0.785775 0.950352 0.018300 -0.375681
C118  C     C_3   0.051469 0.786018 0.017639 -0.377500
C119  C     C_3   0.715854 0.519007 0.525134 -0.351239
C120  C     C_3   0.483819 0.715787 0.525333 -0.349260
C121  C     C_3   0.285712 0.451152 0.518632 -0.374850
C122  C     C_3   0.550581 0.285938 0.518039 -0.375858
C123  C     C_3   0.286150 0.046171 0.019693 -0.371598
C124  C     C_3   0.810898 0.500069 0.499549 0.148550
C125  C     C_3   0.950580 0.285682 0.018508 -0.366561
C126  C     C_3   0.714204 0.952350 0.019076 -0.370523
C127  C     C_3   0.049700 0.714422 0.018452 -0.366536
C128  C     C_3   0.787406 0.519635 0.524616 -0.387534
C129  C     C_3   0.483036 0.787325 0.524800 -0.385471
C130  C     C_3   0.214142 0.453220 0.519375 -0.371425
C131  C     C_3   0.548689 0.214345 0.518832 -0.367623
C132  C     C_3   0.212696 0.935853 0.006510 -0.398687
C133  C     C_3   0.063068 0.213014 0.008241 -0.396972
C134  C     C_3   0.787330 0.063728 0.007266 -0.397725
C135  C     C_3   0.499784 0.810902 0.499454 0.146081
C136  C     C_3   0.937036 0.787017 0.008239 -0.396790
C137  C     C_3   0.712643 0.436047 0.493250 -0.397628
C138  C     C_3   0.563204 0.712955 0.492213 -0.398272
C139  C     C_3   0.287362 0.563977 0.506783 -0.397280
C140  C     C_3   0.436690 0.287060 0.507691 -0.397599
C141  C     C_3   0.215579 0.019995 0.975146 -0.353045
C142  C     C_3   0.984444 0.215735 0.974710 -0.351086
C143  C     C_3   0.784086 0.982177 0.974842 -0.352646
C144  C     C_3   0.015142 0.784154 0.974668 -0.351165
C145  C     C_3   0.714293 0.548925 0.481475 -0.376696
C146  C     C_3   0.189100 0.499932 0.500532 0.147698
C147  C     C_3   0.449135 0.714048 0.482162 -0.377483
C148  C     C_3   0.284126 0.480879 0.474953 -0.353235
C149  C     C_3   0.516656 0.284203 0.474779 -0.351713
C150  C     C_2   0.455788 0.110267 0.122714 0.875887
C151  C     C_2   0.111946 0.459697 0.122785 0.866829
C152  C     C_2   0.543777 0.890132 0.122829 0.875910
C153  C     C_2   0.888972 0.540086 0.122799 0.866640
C154  C     C_2   0.955814 0.610294 0.622713 0.876028
C155  C     C_2   0.611913 0.959529 0.622780 0.866922
C156  C     C_2   0.043623 0.390087 0.622830 0.875894
C157  C     C_3   0.500218 0.189095 0.500617 0.145407
C158  C     C_2   0.388995 0.040072 0.622802 0.866605
C159  C     C_3   0.302041 0.951608 0.187722 -0.224021
C160  C     C_3   0.155388 0.633906 0.187455 -0.217130
C161  C     C_3   0.697186 0.049129 0.188216 -0.224143
C162  C     C_3   0.845920 0.365459 0.187069 -0.217069
C163  C     C_3   0.801927 0.451877 0.687725 -0.223902
C164  C     C_3   0.655459 0.133736 0.687454 -0.217086
C165  C     C_3   0.197194 0.548830 0.688206 -0.224106
C166  C     C_3   0.345844 0.865462 0.687068 -0.216950
C167  C     C_3   0.284233 0.934433 0.006198 -0.346083
C168  C     C_3   0.064378 0.284552 0.008017 -0.349168
C169  C     C_3   0.715788 0.065115 0.006999 -0.346960
C170  C     C_3   0.935737 0.715480 0.008027 -0.349277
C171  C     C_3   0.784178 0.434639 0.493540 -0.347592
C172  C     C_R   0.001335 0.879735 0.999995 0.756438
C173  C     C_3   0.564535 0.784487 0.492461 -0.350502
C174  C     C_3   0.215825 0.565386 0.506498 -0.346688
C175  C     C_3   0.435347 0.215528 0.507438 -0.348744
C176  C     C_3   0.287109 0.020568 0.975651 -0.391056
C177  C     C_3   0.983645 0.287256 0.975249 -0.389496
C178  C     C_3   0.712546 0.981485 0.975377 -0.391120
C179  C     C_3   0.015947 0.712628 0.975211 -0.389359
C180  C     C_3   0.785858 0.546861 0.480735 -0.375021
C181  C     C_3   0.450992 0.785637 0.481369 -0.370054
C182  C     C_3   0.212580 0.480257 0.475477 -0.390695
C183  C     C_R   0.120262 0.001647 0.000028 0.755927
C184  C     C_3   0.517427 0.212671 0.475317 -0.388730
C185  C     C_R   0.480751 0.052827 0.085345 -0.243840
C186  C     C_R   0.053617 0.482628 0.085386 -0.242613
C187  C     C_R   0.519042 0.947406 0.085394 -0.243720
C188  C     C_R   0.946937 0.517302 0.085392 -0.242422
C189  C     C_R   0.980743 0.552835 0.585345 -0.243054
C190  C     C_R   0.553600 0.982525 0.585384 -0.242186
C191  C     C_R   0.018957 0.447387 0.585395 -0.243755
C192  C     C_R   0.446945 0.017275 0.585393 -0.242322
C193  C     C_R   0.499935 0.000089 0.072717 -0.087189
C194  C     C_R   0.498581 0.620261 0.500056 0.756373
C195  C     C_R   0.000212 0.499982 0.072730 -0.089173
C196  C     C_R   0.999898 0.500085 0.572717 -0.088276
C197  C     C_R   0.500210 0.999931 0.572729 -0.090215
C198  C     C_R   0.499782 0.000201 0.123250 0.200699
C199  C     C_R   0.000460 0.499887 0.123267 0.202141
C200  C     C_R   0.999719 0.500193 0.623250 0.200659
C201  C     C_R   0.500456 0.999798 0.623266 0.202148
C202  C     C_R   0.053686 0.484750 0.889522 -0.103798
C203  C     C_R   0.484222 0.053725 0.889518 -0.103660
C204  C     C_R   0.945561 0.515481 0.889519 -0.103691
C205  C     C_R   0.379738 0.498415 0.499984 0.756003
C206  C     C_R   0.516132 0.945943 0.889557 -0.103689
C207  C     C_R   0.553712 0.984908 0.389520 -0.104024
C208  C     C_R   0.984275 0.553728 0.389517 -0.103840
C209  C     C_R   0.445542 0.015481 0.389520 -0.103987
C210  C     C_R   0.016209 0.445953 0.389558 -0.103888
C211  C     C_R   0.053940 0.485043 0.914547 -0.221538
C212  C     C_R   0.484507 0.053926 0.914541 -0.221560
C213  C     C_R   0.945528 0.515053 0.914545 -0.221765
C214  C     C_R   0.515689 0.945846 0.914580 -0.221608
C215  C     C_R   0.553965 0.985184 0.414544 -0.221916
C216  C     C_R   0.501454 0.379739 0.499996 0.756254
C217  C     C_R   0.984545 0.553927 0.414541 -0.222232
C218  C     C_R   0.445509 0.015036 0.414545 -0.221891
C219  C     C_R   0.015750 0.445854 0.414581 -0.221610
C220  C     C_R   0.999794 0.500023 0.927306 -0.041725
C221  C     C_R   0.500059 0.999913 0.927316 -0.041552
C222  C     C_R   0.499796 0.000072 0.427305 -0.040727
C223  C     C_R   0.000099 0.499916 0.427316 -0.040509
C224  C     C_R   0.452481 0.971276 0.160968 0.653013
C225  C     C_R   0.029200 0.547214 0.161096 0.652936
C226  C     C_R   0.546878 0.029305 0.161089 0.652994
C227  C     C_R   0.620261 0.501578 0.500068 0.755954
C228  C     C_R   0.971991 0.452338 0.161000 0.652639
C229  C     C_R   0.952384 0.471328 0.660969 0.653102
C230  C     C_R   0.529228 0.047111 0.661094 0.652860
C231  C     C_R   0.046853 0.529236 0.661089 0.652945
C232  C     C_R   0.471964 0.952268 0.661000 0.652710
C233  C     C_R   0.999572 0.500159 0.876824 0.346477
C234  C     C_R   0.500220 0.999809 0.876843 0.346279
C235  C     C_R   0.499575 0.000245 0.376823 0.346522
C236  C     C_R   0.000290 0.499816 0.376843 0.346344
C237  C     C_R   0.479380 0.053457 0.110478 0.003395
C238  C     C_3   0.189223 0.001615 0.000115 0.152847
C239  C     C_R   0.054351 0.481325 0.110518 0.007219
C240  C     C_R   0.520261 0.946888 0.110531 0.003378
C241  C     C_R   0.946449 0.518509 0.110523 0.007148
C242  C     C_R   0.979363 0.553465 0.610477 0.003380
C243  C     C_R   0.554333 0.981205 0.610515 0.007271
C244  C     C_R   0.020161 0.446864 0.610532 0.003536
C245  C     C_R   0.446457 0.018464 0.610525 0.007370
C246  C     C_R   0.999436 0.500381 0.775392 0.072560
C247  C     C_R   0.500529 0.999654 0.775421 0.073189
C248  C     C_R   0.499458 0.000440 0.275391 0.072554
Cu1   Cu    Cu3+1 0.000000 1.000000 0.023920 0.937153
Cu2   Cu    Cu3+1 0.437470 0.999970 0.500010 0.949769
Cu3   Cu    Cu3+1 0.000030 0.437470 0.500010 0.950124
Cu4   Cu    Cu3+1 0.562530 0.000030 0.500010 0.949873
Cu5   Cu    Cu3+1 0.500000 0.500000 0.523920 0.936682
Cu6   Cu    Cu3+1 0.000000 0.000000 0.976130 0.927471
Cu7   Cu    Cu3+1 0.500000 0.500000 0.476130 0.927950
Cu8   Cu    Cu3+1 0.499970 0.062530 0.000010 0.950086
Cu9   Cu    Cu3+1 0.937470 0.499970 0.000010 0.949712
Cu10  Cu    Cu3+1 0.500030 0.937470 0.000010 0.950062
Cu11  Cu    Cu3+1 0.062530 0.500030 0.000010 0.949764
Cu12  Cu    Cu3+1 0.999970 0.562530 0.500010 0.950175
H1    H     H_    0.095599 0.472380 0.879974 0.148403
H2    H     H_    0.938696 0.198281 0.968244 0.162916
H3    H     H_    0.098291 0.801981 0.011863 0.147597
H4    H     H_    0.698592 0.565553 0.530650 0.161280
H5    H     H_    0.437928 0.698344 0.531558 0.164224
H6    H     H_    0.301402 0.403490 0.513875 0.147399
H7    H     H_    0.597728 0.301847 0.512647 0.147177
H8    H     H_    0.304593 0.093692 0.016402 0.181956
H9    H     H_    0.903666 0.303842 0.013968 0.183598
H10   H     H_    0.695764 0.905093 0.015200 0.182210
H11   H     H_    0.096545 0.696251 0.013884 0.183613
H12   H     H_    0.804538 0.567029 0.529125 0.175625
H13   H     H_    0.801346 0.935885 0.969016 0.159359
H14   H     H_    0.436158 0.804259 0.530013 0.177347
H15   H     H_    0.195671 0.405802 0.515830 0.182125
H16   H     H_    0.595763 0.196108 0.514668 0.183510
H17   H     H_    0.302091 0.031712 0.037836 0.158890
H18   H     H_    0.961870 0.301539 0.037005 0.161633
H19   H     H_    0.698545 0.965338 0.037402 0.158931
H20   H     H_    0.038710 0.698656 0.036956 0.161616
H21   H     H_    0.805739 0.487372 0.538501 0.162086
H22   H     H_    0.516781 0.805782 0.538179 0.161704
H23   H     H_    0.198459 0.467087 0.537602 0.158824
H24   H     H_    0.060794 0.801573 0.968180 0.163123
H25   H     H_    0.536608 0.198580 0.537234 0.161362
H26   H     H_    0.195768 0.922165 0.024588 0.172765
H27   H     H_    0.073704 0.196042 0.026633 0.174958
H28   H     H_    0.804481 0.075968 0.025506 0.174065
H29   H     H_    0.926668 0.804085 0.026634 0.175202
H30   H     H_    0.694266 0.401044 0.506092 0.149704
H31   H     H_    0.599622 0.694714 0.504515 0.148334
H32   H     H_    0.304515 0.577086 0.524932 0.173234
H33   H     H_    0.425328 0.304098 0.526001 0.174396
H34   H     H_    0.301686 0.918097 0.023889 0.169703
H35   H     H_    0.698600 0.596566 0.486263 0.146732
H36   H     H_    0.077623 0.301990 0.026107 0.166253
H37   H     H_    0.698552 0.080012 0.024891 0.168814
H38   H     H_    0.922784 0.698142 0.026127 0.166214
H39   H     H_    0.799979 0.400211 0.507104 0.180942
H40   H     H_    0.600428 0.800378 0.505487 0.180708
H41   H     H_    0.198600 0.581144 0.524281 0.169202
H42   H     H_    0.421332 0.198169 0.525417 0.166751
H43   H     H_    0.199587 0.986420 0.961256 0.180825
H44   H     H_    0.020334 0.199979 0.961742 0.177562
H45   H     H_    0.799886 0.016885 0.961393 0.179881
H46   H     H_    0.402089 0.698124 0.487676 0.146928
H47   H     H_    0.979056 0.799859 0.961719 0.177353
H48   H     H_    0.695854 0.538320 0.463278 0.182410
H49   H     H_    0.457771 0.695635 0.463833 0.182641
H50   H     H_    0.299950 0.514919 0.461257 0.180443
H51   H     H_    0.481290 0.299908 0.461538 0.177994
H52   H     H_    0.435107 0.201458 0.120197 0.344327
H53   H     H_    0.203952 0.442923 0.120404 0.342026
H54   H     H_    0.564468 0.798929 0.120365 0.344333
H55   H     H_    0.796934 0.556827 0.120413 0.342013
H56   H     H_    0.935195 0.701498 0.620195 0.344337
H57   H     H_    0.301383 0.434308 0.469466 0.158623
H58   H     H_    0.703906 0.942689 0.620398 0.342047
H59   H     H_    0.064251 0.298870 0.620365 0.344336
H60   H     H_    0.296969 0.056875 0.620417 0.342016
H61   H     H_    0.264327 0.929693 0.177093 0.197842
H62   H     H_    0.312394 0.997481 0.179419 0.170861
H63   H     H_    0.284532 0.957982 0.206300 0.133562
H64   H     H_    0.177575 0.671212 0.176770 0.201375
H65   H     H_    0.167422 0.588768 0.178890 0.169037
H66   H     H_    0.175043 0.636298 0.205886 0.132291
H67   H     H_    0.734939 0.071014 0.177681 0.197809
H68   H     H_    0.562653 0.301647 0.468673 0.162341
H69   H     H_    0.686888 0.003217 0.179885 0.170898
H70   H     H_    0.714617 0.042838 0.206837 0.133519
H71   H     H_    0.823753 0.328172 0.176303 0.201314
H72   H     H_    0.833830 0.410618 0.178542 0.169025
H73   H     H_    0.826294 0.362978 0.205466 0.132329
H74   H     H_    0.764176 0.430021 0.677098 0.197863
H75   H     H_    0.812349 0.497734 0.679422 0.170893
H76   H     H_    0.784432 0.458280 0.706304 0.133548
H77   H     H_    0.677673 0.171025 0.676769 0.201398
H78   H     H_    0.667468 0.088588 0.678893 0.169018
H79   H     H_    0.304190 0.068120 0.971430 0.172501
H80   H     H_    0.675109 0.136122 0.705886 0.132293
H81   H     H_    0.234974 0.570668 0.677671 0.197816
H82   H     H_    0.186822 0.502941 0.679871 0.170903
H83   H     H_    0.214623 0.542498 0.706825 0.133528
H84   H     H_    0.323661 0.828184 0.676303 0.201348
H85   H     H_    0.333779 0.910625 0.678539 0.169011
H86   H     H_    0.326211 0.862997 0.705465 0.132310
H87   H     H_    0.936893 0.304173 0.969792 0.174739
H88   H     H_    0.695426 0.934283 0.970569 0.171558
H89   H     H_    0.471394 0.095518 0.879952 0.148625
H90   H     H_    0.062610 0.695680 0.969726 0.174708
H91   H     H_    0.804320 0.594267 0.484313 0.180613
H92   H     H_    0.403986 0.803849 0.485660 0.182891
H93   H     H_    0.195449 0.432843 0.470999 0.172059
H94   H     H_    0.564400 0.195741 0.470231 0.175339
H95   H     H_    0.305243 0.988813 0.961564 0.158903
H96   H     H_    0.017705 0.305663 0.962053 0.157462
H97   H     H_    0.694175 0.014337 0.961708 0.159680
H98   H     H_    0.981674 0.694156 0.962038 0.157498
H99   H     H_    0.801547 0.533075 0.462500 0.155221
H100  H     H_    0.903568 0.527910 0.879969 0.148465
H101  H     H_    0.462732 0.801410 0.462935 0.157392
H102  H     H_    0.194244 0.512461 0.461573 0.159348
H103  H     H_    0.483924 0.194213 0.461848 0.157174
H104  H     H_    0.194142 0.901332 0.993457 0.149712
H105  H     H_    0.099772 0.194748 0.996125 0.146365
H106  H     H_    0.805680 0.099306 0.994656 0.148626
H107  H     H_    0.900146 0.805209 0.996137 0.146236
H108  H     H_    0.695504 0.423015 0.475091 0.171403
H109  H     H_    0.574255 0.695923 0.473873 0.171456
H110  H     H_    0.305731 0.598924 0.493916 0.148826
H111  H     H_    0.529024 0.904113 0.880023 0.148616
H112  H     H_    0.400489 0.305309 0.495295 0.146820
H113  H     H_    0.299853 0.900499 0.992423 0.178864
H114  H     H_    0.100583 0.300405 0.995189 0.178391
H115  H     H_    0.699971 0.100128 0.993664 0.179591
H116  H     H_    0.899331 0.699548 0.995222 0.178419
H117  H     H_    0.801415 0.418954 0.475749 0.166024
H118  H     H_    0.578225 0.801851 0.474446 0.161362
H119  H     H_    0.200017 0.599758 0.492915 0.179229
H120  H     H_    0.399685 0.199641 0.494317 0.177948
H121  H     H_    0.112335 0.608850 0.810598 0.187514
H122  H     H_    0.595643 0.972606 0.379970 0.148407
H123  H     H_    0.393179 0.885607 0.810313 0.187211
H124  H     H_    0.886504 0.391880 0.810292 0.187500
H125  H     H_    0.607708 0.113767 0.810627 0.187218
H126  H     H_    0.612184 0.109091 0.310596 0.187505
H127  H     H_    0.893292 0.385578 0.310312 0.187199
H128  H     H_    0.386673 0.891788 0.310292 0.187482
H129  H     H_    0.107716 0.613837 0.310628 0.187211
H130  H     H_    0.366729 0.915258 0.232481 0.154985
H131  H     H_    0.083718 0.633672 0.232821 0.157971
H132  H     H_    0.632293 0.085595 0.232820 0.154964
H133  H     H_    0.971441 0.595518 0.379951 0.148642
H134  H     H_    0.917605 0.365676 0.232548 0.157956
H135  H     H_    0.866570 0.415410 0.732482 0.154993
H136  H     H_    0.583769 0.133568 0.732816 0.157980
H137  H     H_    0.132375 0.585370 0.732819 0.154975
H138  H     H_    0.417512 0.865661 0.732551 0.157960
H139  H     H_    0.096337 0.472929 0.923893 0.160215
H140  H     H_    0.471922 0.096158 0.923875 0.160095
H141  H     H_    0.903218 0.527127 0.923891 0.160159
H142  H     H_    0.528223 0.903655 0.923944 0.160084
H143  H     H_    0.596381 0.973126 0.423889 0.160072
H144  H     H_    0.403530 0.027853 0.379970 0.148520
H145  H     H_    0.971946 0.596156 0.423873 0.160040
H146  H     H_    0.403181 0.027040 0.423892 0.160289
H147  H     H_    0.028287 0.403665 0.423946 0.160100
H148  H     H_    0.465159 0.093186 0.075458 0.199426
H149  H     H_    0.094489 0.468412 0.075534 0.200029
H150  H     H_    0.534685 0.907001 0.075548 0.199420
H151  H     H_    0.905965 0.531550 0.075546 0.200059
H152  H     H_    0.965186 0.593206 0.575457 0.199543
H153  H     H_    0.594461 0.968287 0.575530 0.200227
H154  H     H_    0.034576 0.406971 0.575550 0.199412
H155  H     H_    0.029116 0.404126 0.380025 0.148646
H156  H     H_    0.405984 0.031560 0.575548 0.199943
H157  H     H_    0.114282 0.609249 0.768084 0.145407
H158  H     H_    0.392896 0.883684 0.767787 0.141318
H159  H     H_    0.884563 0.391556 0.767774 0.145398
H160  H     H_    0.608210 0.115597 0.768103 0.141318
H161  H     H_    0.614146 0.109472 0.268081 0.145402
H162  H     H_    0.892992 0.383673 0.267786 0.141311
H163  H     H_    0.384746 0.891443 0.267774 0.145391
H164  H     H_    0.108196 0.615688 0.268104 0.141311
H165  H     H_    0.196345 0.036958 0.037117 0.184979
H166  H     H_    0.198266 0.066748 0.969923 0.158120
H167  H     H_    0.957039 0.195725 0.036068 0.185265
H168  H     H_    0.804266 0.960172 0.036554 0.184770
H169  H     H_    0.043499 0.804459 0.036010 0.185231
H170  H     H_    0.700019 0.484906 0.538806 0.182333
H171  H     H_    0.519413 0.700071 0.538481 0.181101
H172  H     H_    0.304164 0.461842 0.536819 0.184977
H173  H     H_    0.541630 0.304359 0.536344 0.185523
H174  H     H_    0.198801 0.096086 0.014509 0.147551
H175  H     H_    0.901871 0.198094 0.011950 0.147552
H176  H     H_    0.801477 0.902935 0.013196 0.147039
N1    N     N_R   0.499711 0.000263 0.149086 -0.446173
N2    N     N_R   0.000566 0.499805 0.149103 -0.446474
N3    N     N_R   0.999648 0.500256 0.649086 -0.446185
N4    N     N_R   0.500567 0.999716 0.649103 -0.446509
N5    N     N_R   0.999481 0.500264 0.850990 -0.464731
N6    N     N_R   0.500310 0.999758 0.851012 -0.464684
N7    N     N_R   0.499481 0.000352 0.350989 -0.464700
N8    N     N_R   0.000383 0.499765 0.351012 -0.464670
O1    O     O_R   0.999990 0.091180 0.020200 -0.588287
O2    O     O_R   0.908760 0.999950 0.979840 -0.592223
O3    O     O_R   0.000050 0.908760 0.979840 -0.592376
O4    O     O_R   0.091240 0.000050 0.979840 -0.592222
O5    O     O_R   0.499950 0.591240 0.479840 -0.590406
O6    O     O_R   0.408760 0.499950 0.479840 -0.592117
O7    O     O_R   0.500050 0.408760 0.479840 -0.592460
O8    O     O_R   0.591240 0.500050 0.479840 -0.590633
O9    O     O_2   0.407153 0.943285 0.148181 -0.488880
O10   O     O_2   0.055675 0.593480 0.148419 -0.487637
O11   O     O_2   0.592267 0.057246 0.148418 -0.488862
O12   O     O_R   0.908820 0.999990 0.020200 -0.588589
O13   O     O_2   0.945486 0.406113 0.148230 -0.487746
O14   O     O_2   0.907019 0.443395 0.648182 -0.488734
O15   O     O_2   0.555733 0.093358 0.648416 -0.487665
O16   O     O_2   0.092273 0.557127 0.648417 -0.488907
O17   O     O_2   0.445436 0.906055 0.648232 -0.487506
O18   O     O_2   0.921945 0.423061 0.851038 -0.545663
O19   O     O_2   0.576678 0.078119 0.851280 -0.545729
O20   O     O_2   0.076987 0.577500 0.851249 -0.545658
O21   O     O_2   0.423951 0.921389 0.851056 -0.545693
O22   O     O_2   0.422058 0.923034 0.351038 -0.545877
O23   O     O_R   0.000010 0.908820 0.020200 -0.588234
O24   O     O_2   0.076719 0.578157 0.351280 -0.545698
O25   O     O_2   0.576871 0.077702 0.351247 -0.545636
O26   O     O_2   0.924057 0.421363 0.351056 -0.545831
O27   O     O_R   0.500000 0.052820 0.034880 -0.581741
O28   O     O_R   0.947180 0.500000 0.034880 -0.582360
O29   O     O_R   0.500000 0.947180 0.034880 -0.581696
O30   O     O_R   0.052820 0.500000 0.034880 -0.582423
O31   O     O_R   0.000000 0.552820 0.534880 -0.580797
O32   O     O_R   0.447180 0.000000 0.534880 -0.581101
O33   O     O_R   0.000000 0.447180 0.534880 -0.580580
O34   O     O_R   0.091180 0.000010 0.020200 -0.588495
O35   O     O_R   0.552820 0.000000 0.534880 -0.581233
O36   O     O_R   0.408820 0.052810 0.000010 -0.591796
O37   O     O_R   0.947190 0.408820 0.000010 -0.587529
O38   O     O_R   0.591180 0.947190 0.000010 -0.591864
O39   O     O_R   0.052810 0.591180 0.000010 -0.587508
O40   O     O_R   0.908820 0.552810 0.500010 -0.591684
O41   O     O_R   0.447190 0.908820 0.500010 -0.587401
O42   O     O_R   0.091180 0.447190 0.500010 -0.591827
O43   O     O_R   0.552810 0.091180 0.500010 -0.587450
O44   O     O_R   0.408830 0.947290 0.000040 -0.588956
O45   O     O_R   0.499990 0.591180 0.520200 -0.590406
O46   O     O_R   0.052710 0.408830 0.000040 -0.593084
O47   O     O_R   0.591170 0.052710 0.000040 -0.588857
O48   O     O_R   0.947290 0.591170 0.000040 -0.593091
O49   O     O_R   0.908830 0.447290 0.500040 -0.588821
O50   O     O_R   0.552710 0.908830 0.500040 -0.592927
O51   O     O_R   0.091170 0.552710 0.500040 -0.588892
O52   O     O_R   0.447290 0.091170 0.500040 -0.593142
O53   O     O_R   0.499940 0.052810 0.965140 -0.584966
O54   O     O_R   0.947190 0.499940 0.965140 -0.584908
O55   O     O_R   0.500060 0.947190 0.965140 -0.584981
O56   O     O_R   0.408820 0.499990 0.520200 -0.588643
O57   O     O_R   0.052810 0.500060 0.965140 -0.584868
O58   O     O_R   0.999940 0.552810 0.465140 -0.585894
O59   O     O_R   0.447190 0.999940 0.465140 -0.586162
O60   O     O_R   0.000060 0.447190 0.465140 -0.586086
O61   O     O_R   0.552810 0.000060 0.465140 -0.586023
O62   O     O_2   0.438618 0.108446 0.143569 -0.600321
O63   O     O_R   0.452116 0.166251 0.110095 -0.762851
O64   O     O_2   0.110576 0.441736 0.143554 -0.597921
O65   O     O_R   0.168179 0.458780 0.110287 -0.765312
O66   O     O_2   0.560821 0.892046 0.143729 -0.600336
O67   O     O_R   0.500010 0.408820 0.520200 -0.588275
O68   O     O_R   0.547522 0.834092 0.110218 -0.762823
O69   O     O_2   0.890552 0.558005 0.143587 -0.597976
O70   O     O_R   0.832609 0.541006 0.110289 -0.765281
O71   O     O_2   0.938656 0.608491 0.643569 -0.600283
O72   O     O_R   0.952174 0.666277 0.610092 -0.762842
O73   O     O_2   0.610530 0.941563 0.643549 -0.597879
O74   O     O_R   0.668145 0.958576 0.610283 -0.765203
O75   O     O_2   0.060643 0.391979 0.643734 -0.600376
O76   O     O_R   0.047342 0.334049 0.610217 -0.762743
O77   O     O_2   0.390586 0.057978 0.643591 -0.598015
O78   O     O_R   0.591180 0.500010 0.520200 -0.590221
O79   O     O_R   0.332633 0.041037 0.610292 -0.765197
O80   O     O_3   0.354304 0.912231 0.187239 -0.534229
O81   O     O_3   0.090654 0.643835 0.187536 -0.534049
O82   O     O_3   0.644910 0.088484 0.187610 -0.534248
O83   O     O_3   0.910665 0.355590 0.187239 -0.534097
O84   O     O_3   0.854128 0.412418 0.687241 -0.534231
O85   O     O_3   0.590731 0.143705 0.687532 -0.534038
O86   O     O_3   0.144977 0.588265 0.687609 -0.534250
O87   O     O_3   0.410583 0.855560 0.687242 -0.534070
O88   O     O_R   0.999950 0.091240 0.979840 -0.592540

loop_
_geom_bond_atom_site_label_1
_geom_bond_atom_site_label_2
_ccdc_geom_bond_type
C215  C222  A    
C160  H65   S    
C65   H161  S    
C130  C146  S    
C228  N2    A    
C166  H86   S    
C163  H74   S    
C36   C42   A    
C229  N3    A    
C74   C83   A    
C55   C93   A    
Cu8   O47   S    
C6    C196  S    
C177  H96   S    
C211  C220  A    
C199  N2    S    
Cu10  O38   S    
C49   C60   A    
C35   C227  S    
C7    O32   A    
C214  H142  S    
C187  H150  S    
C13   C112  S    
C136  H29   S    
C224  O9    S    
C142  C177  S    
C62   C108  A    
C179  H90   S    
Cu2   Cu4   S    
C99   O21   S    
C143  C178  S    
C11   O48   A    
C191  C196  A    
C71   C80   A    
C68   C149  S    
C120  H171  S    
C17   C61   A    
C9    O46   A    
C2    C116  S    
C109  C248  A    
C19   C63   A    
C111  C248  A    
C134  C169  S    
C94   C231  A    
C134  H28   S    
C205  O6    A    
C132  C167  S    
C227  O78   A    
C137  C171  S    
C127  H20   S    
C63   C105  A    
Cu4   O50   S    
C117  C126  S    
C208  C236  A    
C119  C128  S    
C206  C214  A    
C90   C177  S    
C27   C220  S    
C156  O76   S    
C187  C193  A    
C159  H63   S    
C17   C30   A    
C102  O24   S    
C188  C241  A    
C19   C32   A    
C100  O22   S    
C141  H166  S    
C29   C222  S    
C175  H42   S    
C201  C245  A    
C112  O2    A    
C155  O73   D    
C189  H152  S    
C48   C74   A    
C95   C232  A    
C145  H35   S    
C148  H57   S    
C131  H25   S    
C23   C37   A    
C121  H6    S    
C225  O10   S    
C82   C91   A    
C7    C197  S    
C209  C235  A    
C54   C92   A    
C138  H31   S    
Cu8   O53   S    
C198  C237  A    
C50   C76   A    
Cu3   Cu12  S    
C163  H76   S    
C48   C105  A    
C162  H71   S    
C45   C111  A    
Cu7   O8    S    
C160  O81   S    
C113  C170  S    
Cu3   O42   S    
C180  H91   S    
C61   H157  S    
C20   C33   A    
C145  H48   S    
C11   O39   A    
C113  C179  S    
Cu3   O60   S    
Cu1   O23   S    
Cu6   O3    S    
C68   C140  S    
C25   C69   A    
C50   C59   A    
C200  C242  A    
C165  H82   S    
C136  H107  S    
Cu9   O37   S    
C208  C217  A    
C141  H43   S    
C77   H138  S    
C191  H154  S    
C126  H10   S    
Cu3   O49   S    
C9    C90   S    
C53   C58   A    
C123  H17   S    
C64   C106  A    
C49   C106  A    
C22   C36   A    
C103  O25   S    
C117  H176  S    
C164  H77   S    
C80   C88   A    
C35   C137  S    
C189  C196  A    
C153  O70   S    
C146  C174  S    
C161  H69   S    
C112  O12   A    
C33   C97   A    
C84   C93   A    
C172  O3    A    
C97   N6    A    
C61   C107  A    
C86   C95   A    
C192  C245  A    
C208  H133  S    
C203  H89   S    
C14   O50   A    
C132  H104  S    
C174  H41   S    
C18   C31   A    
Cu11  O57   S    
C79   C167  S    
C76   C85   A    
C102  N8    A    
C190  C197  A    
C78   C87   A    
C217  C223  A    
C47   C114  A    
H52   O63   S    
C153  C241  S    
C18   H123  S    
C156  O75   D    
C5    O30   A    
C89   C226  A    
H59   O76   S    
H58   O74   S    
C187  C240  A    
C207  C235  A    
C191  C244  A    
C163  H75   S    
C12   O49   A    
C143  H45   S    
Cu11  O46   S    
C35   C145  S    
C75   C84   A    
C14   C135  S    
C161  H67   S    
Cu9   O48   S    
C181  H101  S    
C154  O72   S    
C234  N6    S    
C178  H97   S    
Cu7   O6    S    
C23   C67   A    
C132  C238  S    
C101  C178  S    
C156  C244  S    
C129  C135  S    
C227  O8    A    
C90   C125  S    
C185  C237  A    
C118  H3    S    
C140  H112  S    
Cu8   Cu10  S    
C53   C91   A    
Cu10  O29   S    
C49   C75   A    
C157  C184  S    
C106  C247  A    
Cu10  O55   S    
C200  C244  A    
C144  H47   S    
C163  O84   S    
C229  O14   S    
C192  H156  S    
C13   C143  S    
C8    O44   A    
C190  H153  S    
C127  H11   S    
C232  O17   S    
C179  H98   S    
C128  H12   S    
C17   H121  S    
C62   H158  S    
Cu9   O28   S    
C11   C113  S    
C46   C194  S    
C54   C59   A    
C33   C40   A    
C120  C129  S    
C194  O5    A    
C45   C56   A    
C203  C234  A    
C116  H175  S    
C44   C58   A    
C140  H33   S    
C10   O38   A    
C18   C62   A    
C99   N6    A    
C210  C219  A    
C186  C239  A    
C182  H93   S    
C130  H23   S    
C25   C38   A    
C8    C79   S    
C39   C246  A    
C69   C110  A    
C168  H114  S    
C119  H4    S    
C115  H165  S    
Cu12  O31   S    
C230  N4    A    
C137  H108  S    
C46   C120  S    
C150  O63   S    
C180  H99   S    
C181  H92   S    
H54   O68   S    
C210  H155  S    
C10   O47   A    
C198  C240  A    
C158  C245  S    
C136  C170  S    
C26   C221  S    
C31   C99   A    
C116  C125  S    
C41   C248  A    
C71   H131  S    
Cu5   O78   S    
C72   H132  S    
C121  H172  S    
Cu5   O45   S    
C73   H134  S    
C135  C181  S    
Cu8   O27   S    
C122  C131  S    
C40   C247  A    
C48   C59   A    
C159  H61   S    
C74   H135  S    
C1    O88   A    
C142  H44   S    
C90   C168  S    
C79   C176  S    
C135  C173  S    
C118  H169  S    
C3    C114  A    
C199  C239  A    
C15   C146  S    
C43   C70   A    
C205  O56   A    
C25   H129  S    
C126  H19   S    
C30   C98   A    
C34   C103  A    
C224  N1    A    
C206  C234  A    
C6    O33   A    
Cu8   O36   S    
C131  H16   S    
C4    O27   A    
C29   O59   A    
C147  C181  S    
C92   C229  A    
C231  N3    A    
Cu12  O51   S    
C30   C39   A    
Cu1   O1    S    
C129  H22   S    
C24   C172  S    
C143  H13   S    
C174  H119  S    
C66   H162  S    
Cu4   O43   S    
C235  N7    S    
C190  C243  A    
C103  N7    A    
C118  C127  S    
Cu5   O67   S    
C182  H102  S    
C139  C174  S    
C51   C60   A    
C43   C109  A    
C159  O80   S    
C5    O28   A    
C37   C100  A    
Cu2   O52   S    
C82   O83   S    
C155  C243  S    
C93   C230  A    
Cu6   O4    S    
Cu1   O34   S    
C3    C42   A    
C141  C238  S    
C173  H118  S    
C107  C246  A    
C96   O18   S    
C117  H168  S    
C176  H79   S    
C52   C89   A    
C97   O19   S    
C147  H46   S    
C170  H116  S    
C133  H105  S    
C216  O67   A    
C183  C238  S    
C91   C228  A    
C27   O54   A    
C31   C40   A    
C57   C139  S    
C32   C39   A    
C67   H163  S    
C131  C157  S    
C201  N4    S    
C150  C237  S    
C188  C195  A    
C162  H72   S    
C14   O41   A    
C204  H100  S    
C141  C176  S    
C160  H66   S    
C230  O15   S    
H55   O70   S    
C101  C169  S    
Cu4   O61   S    
C186  H149  S    
C210  C236  A    
C228  O13   S    
C202  C211  A    
C198  N1    S    
C72   C81   A    
Cu4   O35   S    
C124  C128  S    
C81   C89   A    
C86   O87   S    
C167  H34   S    
C69   H164  S    
C104  O26   S    
Cu1   Cu6   S    
C55   C60   A    
C152  O66   D    
C166  H85   S    
C34   C41   A    
C183  O34   A    
C165  H81   S    
C139  H32   S    
C213  C220  A    
C23   H128  S    
C162  H73   S    
C4    C193  S    
C21   H126  S    
C166  O87   S    
C2    C133  S    
C146  C182  S    
C6    O31   A    
C115  C123  S    
C47   C73   A    
C4    O29   A    
C68   C122  S    
C70   H130  S    
C139  H110  S    
C171  H39   S    
C21   C34   A    
C164  H78   S    
C51   C77   A    
C204  C233  A    
C214  C221  A    
C171  H117  S    
C46   C147  S    
C216  O7    A    
C64   H160  S    
C153  O69   D    
C147  H49   S    
C138  C173  S    
C207  C215  A    
C188  H151  S    
C192  C197  A    
C63   H159  S    
C27   O57   A    
C119  H170  S    
C202  H1    S    
C15   O51   A    
C73   C82   A    
C199  C241  A    
C80   O81   S    
Cu2   O41   S    
C66   C114  A    
C21   C65   A    
C16   C157  S    
C167  H113  S    
C155  O74   S    
C10   C101  S    
Cu2   O59   S    
H60   O79   S    
C201  C243  A    
C115  H174  S    
C13   C117  S    
C151  C239  S    
C36   C104  A    
C151  O65   S    
C87   C224  A    
C225  N2    A    
C169  H115  S    
C202  C233  A    
C98   O20   S    
C124  C171  S    
C215  H143  S    
Cu7   O7    S    
C24   C144  S    
C140  C175  S    
C145  C180  S    
C207  H122  S    
C213  H141  S    
Cu7   O5    S    
H53   O65   S    
C68   C216  S    
C212  H140  S    
C219  C223  A    
C185  H148  S    
C148  C182  S    
C125  H18   S    
C57   C148  S    
C189  C242  A    
Cu6   O2    S    
C176  H95   S    
C26   O55   A    
C185  C193  A    
C142  H2    S    
Cu11  O39   S    
C165  H83   S    
C116  H167  S    
C78   O80   S    
C137  H30   S    
C154  C242  S    
C70   C78   A    
C7    O35   A    
C13   C134  S    
C35   C119  S    
C217  H145  S    
C28   O58   A    
C83   C92   A    
C108  C247  A    
C175  H120  S    
C164  H80   S    
C209  C218  A    
C152  C240  S    
C38   C42   A    
C28   C223  S    
C15   O42   A    
C22   H127  S    
C173  H40   S    
C57   C205  S    
C161  H70   S    
C44   C71   A    
C1    C2    S    
C65   C111  A    
C158  O79   S    
C96   N5    A    
C67   C109  A    
C132  H26   S    
C51   C108  A    
C133  H27   S    
C144  H24   S    
C159  H62   S    
Cu1   O12   S    
C151  O64   D    
C170  H38   S    
C20   H125  S    
C16   O43   A    
C206  H111  S    
C184  H94   S    
C5    C195  S    
C209  H144  S    
C45   C72   A    
C37   C41   A    
C128  H21   S    
C123  H8    S    
C81   O82   S    
C232  N4    A    
C122  H7    S    
C218  C222  A    
C212  C221  A    
C83   O84   S    
C162  O83   S    
C168  H36   S    
C54   C94   A    
C186  C195  A    
C16   O52   A    
C55   C95   A    
Cu5   Cu7   S    
C9    O37   A    
C79   C123  S    
C204  C213  A    
C236  N8    S    
C154  O71   D    
C200  N3    S    
C125  H9    S    
Cu9   Cu11  S    
C1    O1    A    
C20   C64   A    
C122  H173  S    
C219  H147  S    
C149  C184  S    
C85   C94   A    
C43   C56   A    
C88   C225  A    
C12   C124  S    
C144  C179  S    
C160  H64   S    
C172  O23   A    
C183  O4    A    
C226  N1    A    
C101  C126  S    
C26   O53   A    
C121  C130  S    
C211  H139  S    
C134  H106  S    
C2    C142  S    
Cu12  O58   S    
C157  C175  S    
C32   C96   A    
C177  H87   S    
C77   C86   A    
C98   N5    A    
C161  O82   S    
C152  O68   S    
C203  C212  A    
C149  H68   S    
C19   H124  S    
C85   O86   S    
C148  H50   S    
C28   O60   A    
C149  H51   S    
C120  H5    S    
C75   H136  S    
C231  O16   S    
C3    C110  A    
C52   C87   A    
C166  H84   S    
C115  C238  S    
C184  H103  S    
C22   C66   A    
C113  C127  S    
Cu10  O44   S    
C165  O86   S    
C24   C118  S    
C8    O36   A    
C46   C138  S    
C218  H146  S    
C76   H137  S    
H56   O72   S    
C38   C102  A    
C158  O77   D    
C84   O85   S    
C47   C58   A    
Cu3   O33   S    
C24   C136  S    
C50   C107  A    
C138  H109  S    
Cu2   O32   S    
C226  O11   S    
Cu11  O30   S    
C178  H88   S    
C150  O62   D    
C53   C88   A    
Cu12  O40   S    
C104  N8    A    
C105  C246  A    
C124  C180  S    
C12   O40   A    
Cu9   O54   S    
C57   C121  S    
C164  O85   S    
C133  C168  S    
C100  N7    A    
Cu5   O56   S    
C233  N5    S    
Cu6   O88   S    
C129  H14   S    
C130  H15   S    
C169  H37   S    
C194  O45   A    
C52   C56   A    
C29   O61   A    
C44   C110  A    
