data_mof_unit_38723.cif
_audit_creation_date              2012-12-11T14:04:03-0500
_audit_creation_method            fapswitch 2.2
_symmetry_space_group_name_H-M    P1
_symmetry_Int_Tables_number       1
_space_group_crystal_system       triclinic
_cell_length_a                    19.409182
_cell_length_b                    11.240644
_cell_length_c                    18.819043
_cell_angle_alpha                 89.205798
_cell_angle_beta                  90.126683
_cell_angle_gamma                 90.463026
_cell_volume                      4105.24516387

loop_
_atom_site_label
_atom_site_type_symbol
_atom_type_description
_atom_site_fract_x
_atom_site_fract_y
_atom_site_fract_z
_atom_type_partial_charge
C1    C     C_R   0.240839 0.466843 0.648227 0.547907
C2    C     C_R   0.760747 0.466486 0.352191 0.543194
C3    C     C_R   0.740844 0.966827 0.648231 0.541404
C4    C     C_R   0.260746 0.966475 0.352189 0.530768
C5    C     C_2   0.297088 0.918513 0.544423 0.232632
C6    C     C_2   0.714378 0.841140 0.466616 0.229732
C7    C     C_2   0.797097 0.418529 0.544415 0.233683
C8    C     C_2   0.214348 0.341157 0.466608 0.229911
C9    C     C_R   0.963237 0.654846 0.437882 -0.032572
C10   C     C_R   0.045825 0.662763 0.560898 -0.031992
C11   C     C_R   0.463275 0.154926 0.437885 -0.031918
C12   C     C_R   0.545865 0.162848 0.560898 -0.031321
C13   C     C_R   0.941494 0.866344 0.453584 -0.141582
C14   C     C_R   0.044936 0.877707 0.552594 -0.146109
C15   C     C_R   0.441513 0.366444 0.453599 -0.141653
C16   C     C_R   0.544935 0.377823 0.552636 -0.146629
C17   C     C_R   0.960860 0.977476 0.479815 0.271114
C18   C     C_R   0.009837 0.982225 0.535697 0.273646
C19   C     C_R   0.460841 0.477581 0.479876 0.271265
C20   C     C_R   0.509846 0.482355 0.535727 0.273040
C21   C     C_R   0.022544 0.768086 0.529089 -0.038634
C22   C     C_R   0.975956 0.763362 0.472345 -0.044332
C23   C     C_R   0.522566 0.268189 0.529107 -0.038728
C24   C     C_R   0.475990 0.263463 0.472347 -0.044170
C25   C     C_R   0.036403 0.558374 0.524071 0.025018
C26   C     C_R   0.986662 0.550504 0.471020 0.046835
C27   C     C_R   0.536473 0.058489 0.524049 0.025184
C28   C     C_R   0.486712 0.050607 0.471027 0.046831
C29   C     C_R   0.072778 0.458281 0.543249 -0.078602
C30   C     C_R   0.962231 0.437127 0.453718 -0.058666
C31   C     C_R   0.572872 0.958414 0.543202 -0.078519
C32   C     C_R   0.462260 0.937237 0.453763 -0.059009
C33   C     C_R   0.049205 0.348177 0.525473 -0.063819
C34   C     C_R   0.993032 0.338300 0.482458 -0.088973
C35   C     C_R   0.549277 0.848307 0.525453 -0.063897
C36   C     C_R   0.493063 0.838413 0.482502 -0.089167
C37   C     C_2   0.239879 0.898567 0.926949 -0.062901
C38   C     C_2   0.762467 0.897971 0.071517 -0.085966
C39   C     C_2   0.755966 0.431333 0.914686 -0.140205
C40   C     C_2   0.243945 0.434608 0.085742 -0.142282
C41   C     C_2   0.246027 0.902047 0.085042 -0.090742
C42   C     C_2   0.750612 0.897768 0.915504 -0.059974
C43   C     C_2   0.770159 0.488790 0.066369 -0.067812
C44   C     C_2   0.228484 0.491566 0.933861 -0.066187
C45   C     C_R   0.226327 0.877601 0.649550 0.558983
C46   C     C_R   0.773280 0.873321 0.352498 0.545592
C47   C     C_R   0.726334 0.377616 0.649553 0.557544
C48   C     C_R   0.273275 0.373322 0.352498 0.540938
C49   C     C_2   0.190461 0.926991 0.044817 0.222340
C50   C     C_2   0.810962 0.901953 0.949966 0.236723
C51   C     C_2   0.730355 0.553438 0.021521 0.230147
C52   C     C_2   0.269673 0.556168 0.977037 0.223765
C53   C     C_2   0.187107 0.884489 0.972378 -0.108695
C54   C     C_2   0.812575 0.868023 0.025815 -0.126745
C55   C     C_2   0.720758 0.518200 0.946278 -0.150584
C56   C     C_2   0.279947 0.521063 0.052623 -0.163301
C57   C     C_2   0.991318 0.662065 0.915767 -0.093370
C58   C     C_2   0.986377 0.656568 0.072893 -0.108949
C59   C     C_2   0.492611 0.160860 0.916438 -0.102165
C60   C     C_2   0.488901 0.157339 0.073917 -0.100826
C61   C     C_2   0.961417 0.571180 0.030071 -0.155362
C62   C     C_2   0.977490 0.564998 0.954823 -0.163973
C63   C     C_2   0.467286 0.068778 0.031484 -0.159554
C64   C     C_2   0.482941 0.063356 0.956396 -0.171526
C65   C     C_R   0.061551 0.652493 0.638208 0.547908
C66   C     C_R   0.940908 0.649876 0.362491 0.533047
C67   C     C_R   0.561561 0.152507 0.638211 0.546076
C68   C     C_R   0.440925 0.149893 0.362498 0.531296
C69   C     C_R   0.224867 0.517319 0.857901 0.603005
C70   C     C_R   0.774674 0.516325 0.141744 0.594533
C71   C     C_R   0.739018 0.964187 0.849632 0.573282
C72   C     C_R   0.260926 0.967176 0.149745 0.563335
C73   C     C_R   0.226050 0.869751 0.853610 0.562370
C74   C     C_R   0.774321 0.870456 0.145910 0.561469
C75   C     C_R   0.728146 0.374638 0.851370 0.562119
C76   C     C_R   0.271868 0.375805 0.148759 0.564275
C77   C     C_R   0.028969 0.651820 0.849632 0.564722
C78   C     C_R   0.966433 0.651891 0.147204 0.551410
C79   C     C_R   0.529140 0.151693 0.849698 0.571295
C80   C     C_R   0.467222 0.152081 0.147665 0.567824
C81   C     C_2   0.241739 0.936728 0.582459 -0.069390
C82   C     C_2   0.755723 0.909574 0.425079 -0.069568
C83   C     C_2   0.741778 0.436819 0.582487 -0.069227
C84   C     C_2   0.255684 0.409597 0.425067 -0.069803
C85   C     C_2   0.254248 0.917059 0.423110 -0.169343
C86   C     C_2   0.761064 0.911156 0.581752 -0.153657
C87   C     C_2   0.754246 0.417100 0.423117 -0.170916
C88   C     C_2   0.261043 0.411210 0.581734 -0.155162
C89   C     C_2   0.298095 0.960381 0.471558 -0.164311
C90   C     C_2   0.717866 0.842985 0.545925 -0.185809
C91   C     C_2   0.798090 0.460437 0.471559 -0.166085
C92   C     C_2   0.217828 0.343065 0.545912 -0.186138
Cr1   Cr    Cr6+3 0.113970 0.508630 0.747920 0.995633
Cr2   Cr    Cr6+3 0.886030 0.508630 0.252080 0.990374
Cr3   Cr    Cr6+3 0.613970 0.008630 0.747920 0.991447
Cr4   Cr    Cr6+3 0.386030 0.008630 0.252080 0.987701
Cr5   Cr    Cr6+3 0.269200 0.666740 0.749850 1.000292
Cr6   Cr    Cr6+3 0.730800 0.666740 0.250150 1.024602
Cr7   Cr    Cr6+3 0.769200 0.166740 0.749850 1.010291
Cr8   Cr    Cr6+3 0.230800 0.166740 0.250150 1.037514
Cr9   Cr    Cr6+3 0.112300 0.820070 0.749800 0.973375
Cr10  Cr    Cr6+3 0.887700 0.820070 0.250200 0.963842
Cr11  Cr    Cr6+3 0.612300 0.320070 0.749800 0.977835
Cr12  Cr    Cr6+3 0.387700 0.320070 0.250200 0.983221
H1    H     H_    0.137029 0.854431 0.953445 0.124469
H2    H     H_    0.858812 0.824525 0.045558 0.136026
H3    H     H_    0.678806 0.559421 0.917185 0.142031
H4    H     H_    0.323193 0.560921 0.080319 0.141396
H5    H     H_    0.284280 0.839558 0.066457 0.073380
H6    H     H_    0.705458 0.858880 0.941175 0.072983
H7    H     H_    0.798793 0.412242 0.049182 0.041384
H8    H     H_    0.198809 0.415629 0.952615 0.060692
H9    H     H_    0.290708 0.927893 0.943842 0.086670
H10   H     H_    0.715089 0.940516 0.054566 0.073910
H11   H     H_    0.801953 0.393056 0.937905 0.092643
H12   H     H_    0.196897 0.397786 0.063875 0.109927
H13   H     H_    0.931290 0.497166 0.051536 0.148578
H14   H     H_    0.981956 0.476635 0.932689 0.153548
H15   H     H_    0.439546 0.991942 0.052907 0.153642
H16   H     H_    0.490171 0.975094 0.934965 0.147671
H17   H     H_    0.016324 0.730905 0.052599 0.060869
H18   H     H_    0.983622 0.750339 0.936975 0.119111
H19   H     H_    0.516264 0.235195 0.053612 0.092152
H20   H     H_    0.482711 0.248810 0.937168 0.103256
H21   H     H_    0.214479 0.851986 0.436445 0.084362
H22   H     H_    0.807749 0.944998 0.557069 0.110146
H23   H     H_    0.714475 0.352037 0.436461 0.085485
H24   H     H_    0.307732 0.445047 0.557051 0.109663
H25   H     H_    0.200642 0.988099 0.558383 0.026502
H26   H     H_    0.789424 0.975619 0.448080 0.049560
H27   H     H_    0.700714 0.488305 0.558443 0.026427
H28   H     H_    0.289346 0.475679 0.448078 0.049608
H29   H     H_    0.897252 0.858552 0.421418 0.157838
H30   H     H_    0.090766 0.880625 0.583090 0.150268
H31   H     H_    0.397271 0.358637 0.421431 0.157580
H32   H     H_    0.590757 0.380736 0.583135 0.150753
H33   H     H_    0.918738 0.423511 0.419830 0.143384
H34   H     H_    0.116462 0.467656 0.575678 0.144087
H35   H     H_    0.418753 0.923654 0.419904 0.143817
H36   H     H_    0.616584 0.967815 0.575594 0.144898
H37   H     H_    0.073464 0.271291 0.546105 0.169624
H38   H     H_    0.973925 0.254680 0.471651 0.209973
H39   H     H_    0.573546 0.771419 0.546049 0.169728
H40   H     H_    0.473945 0.754776 0.471736 0.210082
O1    O     O_R   0.043230 0.549300 0.667990 -0.498159
O2    O     O_R   0.956770 0.549300 0.332010 -0.511104
O3    O     O_R   0.543230 0.049300 0.667990 -0.500146
O4    O     O_R   0.456770 0.049300 0.332010 -0.512305
O5    O     O_R   0.262920 0.788600 0.824420 -0.478558
O6    O     O_R   0.737080 0.788600 0.175580 -0.476359
O7    O     O_R   0.762920 0.288600 0.824420 -0.498310
O8    O     O_R   0.237080 0.288600 0.175580 -0.484388
O9    O     O_R   0.167530 0.905110 0.830340 -0.525083
O10   O     O_R   0.832470 0.905110 0.169660 -0.531252
O11   O     O_R   0.667530 0.405110 0.830340 -0.520652
O12   O     O_R   0.332470 0.405110 0.169660 -0.521875
O13   O     O_R   0.054010 0.748440 0.822860 -0.504487
O14   O     O_R   0.945990 0.748440 0.177140 -0.509333
O15   O     O_R   0.554010 0.248440 0.822860 -0.495421
O16   O     O_R   0.445990 0.248440 0.177140 -0.490570
O17   O     O_3   0.165160 0.665150 0.749190 -0.304531
O18   O     O_3   0.834840 0.665150 0.250810 -0.299966
O19   O     O_3   0.665160 0.165150 0.749190 -0.281217
O20   O     O_3   0.334840 0.165150 0.250810 -0.281313
O21   O     O_R   0.178620 0.457600 0.674100 -0.530622
O22   O     O_R   0.821380 0.457600 0.325900 -0.522578
O23   O     O_R   0.678620 0.957600 0.674100 -0.535728
O24   O     O_R   0.321380 0.957600 0.325900 -0.527908
O25   O     O_R   0.284680 0.542100 0.669460 -0.548995
O26   O     O_R   0.715320 0.542100 0.330540 -0.529425
O27   O     O_R   0.784680 0.042100 0.669460 -0.547440
O28   O     O_R   0.215320 0.042100 0.330540 -0.533880
O29   O     O_R   0.262860 0.790390 0.676650 -0.482355
O30   O     O_R   0.737140 0.790390 0.323350 -0.445183
O31   O     O_R   0.762860 0.290390 0.676650 -0.480479
O32   O     O_R   0.237140 0.290390 0.323350 -0.444768
O33   O     O_R   0.167460 0.907030 0.670940 -0.590101
O34   O     O_R   0.832540 0.907030 0.329060 -0.592114
O35   O     O_R   0.667460 0.407030 0.670940 -0.592396
O36   O     O_R   0.332540 0.407030 0.329060 -0.596190
O37   O     O_R   0.053950 0.750220 0.675100 -0.507149
O38   O     O_R   0.946050 0.750220 0.324900 -0.504882
O39   O     O_R   0.553950 0.250220 0.675100 -0.511911
O40   O     O_R   0.446050 0.250220 0.324900 -0.506318
O41   O     O_R   0.043300 0.547370 0.827390 -0.515423
O42   O     O_R   0.956700 0.547370 0.172610 -0.509447
O43   O     O_R   0.543300 0.047370 0.827390 -0.512403
O44   O     O_R   0.456700 0.047370 0.172610 -0.512533
O45   O     O_R   0.178690 0.455820 0.821860 -0.510651
O46   O     O_R   0.821310 0.455820 0.178140 -0.519920
O47   O     O_R   0.678690 0.955820 0.821860 -0.518152
O48   O     O_R   0.321310 0.955820 0.178140 -0.522447
O49   O     O_R   0.284750 0.540170 0.828860 -0.477401
O50   O     O_R   0.715250 0.540170 0.171140 -0.478086
O51   O     O_R   0.784750 0.040170 0.828860 -0.459473
O52   O     O_R   0.215250 0.040170 0.171140 -0.450634
H41   H     H_    0.333390 0.032540 0.458221 0.114043
H42   H     H_    0.678226 0.798719 0.576627 0.119734
H43   H     H_    0.833402 0.532570 0.458214 0.113668
H44   H     H_    0.178185 0.298810 0.576617 0.120104
O53   O     O_3   0.353007 0.863257 0.572994 -0.549172
C93   C     C_3   0.346784 0.741660 0.558209 0.000706
H45   H     H_    0.361898 0.726742 0.502675 0.177710
H46   H     H_    0.293737 0.704043 0.564372 0.137138
C94   C     C_3   0.393628 0.679544 0.609745 -0.271749
H47   H     H_    0.376485 0.691579 0.665239 0.174472
H48   H     H_    0.396679 0.583525 0.598176 0.165680
H49   H     H_    0.443473 0.725797 0.605528 0.214689
O54   O     O_3   0.659805 0.783046 0.434355 -0.540110
C95   C     C_3   0.659989 0.662336 0.453946 0.012991
H50   H     H_    0.649091 0.647308 0.510756 0.107426
H51   H     H_    0.711030 0.625723 0.443885 0.163871
C96   C     C_3   0.604327 0.598886 0.412275 -0.313222
H52   H     H_    0.605546 0.624510 0.355155 0.182054
H53   H     H_    0.608669 0.500975 0.418992 0.107602
H54   H     H_    0.554820 0.627690 0.432839 0.184549
O55   O     O_3   0.852989 0.363118 0.572924 -0.548626
C97   C     C_3   0.846694 0.241558 0.558060 -0.000330
H55   H     H_    0.861782 0.226675 0.502504 0.177646
H56   H     H_    0.793633 0.204018 0.564262 0.136812
C98   C     C_3   0.893545 0.179322 0.609524 -0.270378
H57   H     H_    0.876442 0.191326 0.665031 0.177549
H58   H     H_    0.896564 0.083318 0.597913 0.166060
H59   H     H_    0.943397 0.225549 0.605305 0.214467
O56   O     O_3   0.159811 0.282945 0.434357 -0.539822
C99   C     C_3   0.160055 0.162263 0.454014 0.013646
H60   H     H_    0.149171 0.147313 0.510837 0.107237
H61   H     H_    0.211109 0.125705 0.443946 0.164462
C100  C     C_3   0.104410 0.098667 0.412407 -0.313924
H62   H     H_    0.105571 0.124199 0.355272 0.181569
H63   H     H_    0.108796 0.000772 0.419172 0.106564
H64   H     H_    0.054916 0.127454 0.433005 0.184822
O57   O     O_3   0.931836 0.081615 0.453472 -0.634052
C101  C     C_3   0.918600 0.082294 0.379011 -0.054082
H65   H     H_    0.862170 0.081745 0.373192 0.192644
H66   H     H_    0.944426 0.009492 0.349930 0.172573
C102  C     C_3   0.939451 0.197301 0.340685 -0.410348
H67   H     H_    0.993482 0.223567 0.350782 0.148317
H68   H     H_    0.933749 0.185107 0.282474 0.110660
H69   H     H_    0.903925 0.268983 0.355392 0.156444
O58   O     O_3   0.022684 0.089242 0.570662 -0.623518
C103  C     C_3   0.058799 0.076508 0.636493 -0.049670
H70   H     H_    0.114509 0.078964 0.624772 0.162075
H71   H     H_    0.043411 0.994375 0.666344 0.183489
C104  C     C_3   0.046123 0.177673 0.688247 -0.397722
H72   H     H_    0.994182 0.169296 0.712290 0.117394
H73   H     H_    0.084009 0.171331 0.732448 0.124660
H74   H     H_    0.052454 0.266428 0.662948 0.160367
O59   O     O_3   0.431754 0.581720 0.453621 -0.633873
C105  C     C_3   0.418369 0.582451 0.379196 -0.053743
H75   H     H_    0.361934 0.581645 0.373491 0.191094
H76   H     H_    0.444276 0.509840 0.350025 0.173451
C106  C     C_3   0.438947 0.697628 0.340920 -0.411328
H77   H     H_    0.493005 0.723988 0.350824 0.148552
H78   H     H_    0.433006 0.685637 0.282720 0.107057
H79   H     H_    0.403381 0.769095 0.355864 0.155492
O60   O     O_3   0.522706 0.589415 0.570658 -0.623218
C107  C     C_3   0.558926 0.576763 0.636434 -0.049157
H80   H     H_    0.614616 0.579032 0.624619 0.161780
H81   H     H_    0.543517 0.494723 0.666362 0.181681
C108  C     C_3   0.546443 0.678104 0.688137 -0.399178
H82   H     H_    0.494559 0.669911 0.712329 0.113924
H83   H     H_    0.584451 0.671835 0.732229 0.116815
H84   H     H_    0.552756 0.766796 0.662773 0.160781
O61   O     O_3   0.142539 0.010903 0.065107 -0.515320
C109  C     C_3   0.079704 0.953119 0.081243 0.003262
H85   H     H_    0.087441 0.875960 0.118273 0.132849
H86   H     H_    0.054485 0.923029 0.031595 0.102074
C110  C     C_3   0.031893 0.040272 0.117214 -0.358065
H87   H     H_    0.022251 0.117902 0.081508 0.145625
H88   H     H_    0.981953 0.995800 0.129566 0.113175
H89   H     H_    0.055464 0.071741 0.167483 0.158779
O62   O     O_3   0.870944 0.929686 0.912358 -0.530534
C111  C     C_3   0.915673 0.002373 0.952489 -0.005926
H90   H     H_    0.939589 0.950220 0.996364 0.109651
H91   H     H_    0.887881 0.079957 0.974572 0.135085
C112  C     C_3   0.973181 0.049238 0.904682 -0.361130
H92   H     H_    0.951202 0.102649 0.860116 0.157778
H93   H     H_    0.008816 0.106377 0.935738 0.107063
H94   H     H_    0.002706 0.973916 0.882753 0.170510
O63   O     O_3   0.697426 0.653797 0.047350 -0.539105
C113  C     C_3   0.625982 0.651409 0.032153 -0.003463
H95   H     H_    0.603773 0.559620 0.035654 0.127152
H96   H     H_    0.616357 0.689958 0.978381 0.113018
C114  C     C_3   0.588272 0.727653 0.085505 -0.341753
H97   H     H_    0.607281 0.820965 0.082163 0.153592
H98   H     H_    0.532156 0.726503 0.073772 0.074066
H99   H     H_    0.596677 0.692423 0.140236 0.172846
O64   O     O_3   0.303827 0.655718 0.948896 -0.540797
C115  C     C_3   0.375353 0.652800 0.963564 -0.001351
H100  H     H_    0.396198 0.560539 0.963564 0.129152
H101  H     H_    0.385880 0.694548 0.015718 0.110569
C116  C     C_3   0.413785 0.724610 0.906877 -0.345793
H102  H     H_    0.395537 0.817937 0.905874 0.148641
H103  H     H_    0.469883 0.724491 0.918694 0.071250
H104  H     H_    0.405127 0.685005 0.853827 0.170231

loop_
_geom_bond_atom_site_label_1
_geom_bond_atom_site_label_2
_ccdc_geom_bond_type
Cr2   O2    S    
C7    C83   D    
C104  H73   S    
C6    C82   D    
C87   C91   D    
C86   H22   S    
C111  C112  S    
C77   O41   A    
O53   C93   S    
C14   C18   A    
C85   H21   S    
C35   C36   A    
C38   H10   S    
C48   O36   A    
C52   O64   S    
C36   H40   S    
Cr11  O15   S    
C37   H9    S    
Cr2   O22   S    
C87   H23   S    
C3    O23   A    
C97   H55   S    
Cr3   O43   S    
C57   C62   D    
C6    O54   S    
C65   O37   A    
C96   H52   S    
Cr8   O8    S    
C15   C19   A    
C29   H34   S    
C96   H54   S    
C12   C23   A    
C74   O10   A    
C59   C64   D    
C50   C54   S    
C79   O43   A    
C46   O34   A    
C60   C63   D    
Cr11  O39   S    
C74   O6    A    
C32   C36   A    
C14   C21   A    
Cr8   O28   S    
C16   C20   A    
O62   C111  S    
Cr12  O16   S    
C115  H100  S    
C114  H99   S    
Cr3   O19   S    
C95   H50   S    
C79   O15   A    
C106  H77   S    
Cr6   O30   S    
Cr4   O20   S    
C9    C22   A    
C10   C65   S    
C15   H31   S    
C76   O8    A    
C105  H76   S    
C115  C116  S    
C29   C33   A    
C11   C24   A    
C109  H86   S    
C114  H98   S    
Cr5   O25   S    
C113  H96   S    
Cr6   O50   S    
C114  H97   S    
C111  H90   S    
Cr5   O49   S    
Cr4   O44   S    
C9    C66   S    
C56   H4    S    
Cr7   O27   S    
C47   O35   A    
C3    O27   A    
C57   H18   S    
C46   C82   S    
C71   O51   A    
C78   O14   A    
C69   O49   A    
C39   C55   D    
C88   C92   D    
C75   O7    A    
C43   C70   S    
C40   C56   D    
C93   C94   S    
Cr8   O32   S    
C103  H71   S    
C23   C24   A    
Cr4   O24   S    
Cr1   O1    S    
C78   O42   A    
C39   C75   S    
C82   H26   S    
O61   C109  S    
Cr10  O10   S    
C51   C55   S    
C68   O4    A    
C45   O33   A    
C20   O60   S    
C37   C53   D    
C44   C52   D    
C58   C61   D    
C96   H53   S    
C66   O38   A    
Cr1   O21   S    
Cr9   O17   S    
C30   H33   S    
C41   H5    S    
C110  H87   S    
C105  C106  S    
C3    C86   S    
C40   H12   S    
Cr10  O14   S    
C61   C62   S    
C101  H66   S    
C88   H24   S    
C53   H1    S    
C62   H14   S    
C41   C49   D    
Cr6   O18   S    
C100  H62   S    
C34   H38   S    
C9    C26   A    
C17   C18   A    
Cr8   O52   S    
C10   C21   A    
C25   C29   A    
Cr4   O4    S    
C12   C67   S    
C103  C104  S    
Cr5   O29   S    
C93   H45   S    
C54   H2    S    
C12   C27   A    
C27   C31   A    
Cr10  O38   S    
C57   C77   S    
C28   C32   A    
C76   O12   A    
Cr3   O3    S    
C32   H35   S    
O54   C95   S    
Cr10  O18   S    
C86   C90   D    
C59   C79   S    
C108  H83   S    
C110  H88   S    
C30   C34   A    
C19   O59   S    
C5    O53   S    
C4    C85   S    
C14   H30   S    
C38   C74   S    
C33   H37   S    
C105  H75   S    
C6    C90   S    
C61   H13   S    
C84   H28   S    
C40   C76   S    
C112  H94   S    
C55   H3    S    
C17   O57   S    
C101  C102  S    
Cr6   O26   S    
Cr12  O36   S    
C60   H19   S    
C107  H81   S    
C98   H59   S    
Cr2   O46   S    
C95   C96   S    
C83   H27   S    
C116  H102  S    
C94   H47   S    
C45   O29   A    
C108  H84   S    
C98   H57   S    
C5    C81   D    
C97   H56   S    
C38   C54   D    
Cr9   O9    S    
C70   O50   A    
C7    C91   S    
C46   O30   A    
O56   C99   S    
O59   C105  S    
C2    C87   S    
Cr8   O20   S    
C25   C26   A    
Cr12  O12   S    
C39   H11   S    
C93   H46   S    
C42   C50   D    
C41   C72   S    
C8    C92   S    
C44   H8    S    
C18   O58   S    
Cr11  O11   S    
C15   C24   A    
Cr12  O40   S    
C2    O26   A    
Cr1   O17   S    
C99   H60   S    
C16   C23   A    
C99   H61   S    
C102  H68   S    
C67   O3    A    
C81   H25   S    
Cr10  O34   S    
C112  H92   S    
Cr7   O19   S    
C110  H89   S    
C107  C108  S    
C101  H65   S    
C2    O22   A    
C65   O1    A    
C16   H32   S    
C106  H78   S    
O60   C107  S    
Cr9   O37   S    
C11   C68   S    
C10   C25   A    
C97   C98   S    
O64   C115  S    
Cr6   O6    S    
C94   H49   S    
C115  H101  S    
C59   H20   S    
Cr5   O5    S    
C37   C73   S    
C102  H69   S    
C60   C80   S    
C58   H17   S    
C85   C89   D    
Cr1   O45   S    
C4    O28   A    
C103  H70   S    
C1    O21   A    
C8    C84   D    
C4    O24   A    
C13   H29   S    
C70   O46   A    
C45   C81   S    
Cr2   O42   S    
C104  H72   S    
C47   C83   S    
C69   O45   A    
C109  C110  S    
Cr3   O23   S    
C72   O52   A    
C106  H79   S    
Cr5   O17   S    
C8    O56   S    
C75   O11   A    
C26   C30   A    
C90   H42   S    
Cr3   O47   S    
C116  H104  S    
C99   C100  S    
C89   H41   S    
C43   H7    S    
C35   H39   S    
Cr11  O19   S    
C64   H16   S    
C13   C17   A    
C98   H58   S    
C95   H51   S    
C19   C20   A    
C112  H93   S    
C107  H80   S    
O63   C113  S    
C68   O40   A    
C91   H43   S    
C100  H63   S    
C92   H44   S    
C113  H95   S    
Cr7   O51   S    
C43   C51   D    
Cr12  O20   S    
C108  H82   S    
Cr7   O7    S    
C11   C28   A    
C1    C88   S    
O58   C103  S    
C49   C53   S    
C100  H64   S    
C31   C35   A    
C1    O25   A    
C42   C71   S    
C33   C34   A    
C13   C22   A    
Cr11  O35   S    
O55   C97   S    
C42   H6    S    
Cr4   O48   S    
C102  H67   S    
C66   O2    A    
C50   O62   S    
C80   O16   A    
C109  H85   S    
C58   C78   S    
C47   O31   A    
Cr9   O13   S    
C63   C64   S    
C7    O55   S    
C48   C84   S    
Cr7   O31   S    
C113  C114  S    
C116  H103  S    
C63   H15   S    
C73   O5    A    
C104  H74   S    
C73   O9    A    
C27   C28   A    
C44   C69   S    
C49   O61   S    
C51   O63   S    
C67   O39   A    
C71   O47   A    
C31   H36   S    
C21   C22   A    
C94   H48   S    
C72   O48   A    
Cr9   O33   S    
C5    C89   S    
Cr2   O18   S    
C52   C56   S    
O57   C101  S    
C77   O13   A    
C48   O32   A    
C80   O44   A    
C111  H91   S    
Cr1   O41   S    
