data_mof_unit_58229.cif
_audit_creation_date              2012-10-26T20:21:11-0400
_audit_creation_method            fapswitch 2.2
_symmetry_space_group_name_H-M    P1
_symmetry_Int_Tables_number       1
_space_group_crystal_system       triclinic
_cell_length_a                    9.588637
_cell_length_b                    10.788819
_cell_length_c                    15.380846
_cell_angle_alpha                 88.057212
_cell_angle_beta                  74.817865
_cell_angle_gamma                 89.106072
_cell_volume                      1534.69560729

loop_
_atom_site_label
_atom_site_type_symbol
_atom_type_description
_atom_site_fract_x
_atom_site_fract_y
_atom_site_fract_z
_atom_type_partial_charge
C1    C     C_R   0.999548 0.262403 0.503014 0.530694
C2    C     C_R   0.118932 0.067735 0.450210 -0.094824
C3    C     C_R   0.999814 0.871745 0.494324 -0.039366
C4    C     C_R   0.000183 0.128243 0.505636 -0.039209
C5    C     C_R   0.553991 0.422399 0.556522 0.037585
C6    C     C_R   0.445974 0.577639 0.443517 0.037495
C7    C     C_R   0.405870 0.421433 0.557383 0.112449
C8    C     C_R   0.594046 0.578703 0.442731 0.112418
C9    C     C_R   0.918592 0.499142 0.672364 0.538983
C10   C     C_R   0.081373 0.501812 0.327719 0.538057
C11   C     C_R   0.873515 0.495189 0.771488 -0.005013
C12   C     C_R   0.000457 0.737593 0.496967 0.530384
C13   C     C_R   0.126863 0.515098 0.229000 -0.003448
C14   C     C_R   0.922393 0.451825 0.915745 -0.067303
C15   C     C_R   0.086445 0.592044 0.088421 -0.062282
C16   C     C_R   0.971228 0.465825 0.822417 -0.131720
C17   C     C_R   0.034485 0.565548 0.180331 -0.123974
C18   C     C_R   0.727880 0.515665 0.815174 -0.128712
C19   C     C_R   0.270517 0.488629 0.184568 -0.126296
C20   C     C_R   0.676293 0.507394 0.909701 -0.005728
C21   C     C_R   0.328574 0.520909 0.092792 -0.006250
C22   C     C_R   0.775391 0.470123 0.960058 0.091343
C23   C     C_R   0.580529 0.468013 0.096729 -0.114149
C24   C     C_R   0.232850 0.571294 0.043959 0.087388
C25   C     C_R   0.528397 0.530843 0.954704 -0.009494
C26   C     C_R   0.478455 0.505198 0.048882 -0.007894
C27   C     C_3   0.315564 0.329966 0.623935 -0.351482
C28   C     C_3   0.684096 0.670673 0.376550 -0.352842
C29   C     C_R   0.430031 0.582258 0.908688 -0.116681
C30   C     C_R   0.726907 0.450306 0.053482 0.230542
C31   C     C_R   0.284182 0.602317 0.952104 0.228874
C32   C     C_R   0.880749 0.059872 0.557540 0.223316
C33   C     C_R   0.119230 0.940111 0.442401 0.223020
C34   C     C_R   0.881059 0.932250 0.549741 -0.094694
Cu1   Cu    Cu3+1 0.140660 0.500020 0.500000 0.936192
Cu2   Cu    Cu3+1 0.859340 0.499980 0.500000 0.935963
H1    H     H_    0.334379 0.442627 0.224077 0.128275
H2    H     H_    0.209409 0.120532 0.409477 0.164467
H3    H     H_    0.594024 0.360495 0.601561 0.137408
H4    H     H_    0.405910 0.639596 0.398520 0.138208
H5    H     H_    0.772998 0.399920 0.166094 0.326910
H6    H     H_    0.241854 0.667392 0.841550 0.328446
H7    H     H_    0.794433 0.192460 0.637229 0.328987
H8    H     H_    0.205479 0.807519 0.362694 0.329107
H9    H     H_    0.200859 0.329774 0.626769 0.195227
H10   H     H_    0.357484 0.234716 0.607352 0.127743
H11   H     H_    0.324103 0.349763 0.692757 0.090024
H12   H     H_    0.655583 0.533419 0.773248 0.128411
H13   H     H_    0.798946 0.670309 0.373325 0.193555
H14   H     H_    0.674739 0.651918 0.307731 0.087988
H15   H     H_    0.642544 0.765823 0.393882 0.128553
H16   H     H_    0.923106 0.587197 0.213527 0.127629
H17   H     H_    0.084369 0.449657 0.790058 0.131679
H18   H     H_    0.000262 0.425127 0.952910 0.185937
H19   H     H_    0.011850 0.631484 0.052781 0.187521
H20   H     H_    0.551118 0.455000 0.168791 0.090653
H21   H     H_    0.464346 0.612903 0.839156 0.095420
H22   H     H_    0.790582 0.879453 0.590474 0.164375
N1    N     N_R   0.352080 0.500030 0.499980 -0.226075
N2    N     N_R   0.647920 0.499970 0.500020 -0.225910
O1    O     O_R   0.118740 0.319660 0.500000 -0.519622
O2    O     O_3   0.190137 0.653346 0.905878 -0.722778
O3    O     O_3   0.764419 0.112739 0.618008 -0.694063
O4    O     O_3   0.235521 0.887235 0.381906 -0.693881
O5    O     O_R   0.881260 0.680340 0.500000 -0.519710
O6    O     O_R   0.881170 0.319630 0.500010 -0.478307
O7    O     O_R   0.118830 0.680370 0.499990 -0.478683
O8    O     O_R   0.055570 0.500030 0.629830 -0.509196
O9    O     O_R   0.944430 0.499970 0.370170 -0.508367
O10   O     O_R   0.818000 0.500000 0.629840 -0.514082
O11   O     O_R   0.182000 0.500000 0.370160 -0.512922
O12   O     O_3   0.823882 0.410734 0.101336 -0.726269

loop_
_geom_bond_atom_site_label_1
_geom_bond_atom_site_label_2
_ccdc_geom_bond_type
C30   O12   S    
C21   C26   A    
C23   C30   A    
C11   C18   A    
C32   C34   A    
C1    O1    A    
C13   C17   A    
Cu1   N1    S    
C28   H13   S    
C2    H2    S    
Cu2   O6    S    
C2    C4    A    
Cu1   Cu2   S    
C3    C34   A    
Cu1   O7    S    
H6    O2    S    
C1    C4    S    
Cu2   O5    S    
C10   O11   A    
C27   H9    S    
C1    O6    A    
C17   H16   S    
C9    O8    A    
Cu1   O11   S    
C23   H20   S    
C29   C31   A    
C25   C26   A    
C22   C30   A    
H8    O4    S    
C9    C11   S    
C31   O2    S    
C14   C22   A    
C4    C32   A    
Cu1   O8    S    
Cu1   O1    S    
C33   O4    S    
C2    C33   A    
C7    N1    A    
C15   C24   A    
C19   C21   A    
C29   H21   S    
C6    H4    S    
C12   O5    A    
C5    H3    S    
C15   H19   S    
C25   C29   A    
Cu2   O9    S    
C8    C28   S    
C12   O7    A    
C14   C16   A    
C21   C24   A    
C24   C31   A    
C20   C25   A    
C20   C22   A    
H7    O3    S    
C10   O9    A    
C7    C27   S    
C9    O10   A    
C27   H10   S    
C18   C20   A    
C34   H22   S    
C11   C16   A    
C23   C26   A    
C27   H11   S    
C15   C17   A    
C3    C33   A    
C5    C7    A    
C13   C19   A    
C6    C8    A    
C3    C12   S    
C19   H1    S    
C5    N2    A    
C14   H18   S    
C28   H15   S    
C16   H17   S    
C28   H14   S    
C6    N1    A    
C8    N2    A    
H5    O12   S    
C32   O3    S    
Cu2   O10   S    
Cu2   N2    S    
C10   C13   S    
C18   H12   S    
