data_mof_unit_57583.cif
_audit_creation_date              2012-12-11T15:12:24-0500
_audit_creation_method            fapswitch 2.2
_symmetry_space_group_name_H-M    P1
_symmetry_Int_Tables_number       1
_space_group_crystal_system       triclinic
_cell_length_a                    31.198543
_cell_length_b                    22.513641
_cell_length_c                    17.927447
_cell_angle_alpha                 90.309149
_cell_angle_beta                  123.989091
_cell_angle_gamma                 89.658265
_cell_volume                      10440.4545158

loop_
_atom_site_label
_atom_site_type_symbol
_atom_type_description
_atom_site_fract_x
_atom_site_fract_y
_atom_site_fract_z
_atom_type_partial_charge
C1    C     C_R   0.545188 0.582919 0.743937 -0.124818
C2    C     C_R   0.454389 0.418530 0.254804 -0.139886
C3    C     C_R   0.454817 0.582186 0.255856 -0.132927
C4    C     C_R   0.545756 0.419005 0.745389 -0.134212
C5    C     C_R   0.035990 0.104006 0.717849 -0.115704
C6    C     C_R   0.964596 0.892814 0.286611 -0.125995
C7    C     C_R   0.965401 0.104936 0.285575 -0.097348
C8    C     C_R   0.034845 0.893464 0.712913 -0.109570
C9    C     C_R   0.709529 0.318243 0.464704 0.069150
C10   C     C_R   0.277745 0.682600 0.496573 0.068741
C11   C     C_R   0.290074 0.311945 0.537586 0.076310
C12   C     C_R   0.735322 0.681138 0.519926 0.064024
C13   C     C_R   0.223415 0.834660 0.449840 0.060261
C14   C     C_R   0.754177 0.163321 0.481905 0.040993
C15   C     C_R   0.773626 0.839456 0.557854 0.062479
C16   C     C_R   0.259611 0.152299 0.531747 0.046730
C17   C     C_R   0.711016 0.255801 0.469352 0.001528
C18   C     C_R   0.271895 0.743859 0.478318 0.002436
C19   C     C_R   0.294332 0.249497 0.537828 -0.009482
C20   C     C_R   0.734866 0.742769 0.534517 -0.014814
C21   C     C_R   0.229742 0.773440 0.469167 0.009458
C22   C     C_R   0.752439 0.225696 0.476389 0.008245
C23   C     C_R   0.773593 0.777873 0.542285 0.007345
C24   C     C_R   0.255041 0.214867 0.529665 0.002776
C25   C     C_R   0.671650 0.223543 0.468854 0.039427
C26   C     C_R   0.307866 0.775399 0.468451 0.039984
C27   C     C_R   0.336986 0.221911 0.543133 0.055647
C28   C     C_R   0.694855 0.769599 0.538511 0.044590
C29   C     C_R   0.194117 0.741956 0.480218 0.050753
C30   C     C_R   0.792115 0.257954 0.478058 0.049330
C31   C     C_R   0.811282 0.751737 0.531255 0.074617
C32   C     C_R   0.210179 0.243122 0.515443 0.050189
C33   C     C_R   0.745003 0.350203 0.455199 0.163845
C34   C     C_R   0.238462 0.649493 0.493388 0.155910
C35   C     C_R   0.251463 0.339302 0.543873 0.156830
C36   C     C_R   0.778603 0.653678 0.528216 0.150098
C37   C     C_R   0.253915 0.864517 0.426351 0.149516
C38   C     C_R   0.711304 0.130639 0.465910 0.143485
C39   C     C_R   0.740373 0.864030 0.580117 0.131649
C40   C     C_R   0.306332 0.124871 0.553697 0.135615
C41   C     C_R   0.297066 0.834949 0.439640 -0.263390
C42   C     C_R   0.672237 0.161152 0.465650 -0.256085
C43   C     C_R   0.699269 0.829325 0.564509 -0.248112
C44   C     C_R   0.343831 0.160316 0.556286 -0.251950
C45   C     C_R   0.786772 0.319882 0.465313 -0.282389
C46   C     C_R   0.198939 0.679945 0.490987 -0.279652
C47   C     C_R   0.210072 0.304922 0.526533 -0.284298
C48   C     C_R   0.815391 0.689660 0.530812 -0.285481
C49   C     C_R   0.369990 0.614919 0.106552 -0.103399
C50   C     C_R   0.632068 0.390381 0.894435 -0.094660
C51   C     C_R   0.628420 0.619365 0.890833 -0.117501
C52   C     C_R   0.368701 0.388918 0.105633 -0.093916
C53   C     C_R   0.902419 0.190026 0.195991 -0.094378
C54   C     C_R   0.097329 0.805699 0.795298 -0.098769
C55   C     C_R   0.097010 0.192704 0.799822 -0.095793
C56   C     C_R   0.904163 0.801377 0.212602 -0.096782
C57   C     C_R   0.357562 0.647815 0.965466 0.431993
C58   C     C_R   0.652163 0.373491 0.045665 0.433129
C59   C     C_R   0.637154 0.660127 0.025566 0.433016
C60   C     C_R   0.352568 0.363596 0.959018 0.434123
C61   C     C_R   0.899861 0.254120 0.084176 0.426808
C62   C     C_R   0.091319 0.728813 0.884655 0.430139
C63   C     C_R   0.093915 0.266241 0.897546 0.429476
C64   C     C_R   0.912962 0.717604 0.134443 0.428872
C65   C     C_R   0.390694 0.629324 0.055813 0.434208
C66   C     C_R   0.618249 0.395607 0.957128 0.451393
C67   C     C_R   0.605665 0.640705 0.935597 0.433383
C68   C     C_R   0.384966 0.388526 0.046023 0.444419
C69   C     C_R   0.922964 0.207208 0.146056 0.457662
C70   C     C_R   0.075380 0.783937 0.840712 0.448257
C71   C     C_R   0.071947 0.217345 0.838923 0.451681
C72   C     C_R   0.929211 0.773830 0.175491 0.458549
C73   C     C_R   0.316485 0.620963 0.065196 -0.340755
C74   C     C_R   0.681388 0.369890 0.924532 -0.358630
C75   C     C_R   0.682544 0.619818 0.937372 -0.336194
C76   C     C_R   0.318081 0.372162 0.072530 -0.355060
C77   C     C_R   0.864088 0.225275 0.192353 -0.338872
C78   C     C_R   0.136295 0.772322 0.797837 -0.337317
C79   C     C_R   0.138407 0.223738 0.808471 -0.345618
C80   C     C_R   0.862632 0.771608 0.205920 -0.340934
C81   C     C_R   0.283352 0.642091 0.977234 0.032044
C82   C     C_R   0.717765 0.355939 0.014226 0.033642
C83   C     C_R   0.714283 0.644368 0.023920 0.032388
C84   C     C_R   0.283449 0.354911 0.983512 0.032297
C85   C     C_R   0.841697 0.273549 0.133255 0.031103
C86   C     C_R   0.156995 0.720748 0.850471 0.030066
C87   C     C_R   0.158947 0.274702 0.862111 0.033118
C88   C     C_R   0.842316 0.718713 0.156440 0.032713
C89   C     C_R   0.632649 0.602573 0.576597 0.611978
C90   C     C_R   0.374780 0.389749 0.427951 0.614443
C91   C     C_R   0.374747 0.609916 0.424409 0.604849
C92   C     C_R   0.623130 0.388025 0.571897 0.619422
C93   C     C_R   0.141384 0.089039 0.574019 0.604831
C94   C     C_R   0.859115 0.910037 0.428519 0.580367
C95   C     C_R   0.863352 0.098106 0.424758 0.590645
C96   C     C_R   0.136231 0.900939 0.571138 0.600980
C97   C     C_R   0.304689 0.658176 0.928517 -0.069011
C98   C     C_R   0.701962 0.352736 0.073884 -0.059605
C99   C     C_R   0.690820 0.666363 0.066998 -0.072043
C100  C     C_R   0.301951 0.345567 0.928425 -0.057352
C101  C     C_R   0.859431 0.286999 0.077506 -0.069919
C102  C     C_R   0.134483 0.699686 0.895468 -0.079218
C103  C     C_R   0.137513 0.294495 0.909887 -0.071275
C104  C     C_R   0.867250 0.692608 0.118316 -0.074977
C105  C     C_R   0.230427 0.653995 0.941063 0.137240
C106  C     C_R   0.768301 0.339403 0.042477 0.141164
C107  C     C_R   0.768060 0.653487 0.064170 0.137704
C108  C     C_R   0.232050 0.340559 0.952166 0.138566
C109  C     C_R   0.798238 0.304640 0.120666 0.141366
C110  C     C_R   0.202897 0.693346 0.867354 0.145275
C111  C     C_R   0.203849 0.302668 0.877046 0.144111
C112  C     C_R   0.794728 0.694693 0.135991 0.142810
C113  C     C_R   0.789202 0.356174 0.993544 -0.271015
C114  C     C_R   0.204781 0.629797 0.978315 -0.265270
C115  C     C_R   0.208532 0.362397 0.994898 -0.266968
C116  C     C_R   0.795535 0.625030 0.032758 -0.262624
C117  C     C_R   0.223717 0.705817 0.816648 -0.263637
C118  C     C_R   0.782217 0.300926 0.180430 -0.262167
C119  C     C_R   0.771678 0.712246 0.181593 -0.259841
C120  C     C_R   0.222642 0.292973 0.822120 -0.261866
C121  C     C_R   0.834898 0.331480 0.012566 -0.129849
C122  C     C_R   0.156884 0.651374 0.954011 -0.123960
C123  C     C_R   0.161124 0.340940 0.971931 -0.130645
C124  C     C_R   0.844988 0.643268 0.061566 -0.129788
C125  C     C_R   0.273284 0.686847 0.845477 -0.133191
C126  C     C_R   0.735755 0.327065 0.158862 -0.142713
C127  C     C_R   0.720983 0.696737 0.148909 -0.132352
C128  C     C_R   0.270074 0.316342 0.845774 -0.146176
C129  C     C_R   0.578945 0.606831 0.424806 -0.251565
C130  C     C_R   0.427447 0.390125 0.577926 -0.222554
C131  C     C_R   0.427815 0.612382 0.574866 -0.253782
C132  C     C_R   0.570814 0.388713 0.422255 -0.257419
C133  C     C_R   0.090798 0.090013 0.423529 -0.283056
C134  C     C_R   0.910830 0.910828 0.578965 -0.237644
C135  C     C_R   0.914515 0.100574 0.575411 -0.267842
C136  C     C_R   0.084694 0.902315 0.421085 -0.268545
C137  C     C_R   0.383165 0.580540 0.254820 -0.146834
C138  C     C_R   0.617193 0.421401 0.745903 -0.104591
C139  C     C_R   0.616502 0.583035 0.743600 -0.181341
C140  C     C_R   0.382916 0.420974 0.254268 -0.108386
C141  C     C_R   0.891979 0.104790 0.280561 -0.182361
C142  C     C_R   0.108074 0.894706 0.717363 -0.174458
C143  C     C_R   0.107888 0.104974 0.718001 -0.165815
C144  C     C_R   0.892934 0.893165 0.286943 -0.161820
C145  C     C_R   0.597140 0.599133 0.794866 0.135819
C146  C     C_R   0.401831 0.405972 0.202316 0.116446
C147  C     C_R   0.402323 0.596521 0.203436 0.119394
C148  C     C_R   0.598389 0.406694 0.797777 0.113856
C149  C     C_R   0.081097 0.135706 0.748559 0.137810
C150  C     C_R   0.919702 0.860698 0.258368 0.123561
C151  C     C_R   0.919310 0.135282 0.251489 0.132933
C152  C     C_R   0.080979 0.862969 0.745373 0.125672
C153  C     C_R   0.619160 0.634761 0.500576 -0.087398
C154  C     C_R   0.390859 0.357341 0.505854 -0.123849
C155  C     C_R   0.391313 0.645057 0.500289 -0.123730
C156  C     C_R   0.606167 0.354544 0.494019 -0.132700
C157  C     C_R   0.136401 0.110498 0.497396 -0.041151
C158  C     C_R   0.865617 0.889949 0.507503 -0.078140
C159  C     C_R   0.873048 0.127823 0.500647 -0.100006
C160  C     C_R   0.125434 0.873488 0.492199 -0.105121
C161  C     C_R   0.632430 0.254400 0.470440 0.060954
C162  C     C_R   0.352025 0.745805 0.482227 0.056148
C163  C     C_R   0.370994 0.257020 0.533778 0.063371
C164  C     C_R   0.652500 0.735184 0.519637 0.081511
C165  C     C_R   0.154224 0.773150 0.478770 0.073208
C166  C     C_R   0.834900 0.227433 0.488264 0.056306
C167  C     C_R   0.843233 0.788706 0.520135 0.070169
C168  C     C_R   0.167204 0.208717 0.492969 0.109230
C169  C     C_R   0.638244 0.316497 0.481564 0.121513
C170  C     C_R   0.357518 0.685091 0.505388 0.132169
C171  C     C_R   0.359849 0.317876 0.518003 0.088032
C172  C     C_R   0.652629 0.675169 0.498440 0.077056
C173  C     C_R   0.156910 0.835666 0.478534 0.113655
C174  C     C_R   0.837317 0.165514 0.503001 0.114392
C175  C     C_R   0.835441 0.850217 0.519920 0.073340
C176  C     C_R   0.172711 0.146699 0.494868 0.065800
C177  C     C_R   0.674111 0.347446 0.474167 -0.271269
C178  C     C_R   0.322089 0.655273 0.515052 -0.272340
C179  C     C_R   0.322700 0.345302 0.525988 -0.263341
C180  C     C_R   0.692728 0.648600 0.498419 -0.249328
C181  C     C_R   0.187908 0.865226 0.458153 -0.287476
C182  C     C_R   0.798595 0.134736 0.501796 -0.279148
C183  C     C_R   0.805127 0.875178 0.545947 -0.290593
C184  C     C_R   0.217488 0.118888 0.513473 -0.289798
H1    H     H_    0.520443 0.578347 0.767881 0.154644
H2    H     H_    0.479918 0.420545 0.232242 0.161183
H3    H     H_    0.480357 0.578343 0.233454 0.158930
H4    H     H_    0.520371 0.421107 0.768370 0.156487
H5    H     H_    0.008195 0.110765 0.734085 0.165214
H6    H     H_    0.992900 0.882667 0.272696 0.161463
H7    H     H_    0.995675 0.114373 0.276320 0.156543
H8    H     H_    0.004809 0.882109 0.722118 0.158552
H9    H     H_    0.690812 0.361296 0.876068 0.163401
H10   H     H_    0.300941 0.614445 0.104707 0.154388
H11   H     H_    0.306253 0.368146 0.118341 0.162143
H12   H     H_    0.699751 0.605260 0.902867 0.155133
H13   H     H_    0.152574 0.789243 0.762944 0.155151
H14   H     H_    0.849917 0.212474 0.232578 0.152942
H15   H     H_    0.843881 0.792159 0.234507 0.153659
H16   H     H_    0.156494 0.206056 0.776805 0.156666
H17   H     H_    0.770482 0.388720 0.940166 0.147009
H18   H     H_    0.221158 0.593883 0.026399 0.138449
H19   H     H_    0.226247 0.396810 0.045751 0.144410
H20   H     H_    0.779663 0.588114 0.986288 0.135825
H21   H     H_    0.202001 0.729395 0.753732 0.122044
H22   H     H_    0.805730 0.279637 0.245172 0.126134
H23   H     H_    0.792348 0.737518 0.243331 0.122969
H24   H     H_    0.200673 0.268853 0.759425 0.127812
H25   H     H_    0.562809 0.617294 0.355102 0.141411
H26   H     H_    0.444619 0.380804 0.648235 0.139169
H27   H     H_    0.445093 0.624089 0.644591 0.148574
H28   H     H_    0.553898 0.379157 0.352011 0.146860
H29   H     H_    0.078935 0.092051 0.354280 0.138856
H30   H     H_    0.923867 0.909415 0.648876 0.140138
H31   H     H_    0.925735 0.105762 0.643911 0.143547
H32   H     H_    0.073147 0.900372 0.352034 0.149953
H33   H     H_    0.343308 0.573560 0.230568 0.152984
H34   H     H_    0.657243 0.429241 0.771153 0.154043
H35   H     H_    0.656440 0.579070 0.766604 0.147449
H36   H     H_    0.342927 0.428888 0.229526 0.151133
H37   H     H_    0.852970 0.113567 0.259514 0.160499
H38   H     H_    0.146824 0.886051 0.736694 0.167967
H39   H     H_    0.145985 0.114105 0.734585 0.147268
H40   H     H_    0.855526 0.883623 0.273238 0.155834
H41   H     H_    0.674311 0.395456 0.477870 0.153610
H42   H     H_    0.328327 0.608512 0.531775 0.150755
H43   H     H_    0.318759 0.393137 0.519840 0.145617
H44   H     H_    0.690863 0.601346 0.485523 0.152092
H45   H     H_    0.184859 0.913143 0.452160 0.147099
H46   H     H_    0.802481 0.086990 0.511125 0.150035
H47   H     H_    0.804933 0.923018 0.552250 0.143359
H48   H     H_    0.219060 0.070818 0.515901 0.152100
H49   H     H_    0.322019 0.858860 0.426898 0.127655
H50   H     H_    0.642792 0.135537 0.464213 0.126937
H51   H     H_    0.670720 0.849090 0.572611 0.134147
H52   H     H_    0.378060 0.139619 0.567406 0.135883
H53   H     H_    0.814791 0.345967 0.462679 0.132167
H54   H     H_    0.171965 0.653936 0.496705 0.129593
H55   H     H_    0.178503 0.327105 0.523880 0.138599
H56   H     H_    0.847197 0.668324 0.533173 0.140257
H57   H     H_    0.848950 0.344678 0.971894 0.176212
H58   H     H_    0.139328 0.632718 0.986369 0.172451
H59   H     H_    0.144711 0.358483 0.007151 0.173143
H60   H     H_    0.864141 0.621040 0.034072 0.171514
H61   H     H_    0.288002 0.698261 0.805166 0.168674
H62   H     H_    0.725209 0.324082 0.206923 0.155416
H63   H     H_    0.704522 0.712297 0.185050 0.168233
H64   H     H_    0.282925 0.308102 0.801703 0.152094
N1    N     N_R   0.532970 0.559900 0.665210 -0.049181
N2    N     N_R   0.467030 0.440100 0.334790 -0.051882
N3    N     N_R   0.467030 0.559900 0.334790 -0.051070
N4    N     N_R   0.532970 0.440100 0.665210 -0.052658
N5    N     N_R   0.032970 0.059900 0.665210 -0.054384
N6    N     N_R   0.967030 0.940100 0.334790 -0.051338
N7    N     N_R   0.967030 0.059900 0.334790 -0.055484
N8    N     N_R   0.032970 0.940100 0.665210 -0.054878
N9    N     N_R   0.597900 0.559930 0.545530 -0.090548
N10   N     N_R   0.402100 0.440070 0.454470 -0.093735
N11   N     N_R   0.402100 0.559930 0.454470 -0.087686
N12   N     N_R   0.597900 0.440070 0.545530 -0.088921
N13   N     N_R   0.097900 0.059930 0.545530 -0.091322
N14   N     N_R   0.902100 0.940070 0.454470 -0.090940
N15   N     N_R   0.902100 0.059930 0.454470 -0.086387
N16   N     N_R   0.097900 0.940070 0.545530 -0.089211
N17   N     N_R   0.567170 0.559950 0.454460 -0.063831
N18   N     N_R   0.432830 0.440050 0.545540 -0.071185
N19   N     N_R   0.432830 0.559950 0.545540 -0.065189
N20   N     N_R   0.567170 0.440050 0.454460 -0.065635
N21   N     N_R   0.067170 0.059950 0.454460 -0.066906
N22   N     N_R   0.932830 0.940050 0.545540 -0.071774
N23   N     N_R   0.932830 0.059950 0.545540 -0.065519
N24   N     N_R   0.067170 0.940050 0.454460 -0.068206
N25   N     N_R   0.421470 0.559970 0.334770 -0.055761
N26   N     N_R   0.578530 0.440030 0.665230 -0.054692
N27   N     N_R   0.578530 0.559970 0.665230 -0.053114
N28   N     N_R   0.421470 0.440030 0.334770 -0.053328
N29   N     N_R   0.921470 0.059970 0.334770 -0.043368
N30   N     N_R   0.078530 0.940030 0.665230 -0.043712
N31   N     N_R   0.078530 0.059970 0.665230 -0.040265
N32   N     N_R   0.921470 0.940030 0.334770 -0.040380
Ni1   Ni    Ni4+2 0.483030 0.500000 0.604430 0.185935
Ni2   Ni    Ni4+2 0.516970 0.500000 0.395570 0.188342
Ni3   Ni    Ni4+2 0.983030 0.000000 0.604430 0.192733
Ni4   Ni    Ni4+2 0.016970 0.000000 0.395570 0.194232
Ni5   Ni    Ni4+2 0.587400 0.500000 0.604430 0.248578
Ni6   Ni    Ni4+2 0.412600 0.500000 0.395570 0.242353
Ni7   Ni    Ni4+2 0.087400 0.000000 0.604430 0.281122
Ni8   Ni    Ni4+2 0.912600 0.000000 0.395570 0.284346
O1    O     O_3   0.571279 0.419751 0.932325 -0.623304
C185  C     C_3   0.578273 0.481067 0.951817 -0.197102
H65   H     H_    0.592399 0.503748 0.914510 0.128545
H66   H     H_    0.605186 0.489276 0.025371 0.148938
H67   H     H_    0.540398 0.501140 0.929805 0.174818
O2    O     O_3   0.443032 0.624712 0.092621 -0.634514
C186  C     C_3   0.465731 0.680984 0.125668 -0.207881
H68   H     H_    0.459039 0.697925 0.176850 0.116507
H69   H     H_    0.451388 0.713687 0.070223 0.182102
H70   H     H_    0.508114 0.676579 0.159076 0.154758
O3    O     O_3   0.432965 0.409620 0.072592 -0.629014
C187  C     C_3   0.427601 0.470106 0.048815 -0.178995
H71   H     H_    0.413271 0.496681 0.083216 0.132204
H72   H     H_    0.401576 0.476019 0.974635 0.142154
H73   H     H_    0.466131 0.487688 0.070893 0.178998
O4    O     O_3   0.552654 0.642566 0.892959 -0.627762
C188  C     C_3   0.534710 0.699014 0.853300 -0.198759
H74   H     H_    0.544536 0.708240 0.803566 0.117469
H75   H     H_    0.550169 0.734704 0.905169 0.170442
H76   H     H_    0.491958 0.699829 0.816539 0.161534
O5    O     O_3   0.037925 0.815575 0.842537 -0.628440
C189  C     C_3   0.062500 0.851776 0.920108 -0.213932
H77   H     H_    0.089553 0.883683 0.919860 0.123578
H78   H     H_    0.083246 0.824626 0.982565 0.169350
H79   H     H_    0.032520 0.878116 0.920661 0.160090
O6    O     O_3   0.961902 0.174652 0.150010 -0.620458
C190  C     C_3   0.008171 0.207845 0.197240 -0.256343
H80   H     H_    0.015597 0.227214 0.260752 0.108065
H81   H     H_    0.007972 0.243429 0.154430 0.198962
H82   H     H_    0.040953 0.177681 0.215904 0.153995
O7    O     O_3   0.970367 0.800383 0.180022 -0.627389
C191  C     C_3   0.951423 0.831542 0.099162 -0.221863
H83   H     H_    0.922585 0.865975 0.087797 0.120344
H84   H     H_    0.934401 0.800835 0.040513 0.177469
H85   H     H_    0.984221 0.854685 0.104130 0.162577
O8    O     O_3   0.028309 0.191670 0.826452 -0.625761
C192  C     C_3   0.984703 0.225001 0.761620 -0.241606
H86   H     H_    0.982640 0.229078 0.697855 0.121236
H87   H     H_    0.984348 0.269800 0.787642 0.186547
H88   H     H_    0.949341 0.201567 0.745716 0.161556
O9    O     O_3   0.378351 0.662360 0.917114 -0.605544
C193  C     C_3   0.379607 0.610666 0.873675 -0.200694
H89   H     H_    0.340328 0.591313 0.828429 0.117499
H90   H     H_    0.406685 0.577085 0.923324 0.151788
H91   H     H_    0.393938 0.622677 0.831380 0.172059
O10   O     O_3   0.637863 0.376121 0.106027 -0.616557
C194  C     C_3   0.607553 0.325927 0.092820 -0.223249
H92   H     H_    0.629103 0.283907 0.102599 0.113148
H93   H     H_    0.570576 0.326424 0.025159 0.173182
H94   H     H_    0.597818 0.326905 0.143613 0.164550
O11   O     O_3   0.614313 0.679963 0.068683 -0.605183
C195  C     C_3   0.607843 0.630811 0.109847 -0.192667
H95   H     H_    0.645576 0.609301 0.159725 0.114247
H96   H     H_    0.580705 0.597789 0.058944 0.153754
H97   H     H_    0.590847 0.646652 0.146664 0.165485
O12   O     O_3   0.369364 0.360432 0.902177 -0.614088
C196  C     C_3   0.399647 0.308694 0.922740 -0.219487
H98   H     H_    0.377400 0.268046 0.915344 0.112017
H99   H     H_    0.435642 0.311007 0.991584 0.171525
H100  H     H_    0.411190 0.304880 0.874535 0.161919
O13   O     O_3   0.916761 0.267462 0.029340 -0.616347
C197  C     C_3   0.891374 0.229803 0.953349 -0.196086
H101  H     H_    0.848626 0.235263 0.914765 0.113597
H102  H     H_    0.902161 0.182476 0.972521 0.170065
H103  H     H_    0.903611 0.242000 0.908061 0.169228
O14   O     O_3   0.068708 0.707513 0.927065 -0.603071
C198  C     C_3   0.023799 0.675995 0.863165 -0.193846
H104  H     H_    0.033043 0.638222 0.833998 0.112464
H105  H     H_    0.994515 0.705748 0.808753 0.155776
H106  H     H_    0.006334 0.657230 0.897365 0.169488
O15   O     O_3   0.071800 0.287092 0.941525 -0.610107
C199  C     C_3   0.090622 0.252842 0.019726 -0.188713
H107  H     H_    0.133506 0.255349 0.065688 0.109068
H108  H     H_    0.078184 0.205731 0.002868 0.168822
H109  H     H_    0.074313 0.270950 0.056536 0.165485
O16   O     O_3   0.938662 0.690596 0.100640 -0.607027
C200  C     C_3   0.980771 0.658287 0.170791 -0.196968
H110  H     H_    0.967576 0.623684 0.197761 0.111272
H111  H     H_    0.009359 0.688148 0.225957 0.162572
H112  H     H_    0.000784 0.635282 0.143572 0.167356
O17   O     O_3   0.682400 0.592694 0.651330 -0.625510
C201  C     C_3   0.703730 0.644285 0.704108 -0.337224
H113  H     H_    0.676574 0.666800 0.716305 0.160736
H114  H     H_    0.718440 0.674899 0.675366 0.170731
H115  H     H_    0.737633 0.630898 0.771033 0.177832
O18   O     O_3   0.331088 0.381398 0.342006 -0.634883
C202  C     C_3   0.325301 0.320969 0.316947 -0.287206
H116  H     H_    0.305256 0.296548 0.342514 0.167166
H117  H     H_    0.362764 0.299163 0.338868 0.124517
H118  H     H_    0.300335 0.318177 0.242469 0.169624
O19   O     O_3   0.326568 0.610871 0.343448 -0.637203
C203  C     C_3   0.315219 0.666818 0.301364 -0.307438
H119  H     H_    0.349676 0.689459 0.311584 0.135228
H120  H     H_    0.294585 0.695184 0.322274 0.174492
H121  H     H_    0.288087 0.660038 0.227800 0.171906
O20   O     O_3   0.667049 0.379009 0.657425 -0.632819
C204  C     C_3   0.672065 0.318727 0.682360 -0.284841
H122  H     H_    0.691332 0.292998 0.656026 0.167089
H123  H     H_    0.634422 0.298256 0.661271 0.127830
H124  H     H_    0.697523 0.315976 0.756752 0.166779
O21   O     O_3   0.186660 0.077990 0.657347 -0.612421
C205  C     C_3   0.217860 0.129130 0.694640 -0.299712
H125  H     H_    0.196572 0.171830 0.668434 0.120386
H126  H     H_    0.250093 0.127031 0.685383 0.180738
H127  H     H_    0.235591 0.129194 0.768224 0.169699
O22   O     O_3   0.813366 0.917984 0.344766 -0.611240
C206  C     C_3   0.780629 0.868374 0.319253 -0.277666
H128  H     H_    0.758083 0.870795 0.349939 0.172815
H129  H     H_    0.802055 0.825566 0.335271 0.106194
H130  H     H_    0.752444 0.869505 0.245235 0.180409
O23   O     O_3   0.816082 0.089347 0.343447 -0.608247
C207  C     C_3   0.788568 0.142885 0.305696 -0.291046
H131  H     H_    0.813920 0.181952 0.321871 0.109525
H132  H     H_    0.761130 0.150836 0.325456 0.176398
H133  H     H_    0.764940 0.138149 0.231407 0.173569
O24   O     O_3   0.183355 0.904581 0.653736 -0.612992
C208  C     C_3   0.209576 0.849553 0.679116 -0.288824
H134  H     H_    0.234043 0.845225 0.652317 0.177095
H135  H     H_    0.182912 0.811099 0.658357 0.108053
H136  H     H_    0.235812 0.848352 0.753553 0.178661
C209  C     C_3   0.587532 0.219210 0.461611 -0.449380
C210  C     C_3   0.539648 0.252585 0.444350 -0.221316
C211  C     C_3   0.496413 0.209455 0.422276 -0.967359
H137  H     H_    0.483452 0.184715 0.359297 0.263980
H138  H     H_    0.509907 0.177281 0.477936 0.270685
H139  H     H_    0.462910 0.234611 0.412403 0.250572
H140  H     H_    0.549510 0.278055 0.505174 0.193901
H141  H     H_    0.524462 0.282635 0.385821 0.214392
H142  H     H_    0.572510 0.189090 0.402738 0.197958
H143  H     H_    0.603330 0.191578 0.522937 0.186553
C212  C     C_3   0.388655 0.780327 0.466336 -0.445948
C213  C     C_3   0.437677 0.750895 0.482589 -0.232248
C214  C     C_3   0.466939 0.794967 0.462286 -0.972864
H144  H     H_    0.441057 0.813954 0.393830 0.264747
H145  H     H_    0.482991 0.831585 0.512512 0.265598
H146  H     H_    0.498920 0.771814 0.464260 0.263437
H147  H     H_    0.463073 0.735868 0.553539 0.205066
H148  H     H_    0.427934 0.712746 0.436688 0.194418
H149  H     H_    0.365495 0.795331 0.395084 0.185968
H150  H     H_    0.401879 0.820170 0.510741 0.199910
C215  C     C_3   0.418301 0.231339 0.540132 -0.434760
C216  C     C_3   0.463566 0.224896 0.638930 -0.213968
C217  C     C_3   0.512223 0.202439 0.647063 -0.944099
H151  H     H_    0.504983 0.158473 0.613712 0.259655
H152  H     H_    0.524625 0.234540 0.615888 0.269623
H153  H     H_    0.543930 0.197625 0.719207 0.251222
H154  H     H_    0.472082 0.268734 0.673193 0.199355
H155  H     H_    0.453362 0.193513 0.674221 0.187626
H156  H     H_    0.409144 0.188382 0.503689 0.180296
H157  H     H_    0.430681 0.260355 0.505711 0.192141
C218  C     C_3   0.608022 0.761039 0.522951 -0.423108
C219  C     C_3   0.624220 0.775394 0.620031 -0.238732
C220  C     C_3   0.593964 0.740255 0.648925 -0.938845
H158  H     H_    0.555690 0.760847 0.621392 0.270715
H159  H     H_    0.588478 0.693391 0.626007 0.260277
H160  H     H_    0.615148 0.740894 0.723420 0.247147
H161  H     H_    0.666183 0.767108 0.669100 0.190611
H162  H     H_    0.617825 0.823455 0.625185 0.181209
H163  H     H_    0.593488 0.801975 0.481371 0.159295
H164  H     H_    0.574147 0.730995 0.489294 0.198724
C221  C     C_3   0.111905 0.738200 0.479242 -0.458378
C222  C     C_3   0.060699 0.769518 0.449282 -0.216567
C223  C     C_3   0.019525 0.725122 0.433452 -0.956499
H165  H     H_    0.010046 0.694229 0.377719 0.254769
H166  H     H_    0.033350 0.699188 0.495556 0.271875
H167  H     H_    0.983710 0.749378 0.414653 0.261672
H168  H     H_    0.066537 0.800763 0.502279 0.194516
H169  H     H_    0.045607 0.793208 0.384987 0.232500
H170  H     H_    0.100003 0.701172 0.430290 0.202543
H171  H     H_    0.128939 0.718889 0.547238 0.183054
C224  C     C_3   0.874368 0.263278 0.480614 -0.451307
C225  C     C_3   0.917837 0.232486 0.478682 -0.257108
C226  C     C_3   0.949413 0.278191 0.466426 -0.937369
H172  H     H_    0.923852 0.306203 0.406343 0.266185
H173  H     H_    0.971329 0.306986 0.526976 0.261398
H174  H     H_    0.976926 0.255050 0.455676 0.262069
H175  H     H_    0.944334 0.208331 0.542384 0.211667
H176  H     H_    0.901391 0.201626 0.420748 0.189791
H177  H     H_    0.851842 0.288149 0.416180 0.190932
H178  H     H_    0.892902 0.295832 0.537019 0.196785
C227  C     C_3   0.885149 0.763962 0.508920 -0.444990
C228  C     C_3   0.934618 0.749820 0.601026 -0.206611
C229  C     C_3   0.978716 0.731369 0.592205 -0.938187
H179  H     H_    0.967226 0.692451 0.546573 0.263971
H180  H     H_    0.989320 0.768814 0.565488 0.272140
H181  H     H_    0.013105 0.719027 0.659315 0.247316
H182  H     H_    0.946880 0.789596 0.645272 0.217273
H183  H     H_    0.927328 0.713445 0.634111 0.182633
H184  H     H_    0.871190 0.724278 0.464484 0.180248
H185  H     H_    0.894781 0.795695 0.473343 0.183290
C230  C     C_3   0.114754 0.237451 0.459227 -0.419566
C231  C     C_3   0.109949 0.263342 0.534206 -0.258479
C232  C     C_3   0.083561 0.221356 0.563079 -0.900253
H186  H     H_    0.050028 0.198626 0.504513 0.258800
H187  H     H_    0.111249 0.187710 0.609566 0.241660
H188  H     H_    0.070055 0.246713 0.599587 0.255944
H189  H     H_    0.148259 0.275854 0.594468 0.188918
H190  H     H_    0.086201 0.304529 0.508236 0.190015
H191  H     H_    0.108098 0.273618 0.411840 0.149269
H192  H     H_    0.082437 0.206622 0.416288 0.193893
C233  C     C_3   0.738652 0.415825 0.430759 -0.486582
C234  C     C_3   0.692907 0.425593 0.333121 -0.181046
C235  C     C_3   0.684806 0.491423 0.308813 -0.931425
H193  H     H_    0.652435 0.496759 0.237184 0.261148
H194  H     H_    0.674979 0.515896 0.351356 0.251437
H195  H     H_    0.720261 0.510749 0.318441 0.258398
H196  H     H_    0.700493 0.401667 0.287218 0.227147
H197  H     H_    0.656762 0.407688 0.322462 0.199677
H198  H     H_    0.733822 0.442639 0.477407 0.194469
H199  H     H_    0.774042 0.433360 0.437925 0.193718
C236  C     C_3   0.233985 0.582368 0.480919 -0.458231
C237  C     C_3   0.219765 0.566372 0.386062 -0.224906
C238  C     C_3   0.220057 0.499543 0.372581 -0.894463
H200  H     H_    0.259979 0.481855 0.417027 0.259638
H201  H     H_    0.193814 0.476976 0.386814 0.252178
H202  H     H_    0.206510 0.490143 0.301778 0.260996
H203  H     H_    0.180552 0.584076 0.335353 0.195331
H204  H     H_    0.247342 0.586908 0.373249 0.238543
H205  H     H_    0.270049 0.559823 0.533635 0.184610
H206  H     H_    0.203253 0.564764 0.488155 0.187953
C239  C     C_3   0.254704 0.403344 0.573943 -0.496737
C240  C     C_3   0.299238 0.410568 0.673192 -0.163545
C241  C     C_3   0.303235 0.474220 0.706040 -0.935563
H207  H     H_    0.313618 0.504584 0.670015 0.248565
H208  H     H_    0.266066 0.488753 0.695202 0.259780
H209  H     H_    0.333920 0.476743 0.779117 0.261371
H210  H     H_    0.292712 0.380639 0.714905 0.216726
H211  H     H_    0.336596 0.398067 0.683062 0.200842
H212  H     H_    0.259565 0.434109 0.531516 0.199618
H213  H     H_    0.218156 0.416927 0.566485 0.192744
C242  C     C_3   0.789083 0.587279 0.542503 -0.454956
C243  C     C_3   0.805140 0.570643 0.637898 -0.229254
C244  C     C_3   0.812554 0.503850 0.654171 -0.886946
H214  H     H_    0.774472 0.481463 0.617437 0.262668
H215  H     H_    0.836997 0.485352 0.632412 0.254298
H216  H     H_    0.831719 0.494818 0.727024 0.253675
H217  H     H_    0.842116 0.593266 0.687601 0.192128
H218  H     H_    0.775514 0.585913 0.649831 0.234537
H219  H     H_    0.755259 0.561188 0.490611 0.192260
H220  H     H_    0.821107 0.574505 0.535328 0.184899
C245  C     C_3   0.238608 0.926598 0.384929 -0.431121
C246  C     C_3   0.270083 0.952454 0.350616 -0.266134
C247  C     C_3   0.247857 0.012007 0.303843 -0.918130
H221  H     H_    0.207631 0.006318 0.244267 0.260587
H222  H     H_    0.247980 0.044572 0.350692 0.261825
H223  H     H_    0.271743 0.029907 0.280972 0.249469
H224  H     H_    0.310759 0.959602 0.407946 0.200820
H225  H     H_    0.269371 0.921266 0.301641 0.201325
H226  H     H_    0.197439 0.924806 0.327088 0.196751
H227  H     H_    0.241244 0.957609 0.435270 0.178326
C248  C     C_3   0.707092 0.064306 0.445068 -0.421174
C249  C     C_3   0.654023 0.035741 0.407788 -0.270185
C250  C     C_3   0.650612 0.973735 0.369768 -0.900899
H228  H     H_    0.653996 0.976397 0.311401 0.265513
H229  H     H_    0.681660 0.944434 0.421432 0.265709
H230  H     H_    0.612703 0.953660 0.346834 0.245234
H231  H     H_    0.647317 0.032187 0.462319 0.197941
H232  H     H_    0.622945 0.063456 0.352533 0.202450
H233  H     H_    0.716362 0.057623 0.393997 0.216166
H234  H     H_    0.736815 0.041146 0.507104 0.170819
C251  C     C_3   0.749969 0.926065 0.621205 -0.426068
C252  C     C_3   0.713982 0.946783 0.649545 -0.257861
C253  C     C_3   0.729108 0.008420 0.692503 -0.928798
H235  H     H_    0.769211 0.007832 0.753657 0.263688
H236  H     H_    0.726378 0.041369 0.644085 0.262789
H237  H     H_    0.702489 0.022299 0.712106 0.249424
H238  H     H_    0.673497 0.949204 0.589554 0.195761
H239  H     H_    0.716183 0.915092 0.698944 0.197809
H240  H     H_    0.790448 0.927485 0.681407 0.193991
H241  H     H_    0.746409 0.958286 0.572267 0.185855
C254  C     C_3   0.314982 0.058421 0.573196 -0.424399
C255  C     C_3   0.368811 0.033823 0.605653 -0.265776
C256  C     C_3   0.373295 0.968103 0.629786 -0.912882
H242  H     H_    0.368409 0.961879 0.686046 0.267934
H243  H     H_    0.343482 0.941882 0.570826 0.266921
H244  H     H_    0.412038 0.951169 0.651025 0.245850
H245  H     H_    0.375732 0.038469 0.551492 0.195477
H246  H     H_    0.398999 0.058624 0.666324 0.200789
H247  H     H_    0.307457 0.048186 0.625526 0.203501
H248  H     H_    0.286370 0.034751 0.510824 0.188087

loop_
_geom_bond_atom_site_label_1
_geom_bond_atom_site_label_2
_ccdc_geom_bond_type
C40   C254  S    
C105  C110  A    
C126  H62   S    
C18   C21   A    
C33   C45   A    
C107  C112  A    
C30   C45   A    
C247  H221  S    
C224  C225  S    
C53   C69   A    
C218  H164  S    
C79   C87   A    
C227  C228  S    
C144  N32   A    
C237  H204  S    
C138  N26   A    
C213  C214  S    
C118  H22   S    
C173  C181  A    
C44   H52   S    
C94   O22   S    
C211  H138  S    
C51   C145  S    
C168  C230  S    
C4    C148  A    
C5    C149  A    
C62   C70   A    
C246  C247  S    
C227  H184  S    
C140  H36   S    
O8    C192  S    
C56   C72   A    
C115  H19   S    
N1    N27   A    
C79   H16   S    
C113  H17   S    
C124  H60   S    
C212  H149  S    
C7    N7    A    
C95   N15   A    
C103  C123  A    
C73   H10   S    
C231  C232  S    
C235  H194  S    
C112  C119  A    
C142  N30   A    
C10   C178  A    
C217  H153  S    
C73   C81   A    
C116  H20   S    
C230  H191  S    
C109  C118  A    
C253  H237  S    
N29   Ni8   S    
C189  H78   S    
C166  C174  A    
C135  C159  A    
N30   Ni7   S    
C58   O10   S    
C120  H24   S    
C191  H85   S    
N9    N17   A    
C195  H95   S    
C4    N4    A    
C194  H93   S    
C220  H160  S    
C205  H126  S    
C20   C28   A    
O6    C190  S    
C21   C29   A    
C8    N8    A    
N3    Ni2   S    
C23   C31   A    
C24   C32   A    
C210  H141  S    
C76   H11   S    
C231  H190  S    
C14   C38   A    
C198  H104  S    
C54   C70   A    
C240  H211  S    
C46   H54   S    
C57   C97   A    
C12   C20   A    
C135  N23   A    
C13   C21   A    
C136  N24   A    
C196  H100  S    
C15   C39   A    
C193  H90   S    
C16   C40   A    
C87   C103  A    
C90   O18   S    
C242  H220  S    
C94   N14   A    
C170  C178  A    
C249  H231  S    
C31   C48   A    
C32   C168  A    
O21   C205  S    
C32   C47   A    
C49   C73   A    
C224  H178  S    
C208  H136  S    
C11   C179  A    
C234  C235  S    
C129  H25   S    
C90   N10   A    
C9    C177  A    
C187  H71   S    
C175  C183  A    
C239  H212  S    
C176  C184  A    
C52   C146  S    
C236  H206  S    
C86   C110  A    
O10   C194  S    
C60   C100  A    
C3    H3    S    
C202  H116  S    
C16   C184  A    
C1    H1    S    
C248  H234  S    
C67   O4    S    
C117  H21   S    
C108  C111  A    
C245  H226  S    
C4    H4    S    
C11   C35   A    
C5    H5    S    
C252  H238  S    
C80   C88   A    
C208  H134  S    
C239  C240  S    
C41   H49   S    
C10   C18   A    
C92   O20   S    
C197  H101  S    
C96   O24   S    
C45   H53   S    
O22   C206  S    
C194  H92   S    
C143  C149  A    
C131  N19   A    
C63   O15   S    
C137  H33   S    
O15   C199  S    
C167  C227  S    
C219  H161  S    
C251  H241  S    
N4    Ni1   S    
N4    N26   A    
C55   C71   A    
N5    Ni3   S    
N31   Ni7   S    
C203  H119  S    
N13   Ni7   S    
N6    Ni4   S    
N24   Ni4   S    
N14   Ni8   S    
C3    C147  A    
O13   C197  S    
C160  C173  S    
C1    C145  A    
C212  C213  S    
C58   C98   A    
C195  H97   S    
C184  H48   S    
C174  C182  A    
C123  H59   S    
C201  H113  S    
C217  H152  S    
C215  C216  S    
C255  H246  S    
C95   C159  A    
C108  C115  A    
C247  H222  S    
C3    N3    A    
C228  H182  S    
C229  H180  S    
C252  C253  S    
C1    N1    A    
C29   C165  A    
O23   C207  S    
C221  H170  S    
C237  C238  S    
C162  C212  S    
C5    N5    A    
C192  H87   S    
O18   C202  S    
C144  C150  A    
C59   C67   A    
C89   C153  A    
C27   C44   A    
C182  H46   S    
C138  C148  A    
C188  H75   S    
C165  C221  S    
C34   C46   A    
N12   N20   A    
C77   H14   S    
C70   O5    S    
N13   N21   A    
C187  H73   S    
C223  H167  S    
C161  C169  A    
C75   H12   S    
N15   N23   A    
C241  H209  S    
C77   C85   A    
C96   N16   A    
C238  H200  S    
C139  N27   A    
C213  H147  S    
C169  C177  A    
C199  H107  S    
C88   C104  A    
C55   C149  S    
C89   O17   S    
C81   C105  A    
C106  C113  A    
C246  H224  S    
C139  C145  A    
O24   C208  S    
C10   C34   A    
C200  H112  S    
C228  C229  S    
C95   O23   S    
C256  H243  S    
C80   H15   S    
C193  H91   S    
C209  H142  S    
C191  H84   S    
N11   Ni6   S    
C61   C101  A    
C250  H228  S    
N23   Ni3   S    
C217  H151  S    
C20   C23   A    
C232  H186  S    
C130  C154  A    
C51   C67   A    
C244  H215  S    
C210  C211  S    
C203  H121  S    
C47   H55   S    
C233  H198  S    
C134  C158  A    
C214  H146  S    
N2    N28   A    
C131  H27   S    
C164  C172  A    
C196  H99   S    
C56   C150  S    
C241  H207  S    
N10   N18   A    
C183  H47   S    
C202  H118  S    
C167  C175  A    
C226  H174  S    
C50   C148  S    
C168  C176  A    
C190  H82   S    
C22   C30   A    
N8    Ni3   S    
C12   C180  A    
C62   O14   S    
C207  H131  S    
C52   C76   A    
C218  H163  S    
C104  C124  A    
C134  N22   A    
C13   C181  A    
C56   C80   A    
C14   C22   A    
C209  C210  S    
C43   H51   S    
C88   C112  A    
C129  C153  A    
C153  C172  S    
C132  C156  A    
C154  C171  S    
C36   C48   A    
C133  C157  A    
C234  H196  S    
C82   C106  A    
C37   C41   A    
C107  C116  A    
C91   N11   A    
C157  C176  S    
C177  H41   S    
C223  H165  S    
C136  C160  A    
C139  H35   S    
C158  C175  S    
C40   C44   A    
C113  C121  A    
O12   C196  S    
C94   C158  A    
C221  C222  S    
C238  H202  S    
C141  H37   S    
C248  C249  S    
C53   C151  S    
C83   C99   A    
C204  H123  S    
C35   C47   A    
C117  C125  A    
C216  H154  S    
C199  H109  S    
N7    N29   A    
C254  H248  S    
C62   C102  A    
C106  C109  A    
C86   C102  A    
C243  H217  S    
C200  H111  S    
C82   C98   A    
C125  H61   S    
C230  C231  S    
C18   C26   A    
C224  H177  S    
C76   C84   A    
O19   C203  S    
C253  H236  S    
N28   Ni6   S    
C11   C19   A    
C214  H144  S    
N1    Ni1   S    
C254  H247  S    
C249  C250  S    
C195  H96   S    
C250  H230  S    
C85   C109  A    
O2    C186  S    
C206  H130  S    
C220  H159  S    
C87   C111  A    
C61   C69   A    
C232  H188  S    
C219  C220  S    
C64   C104  A    
C185  H65   S    
C142  C152  A    
C245  C246  S    
N5    N31   A    
C14   C182  A    
C34   C236  S    
N6    N32   A    
C65   O2    S    
C222  H169  S    
C66   O1    S    
C159  C174  S    
C15   C183  A    
C114  H18   S    
C90   C154  A    
C163  C171  A    
C172  C180  A    
C242  H219  S    
C74   H9    S    
C249  H232  S    
C190  H80   S    
N16   N24   A    
C100  C128  A    
C211  H139  S    
C9    C33   A    
N25   Ni6   S    
C7    H7    S    
C74   C82   A    
C207  H133  S    
C110  C117  A    
C48   H56   S    
C187  H72   S    
N17   Ni2   S    
C206  H129  S    
C198  H105  S    
C185  H67   S    
C237  H203  S    
C115  C123  A    
C186  H69   S    
C193  H89   S    
C140  C146  A    
C186  H68   S    
C99   C127  A    
C197  H103  S    
C248  H233  S    
C226  H172  S    
C26   C162  A    
C101  C121  A    
N20   Ni2   S    
C84   C100  A    
C53   C77   A    
C218  C219  S    
N32   Ni8   S    
C252  H239  S    
C251  C252  S    
N14   N22   A    
C55   C79   A    
C227  H185  S    
O11   C195  S    
C162  C170  A    
C256  H244  S    
N9    Ni5   S    
C60   O12   S    
C197  H102  S    
C212  H150  S    
C50   C74   A    
C63   C71   A    
C7    C151  A    
C97   C125  A    
C215  H157  S    
C225  H176  S    
C93   O21   S    
C235  H195  S    
C219  H162  S    
C127  H63   S    
C251  H240  S    
C129  N17   A    
C230  H192  S    
C203  H120  S    
C204  H122  S    
C121  H57   S    
C215  H156  S    
C28   C164  A    
C189  H77   S    
N15   Ni8   S    
C116  C124  A    
C236  H205  S    
C8    C152  A    
C137  C147  A    
C57   C65   A    
C25   C42   A    
C39   C251  S    
C194  H94   S    
C201  H114  S    
C206  H128  S    
C120  C128  A    
C205  H125  S    
C28   C43   A    
C17   C22   A    
C134  H30   S    
C29   C46   A    
C171  C179  A    
C131  C155  A    
C19   C24   A    
C210  H140  S    
C228  H183  S    
C231  H189  S    
C155  C170  S    
C75   C83   A    
C240  H210  S    
C84   C108  A    
C180  H44   S    
C192  H86   S    
C8    H8    S    
C161  C209  S    
C201  H115  S    
N11   N19   A    
O7    C191  S    
C130  N18   A    
C36   C242  S    
C98   C126  A    
C225  C226  S    
C60   C68   A    
C188  H74   S    
C211  H137  S    
C200  H110  S    
C102  C122  A    
C54   C78   A    
C189  H79   S    
C239  H213  S    
C241  H208  S    
C59   C99   A    
O9    C193  S    
C213  H148  S    
C132  H28   S    
C229  H179  S    
O20   C204  S    
C205  H127  S    
C199  H108  S    
C242  C243  S    
C122  H58   S    
O5    C189  S    
O16   C200  S    
C49   C147  S    
C71   O8    S    
C49   C65   A    
C38   C248  S    
C246  H225  S    
C245  H227  S    
N8    N30   A    
C51   C75   A    
C38   C42   A    
C208  H135  S    
C143  H39   S    
N19   Ni1   S    
C165  C173  A    
C236  C237  S    
C163  C215  S    
C54   C152  S    
C156  C169  S    
C33   C233  S    
C6    N6    A    
C216  C217  S    
C226  H173  S    
C58   C66   A    
C135  H31   S    
C222  H168  S    
C181  H45   S    
C243  C244  S    
C225  H175  S    
C235  H193  S    
N21   Ni4   S    
C78   H13   S    
N22   Ni3   S    
C12   C36   A    
C63   C103  A    
C19   C27   A    
C244  H214  S    
C13   C37   A    
N12   Ni5   S    
C52   C68   A    
C204  H124  S    
C27   C163  A    
C78   C86   A    
C15   C23   A    
C222  C223  S    
C16   C24   A    
C164  C218  S    
C179  H43   S    
N2    Ni2   S    
C223  H166  S    
C92   N12   A    
C186  H70   S    
C93   N13   A    
C166  C224  S    
C202  H117  S    
C255  H245  S    
C68   O3    S    
C256  H242  S    
C190  H81   S    
C178  H42   S    
C128  H64   S    
C105  C114  A    
C247  H223  S    
C89   N9    A    
C30   C166  A    
C207  H132  S    
C229  H181  S    
C25   C161  A    
C253  H235  S    
C35   C239  S    
O3    C187  S    
C39   C43   A    
C221  H171  S    
C111  C120  A    
N7    Ni4   S    
C192  H88   S    
C2    H2    S    
C91   C155  A    
C240  C241  S    
C132  N20   A    
C2    N2    A    
C72   O7    S    
C133  N21   A    
C254  C255  S    
C188  H76   S    
C6    H6    S    
C143  N31   A    
C92   C156  A    
N26   Ni5   S    
C234  H197  S    
C6    C150  A    
C93   C157  A    
C50   C66   A    
N18   Ni1   S    
C9    C17   A    
O4    C188  S    
C96   C160  A    
C59   O11   S    
O14   C198  S    
C238  H201  S    
C61   O13   S    
C130  H26   S    
C119  H23   S    
C216  H155  S    
C85   C101  A    
C141  C151  A    
O1    C185  S    
O17   C201  S    
C233  C234  S    
C57   O9    S    
C255  C256  S    
C243  H218  S    
C37   C245  S    
N16   Ni7   S    
C69   O6    S    
N3    N25   A    
C31   C167  A    
C17   C25   A    
C2    C146  A    
C209  H143  S    
N10   Ni6   S    
C133  H29   S    
C191  H83   S    
C140  N28   A    
C141  N29   A    
C250  H229  S    
C91   O19   S    
C42   H50   S    
C220  H158  S    
C81   C97   A    
C137  N25   A    
C232  H187  S    
C83   C107  A    
C64   O16   S    
C185  H66   S    
C64   C72   A    
C244  H216  S    
C144  H40   S    
C114  C122  A    
C233  H199  S    
C198  H106  S    
C138  H34   S    
C214  H145  S    
C118  C126  A    
C196  H98   S    
C142  H38   S    
C26   C41   A    
C119  C127  A    
C136  H32   S    
N27   Ni5   S    
