data_mof_unit_9594.cif
_audit_creation_date              2012-12-11T16:27:24-0500
_audit_creation_method            fapswitch 2.2
_symmetry_space_group_name_H-M    P1
_symmetry_Int_Tables_number       1
_space_group_crystal_system       triclinic
_cell_length_a                    21.645011
_cell_length_b                    6.909629
_cell_length_c                    14.77857
_cell_angle_alpha                 90.345945
_cell_angle_beta                  105.613368
_cell_angle_gamma                 90.304693
_cell_volume                      2128.61463015

loop_
_atom_site_label
_atom_site_type_symbol
_atom_type_description
_atom_site_fract_x
_atom_site_fract_y
_atom_site_fract_z
_atom_type_partial_charge
O1    O     O_R   0.835850 0.638310 0.002120 -0.537075
O2    O     O_R   0.164150 0.361690 0.997880 -0.537076
O3    O     O_R   0.664150 0.138310 0.997880 -0.537277
O4    O     O_R   0.335850 0.861690 0.002120 -0.537277
O5    O     O_R   0.717530 0.306070 0.861970 -0.542850
O6    O     O_R   0.282470 0.693930 0.138030 -0.542851
O7    O     O_R   0.782470 0.806070 0.138030 -0.542030
O8    O     O_R   0.217530 0.193930 0.861970 -0.542030
C1    C     C_R   0.705090 0.476143 0.824497 0.687302
C2    C     C_R   0.294910 0.523857 0.175503 0.687302
C3    C     C_R   0.794794 0.978070 0.175412 0.687700
C4    C     C_R   0.205206 0.021930 0.824588 0.687700
O9    O     O_R   0.838690 0.308440 0.993250 -0.539472
O10   O     O_R   0.161310 0.691560 0.006750 -0.539472
O11   O     O_R   0.661310 0.808440 0.006750 -0.540130
O12   O     O_R   0.338690 0.191560 0.993250 -0.540130
O13   O     O_R   0.786170 0.140510 0.130090 -0.540422
O14   O     O_R   0.213830 0.859490 0.869910 -0.540422
O15   O     O_R   0.713830 0.640510 0.869910 -0.539806
O16   O     O_R   0.286170 0.359490 0.130090 -0.539806
C5    C     C_R   0.865308 0.477729 0.998138 0.697575
C6    C     C_R   0.134692 0.522271 0.001862 0.697575
C7    C     C_R   0.634648 0.976898 0.001765 0.695429
C8    C     C_R   0.365352 0.023101 0.998235 0.695430
O17   O     O_3   0.732630 0.472520 0.044740 -0.367672
O18   O     O_3   0.267370 0.527480 0.955260 -0.367672
O19   O     O_3   0.767370 0.972520 0.955260 -0.367633
O20   O     O_3   0.232630 0.027480 0.044740 -0.367633
V1    V     V_3+5 0.753220 0.196740 0.991700 1.428374
V2    V     V_3+5 0.246780 0.803260 0.008300 1.428375
V3    V     V_3+5 0.746780 0.696740 0.008300 1.428936
V4    V     V_3+5 0.253220 0.303260 0.991700 1.428936
H1    H     H_    0.609075 0.821583 0.313662 0.121974
H2    H     H_    0.390925 0.178415 0.686338 0.121974
H3    H     H_    0.884807 0.641974 0.684203 0.120615
H4    H     H_    0.115193 0.358025 0.315797 0.120615
C9    C     C_R   0.536550 0.076444 0.833299 -0.152397
C10   C     C_R   0.463450 0.923555 0.166701 -0.152397
C11   C     C_R   0.966478 0.407155 0.167299 -0.153435
C12   C     C_R   0.033522 0.592844 0.832701 -0.153435
C13   C     C_R   0.490596 0.126292 0.751114 -0.124033
C14   C     C_R   0.509404 0.873707 0.248886 -0.124033
C15   C     C_R   0.014081 0.373814 0.250202 -0.122064
C16   C     C_R   0.985919 0.626186 0.749798 -0.122064
C17   C     C_R   0.426454 0.140131 0.750465 -0.125325
C18   C     C_R   0.573546 0.859868 0.249534 -0.125324
C19   C     C_R   0.078416 0.384120 0.251186 -0.123670
C20   C     C_R   0.921584 0.615880 0.748814 -0.123669
C21   C     C_R   0.407744 0.103751 0.831968 -0.144482
C22   C     C_R   0.592256 0.896248 0.168032 -0.144482
C23   C     C_R   0.095654 0.428557 0.169312 -0.140768
C24   C     C_R   0.904346 0.571442 0.830688 -0.140769
C25   C     C_R   0.453316 0.053354 0.916632 0.072150
C26   C     C_R   0.546684 0.946646 0.083368 0.072150
C27   C     C_R   0.048420 0.463738 0.084121 0.071620
C28   C     C_R   0.951580 0.536262 0.915879 0.071620
C29   C     C_R   0.519111 0.039608 0.917375 0.066881
C30   C     C_R   0.480889 0.960391 0.082625 0.066881
C31   C     C_R   0.982478 0.452448 0.083029 0.065119
C32   C     C_R   0.017522 0.547552 0.916971 0.065119
C33   C     C_R   0.434169 0.013559 0.999226 -0.185613
C34   C     C_R   0.565831 0.986441 0.000774 -0.185613
C35   C     C_R   0.065947 0.511528 0.001125 -0.183814
C36   C     C_R   0.934053 0.488472 0.998875 -0.183814
H5    H     H_    0.585697 0.065683 0.829781 0.114298
H6    H     H_    0.414303 0.934316 0.170219 0.114298
H7    H     H_    0.917127 0.397895 0.170225 0.111980
H8    H     H_    0.082873 0.602105 0.829775 0.111980
H9    H     H_    0.504840 0.153490 0.687487 0.132169
H10   H     H_    0.495160 0.846508 0.312513 0.132169
H11   H     H_    0.000935 0.340182 0.314055 0.132513
H12   H     H_    0.999065 0.659817 0.685944 0.132513
H13   H     H_    0.357193 0.114616 0.827587 0.095111
H14   H     H_    0.642807 0.885383 0.172412 0.095111
H15   H     H_    0.146314 0.435765 0.173655 0.089387
H16   H     H_    0.853686 0.564234 0.826344 0.089387
C37   C     C_R   0.177077 0.009197 0.723157 -0.031958
C38   C     C_R   0.822923 0.990802 0.276843 -0.031958
C39   C     C_R   0.322847 0.520434 0.277216 -0.034019
C40   C     C_R   0.677153 0.479566 0.722783 -0.034021
C41   C     C_R   0.187946 0.944272 0.567706 -0.164424
C42   C     C_R   0.812054 0.055726 0.432294 -0.164423
C43   C     C_R   0.313309 0.583404 0.433617 -0.165193
C44   C     C_R   0.686691 0.416586 0.566383 -0.165192
C45   C     C_R   0.215624 0.967894 0.663672 -0.177975
C46   C     C_R   0.784376 0.032105 0.336328 -0.177975
C47   C     C_R   0.285314 0.567814 0.337395 -0.176395
C48   C     C_R   0.714686 0.432177 0.662605 -0.176394
C49   C     C_R   0.110696 0.027117 0.686824 -0.224079
C50   C     C_R   0.889304 0.972883 0.313176 -0.224079
C51   C     C_R   0.388683 0.489100 0.313294 -0.225640
C52   C     C_R   0.611317 0.510905 0.686706 -0.225639
C53   C     C_R   0.081075 0.002282 0.589533 0.081262
C54   C     C_R   0.918925 0.997717 0.410467 0.081261
C55   C     C_R   0.418834 0.508630 0.410790 0.080042
C56   C     C_R   0.581166 0.491370 0.589210 0.080041
C57   C     C_R   0.121263 0.959457 0.530361 0.141381
C58   C     C_R   0.878737 0.040542 0.469639 0.141381
C59   C     C_R   0.379552 0.556643 0.470586 0.142321
C60   C     C_R   0.620448 0.443351 0.529414 0.142321
C61   C     C_R   0.013214 0.015888 0.549385 0.050537
C62   C     C_R   0.986786 0.984111 0.450615 0.050537
C63   C     C_R   0.486465 0.486252 0.450509 0.051182
C64   C     C_R   0.513535 0.513747 0.549491 0.051182
C65   C     C_R   0.029073 0.939999 0.395350 -0.198353
C66   C     C_R   0.970927 0.060000 0.604650 -0.198353
C67   C     C_R   0.472067 0.561883 0.605432 -0.197969
C68   C     C_R   0.527933 0.438112 0.394568 -0.197968
C69   C     C_R   0.094786 0.929424 0.434505 -0.207995
C70   C     C_R   0.905214 0.070574 0.565495 -0.207995
C71   C     C_R   0.406582 0.581496 0.566667 -0.209488
C72   C     C_R   0.593418 0.418496 0.433333 -0.209487
H17   H     H_    0.125231 0.895633 0.389116 0.126748
H18   H     H_    0.874769 0.104365 0.610885 0.126747
H19   H     H_    0.376796 0.618800 0.612532 0.127231
H20   H     H_    0.623203 0.381187 0.387469 0.127231
H21   H     H_    0.916148 0.943797 0.262987 0.101599
H22   H     H_    0.083852 0.056204 0.737013 0.101599
H23   H     H_    0.585067 0.543087 0.737307 0.103629
H24   H     H_    0.414934 0.456927 0.262692 0.103629
H25   H     H_    0.732999 0.047828 0.308329 0.100838
H26   H     H_    0.267000 0.952171 0.691672 0.100838
H27   H     H_    0.765508 0.404958 0.690297 0.101529
H28   H     H_    0.234491 0.595028 0.309704 0.101528
H29   H     H_    0.218667 0.911664 0.522635 0.110658
H30   H     H_    0.781333 0.088333 0.477365 0.110657
H31   H     H_    0.283305 0.620561 0.479126 0.110593
H32   H     H_    0.716695 0.379423 0.520874 0.110592
H33   H     H_    0.013163 0.912282 0.320947 0.137486
H34   H     H_    0.986837 0.087716 0.679053 0.137486
H35   H     H_    0.488487 0.586295 0.680060 0.137285
H36   H     H_    0.511512 0.413697 0.319940 0.137285

loop_
_geom_bond_atom_site_label_1
_geom_bond_atom_site_label_2
_ccdc_geom_bond_type
O17   V3    S    
C43   C47   A    
O1    C5    A    
C61   C62   A    
C12   C32   A    
C27   C31   A    
O19   V1    S    
O13   V1    S    
O3    C7    A    
C52   C56   A    
O15   V3    S    
C39   C47   A    
C29   C34   A    
C38   C50   A    
O7    C3    A    
C37   C49   A    
C31   C36   A    
C8    C33   S    
C62   C65   A    
C32   C35   A    
C58   C70   A    
O9    V1    S    
C52   H23   S    
C23   H15   S    
C10   C14   A    
C22   H14   S    
C26   C30   A    
C47   H28   S    
O4    C8    A    
C55   C59   A    
C54   C58   A    
O1    V3    S    
H4    C19   S    
O2    V4    S    
C14   C18   A    
O3    V1    S    
C42   H30   S    
C5    C36   S    
C6    C35   S    
C10   C30   A    
C25   C33   A    
C1    O15   A    
C7    C34   S    
C10   H6    S    
C2    O16   A    
C27   C35   A    
O2    C6    A    
C28   C36   A    
C63   C68   A    
O14   V2    S    
C70   H18   S    
C12   C16   A    
C39   C51   A    
C69   H17   S    
C38   C46   A    
C30   C33   A    
O11   C7    A    
C59   C71   A    
O12   C8    A    
C43   C59   A    
C9    C13   A    
H1    C18   S    
C42   C58   A    
C67   C71   A    
C44   H32   S    
O10   V2    S    
C48   H27   S    
H3    C20   S    
C55   C63   A    
C50   C54   A    
O5    V1    S    
O17   V1    S    
O7    V3    S    
O19   V3    S    
O8    V4    S    
C50   H21   S    
O20   V4    S    
C67   H35   S    
C53   C61   A    
C25   C29   A    
O18   V4    S    
C19   C23   A    
C26   C34   A    
C42   C46   A    
C51   C55   A    
O4    V2    S    
C68   C72   A    
C9    H5    S    
C1    C40   S    
C44   C60   A    
C40   C52   A    
C14   H10   S    
O5    C1    A    
C3    C38   S    
C57   C69   A    
C17   C21   A    
O8    C4    A    
C11   C31   A    
C4    C37   S    
C46   H25   S    
O9    C5    A    
C45   H26   S    
H2    C17   S    
C22   C26   A    
O6    V2    S    
C60   C72   A    
C56   C64   A    
C65   H33   S    
C21   H13   S    
C53   C57   A    
C72   H20   S    
C13   H9    S    
O16   V4    S    
C61   C66   A    
C66   H34   S    
C65   C69   A    
C3    O13   A    
C15   H11   S    
C41   H29   S    
C11   H7    S    
C44   C48   A    
C43   H31   S    
C24   H16   S    
O6    C2    A    
C11   C15   A    
C2    C39   S    
O11   V3    S    
O12   V4    S    
C18   C22   A    
O10   C6    A    
O20   V2    S    
C40   C48   A    
C16   C20   A    
C41   C57   A    
C21   C25   A    
C56   C60   A    
C16   H12   S    
C23   C27   A    
C49   C53   A    
C9    C29   A    
C68   H36   S    
C37   C45   A    
C28   C32   A    
C20   C24   A    
C49   H22   S    
C54   C62   A    
C66   C70   A    
C12   H8    S    
C4    O14   A    
C63   C64   A    
C13   C17   A    
C51   H24   S    
C71   H19   S    
C15   C19   A    
C64   C67   A    
C41   C45   A    
C24   C28   A    
O18   V2    S    
