data_mof_unit_41866.cif
_audit_creation_date              2012-12-10T18:24:48-0500
_audit_creation_method            fapswitch 2.2
_symmetry_space_group_name_H-M    P1
_symmetry_Int_Tables_number       1
_space_group_crystal_system       triclinic
_cell_length_a                    13.97952
_cell_length_b                    15.024629
_cell_length_c                    16.793064
_cell_angle_alpha                 89.663017
_cell_angle_beta                  85.813895
_cell_angle_gamma                 89.743581
_cell_volume                      3517.6669566

loop_
_atom_site_label
_atom_site_type_symbol
_atom_type_description
_atom_site_fract_x
_atom_site_fract_y
_atom_site_fract_z
_atom_type_partial_charge
C1    C     C_R   0.500013 0.673401 0.497344 0.913070
C2    C     C_R   0.581997 0.905439 0.514540 0.084987
C3    C     C_R   0.503918 0.046217 0.492929 -0.047468
C4    C     C_R   0.502998 0.953469 0.489043 -0.049352
C5    C     C_R   0.583419 0.090735 0.522445 -0.103414
C6    C     C_R   0.423143 0.908624 0.460323 -0.102228
C7    C     C_R   0.345529 0.050926 0.440875 -0.329669
C8    C     C_R   0.662368 0.948892 0.539478 -0.319113
C9    C     C_R   0.344355 0.958159 0.434934 0.552570
C10   C     C_R   0.664065 0.041625 0.544640 0.553597
C11   C     C_R   0.198363 0.440312 0.546963 -0.043296
C12   C     C_R   0.500201 0.326465 0.501357 0.913084
C13   C     C_R   0.801735 0.558914 0.452304 -0.043142
C14   C     C_R   0.205818 0.559113 0.452822 0.008619
C15   C     C_R   0.794192 0.440507 0.546856 0.022704
C16   C     C_R   0.487543 0.495248 0.653331 0.915523
C17   C     C_R   0.512723 0.499334 0.346555 0.916048
C18   C     C_R   0.105361 0.559951 0.451167 -0.049252
C19   C     C_R   0.894741 0.438775 0.547660 -0.049066
C20   C     C_R   0.050707 0.498977 0.499281 0.013155
C21   C     C_R   0.949456 0.499212 0.499020 0.011043
C22   C     C_R   0.097359 0.438068 0.547852 -0.079197
C23   C     C_R   0.578845 0.183528 0.530700 0.503041
C24   C     C_R   0.902831 0.560000 0.450316 -0.084135
C25   C     C_R   0.058811 0.620043 0.402536 -0.293840
C26   C     C_R   0.941343 0.378189 0.595807 -0.290334
C27   C     C_R   0.958225 0.619500 0.400734 0.537838
C28   C     C_R   0.042184 0.376432 0.595314 0.526230
C29   C     C_R   0.481600 0.467153 0.737055 -0.230253
C30   C     C_R   0.520288 0.485038 0.260627 -0.220070
C31   C     C_R   0.562407 0.429269 0.770445 0.508544
C32   C     C_R   0.440211 0.497039 0.215398 0.525319
C33   C     C_R   0.551457 0.389330 0.845138 -0.356845
C34   C     C_R   0.425054 0.815137 0.457619 0.499850
C35   C     C_R   0.447719 0.472784 0.135214 -0.344091
C36   C     C_R   0.464959 0.397082 0.891929 0.002649
C37   C     C_R   0.531973 0.433393 0.101119 -0.003575
C38   C     C_R   0.383471 0.432344 0.858704 0.567822
C39   C     C_R   0.613079 0.425440 0.144958 0.573879
C40   C     C_R   0.392441 0.467488 0.781251 -0.367394
C41   C     C_R   0.606066 0.449630 0.225136 -0.380956
C42   C     C_2   0.464314 0.384176 0.978421 -0.169491
C43   C     C_2   0.539755 0.411771 0.016496 -0.141494
C44   C     C_3   0.710645 0.491079 0.758053 -0.307068
C45   C     C_R   0.501141 0.230528 0.501916 -0.206610
C46   C     C_3   0.280385 0.480133 0.251090 -0.301700
C47   C     C_3   0.916795 0.647206 0.275132 -0.353775
C48   C     C_3   0.092809 0.233937 0.607592 -0.335879
C49   C     C_3   0.233914 0.376078 0.882043 -0.329267
C50   C     C_3   0.768544 0.451950 0.101743 -0.352119
C51   C     C_3   0.620386 0.234539 0.649988 -0.223217
C52   C     C_3   0.382601 0.749016 0.344305 -0.219984
C53   C     C_3   0.238982 0.943892 0.336586 -0.286415
C54   C     C_3   0.780543 0.053177 0.635089 -0.304167
C55   C     C_R   0.500799 0.769015 0.490557 -0.211236
C56   C     C_R   0.424200 0.186201 0.472322 -0.302995
C57   C     C_R   0.579684 0.813850 0.516073 -0.289919
C58   C     C_R   0.424371 0.094442 0.468649 0.088880
H1    H     H_    0.236428 0.394541 0.583470 0.174731
H2    H     H_    0.397051 0.368185 0.011860 0.181903
H3    H     H_    0.388477 0.487181 0.099045 0.187306
H4    H     H_    0.613068 0.357009 0.868418 0.178408
H5    H     H_    0.364154 0.223390 0.451300 0.176510
H6    H     H_    0.639000 0.777238 0.539002 0.184531
H7    H     H_    0.283770 0.089285 0.425197 0.150241
H8    H     H_    0.724275 0.910302 0.554394 0.158436
H9    H     H_    0.725665 0.477148 0.821088 0.154808
H10   H     H_    0.678900 0.558762 0.752556 0.167369
H11   H     H_    0.780321 0.490439 0.721945 0.189097
H12   H     H_    0.763703 0.604599 0.415697 0.177313
H13   H     H_    0.296742 0.417729 0.283665 0.168245
H14   H     H_    0.258287 0.464698 0.190488 0.158120
H15   H     H_    0.218121 0.512347 0.284156 0.179207
H16   H     H_    0.878741 0.694756 0.237622 0.202247
H17   H     H_    0.879313 0.582058 0.273236 0.150364
H18   H     H_    0.991823 0.641000 0.248579 0.166265
H19   H     H_    0.131362 0.187623 0.645897 0.199050
H20   H     H_    0.134657 0.237771 0.548624 0.158553
H21   H     H_    0.020527 0.205461 0.600714 0.180541
H22   H     H_    0.167030 0.380745 0.921637 0.197546
H23   H     H_    0.249202 0.605182 0.416193 0.179274
H24   H     H_    0.263926 0.307927 0.889198 0.156866
H25   H     H_    0.214278 0.386753 0.819650 0.188825
H26   H     H_    0.744635 0.510996 0.067867 0.150423
H27   H     H_    0.831471 0.422847 0.066981 0.199918
H28   H     H_    0.792652 0.472581 0.160496 0.162914
H29   H     H_    0.602255 0.168330 0.677038 0.125943
H30   H     H_    0.558276 0.280596 0.660049 0.148855
H31   H     H_    0.681014 0.261244 0.681409 0.215087
H32   H     H_    0.442584 0.700017 0.340734 0.145697
H33   H     H_    0.403928 0.810086 0.309676 0.133663
H34   H     H_    0.750818 0.394353 0.583429 0.198064
H35   H     H_    0.321664 0.718817 0.315587 0.202593
H36   H     H_    0.303308 0.951732 0.293876 0.132961
H37   H     H_    0.196995 0.006800 0.340913 0.158913
H38   H     H_    0.192774 0.892735 0.311678 0.198375
H39   H     H_    0.826831 0.993676 0.623825 0.165609
H40   H     H_    0.721217 0.038217 0.681145 0.135612
H41   H     H_    0.825505 0.105402 0.659903 0.191839
H42   H     H_    0.100348 0.667435 0.365593 0.172762
H43   H     H_    0.899667 0.331979 0.633917 0.171207
H44   H     H_    0.667039 0.437843 0.260121 0.198667
H45   H     H_    0.329951 0.496349 0.756344 0.198639
H46   H     H_    0.606859 0.429660 0.983850 0.170094
N1    N     N_R   0.249970 0.499930 0.499970 -0.119478
N2    N     N_R   0.750030 0.500070 0.500030 -0.121193
O1    O     O_R   0.419720 0.632140 0.499990 -0.571713
O2    O     O_3   0.358413 0.539696 0.247863 -0.616510
O3    O     O_3   0.914099 0.680627 0.353543 -0.603836
O4    O     O_3   0.086196 0.317770 0.644916 -0.625725
O5    O     O_3   0.298089 0.441712 0.904899 -0.617068
O6    O     O_3   0.696210 0.386733 0.110853 -0.599390
O7    O     O_3   0.649236 0.228496 0.567899 -0.560694
O8    O     O_3   0.352586 0.768659 0.424416 -0.560638
O9    O     O_3   0.262684 0.915128 0.412955 -0.550083
O10   O     O_3   0.747020 0.085464 0.562953 -0.550357
O11   O     O_R   0.580280 0.367860 0.500010 -0.570199
O12   O     O_R   0.580270 0.632160 0.499980 -0.641244
O13   O     O_R   0.419730 0.367840 0.500020 -0.648062
O14   O     O_R   0.410240 0.500000 0.615800 -0.629787
O15   O     O_R   0.589760 0.500000 0.384200 -0.637179
O16   O     O_R   0.570790 0.500020 0.615800 -0.569250
O17   O     O_R   0.429210 0.499980 0.384200 -0.584362
O18   O     O_3   0.651107 0.425388 0.728355 -0.621160
Zn1   Zn    Zn3+2 0.392800 0.499980 0.500010 0.964814
Zn2   Zn    Zn3+2 0.607200 0.500020 0.499990 0.973096

loop_
_geom_bond_atom_site_label_1
_geom_bond_atom_site_label_2
_ccdc_geom_bond_type
C48   H19   S    
C48   O4    S    
C8    H8    S    
C23   C45   A    
C53   H37   S    
C14   C18   A    
C36   C42   S    
C24   C27   A    
C6    C9    A    
C2    C57   A    
C50   H26   S    
C39   C41   A    
C15   C19   A    
C51   O7    S    
C48   H21   S    
C35   C37   A    
C47   H18   S    
C16   O14   A    
C26   H43   S    
O17   Zn1   S    
C23   O7    S    
C13   H12   S    
C33   C36   A    
C41   H44   S    
C48   H20   S    
C19   C26   A    
C16   O16   A    
C43   H46   S    
C50   H27   S    
C15   H34   S    
C52   H32   S    
C17   O17   A    
C14   N1    A    
C45   C56   A    
C33   H4    S    
C54   O10   S    
C11   N1    A    
C31   C33   A    
C30   C41   A    
O11   Zn2   S    
C7    C58   A    
C46   H14   S    
C49   O5    S    
C34   C55   A    
C38   C40   A    
C22   C28   A    
C53   H38   S    
C17   C30   S    
C18   C25   A    
C11   H1    S    
C44   H9    S    
C9    O9    S    
C32   C35   A    
C52   H35   S    
O1    Zn1   S    
C4    C6    A    
C51   H29   S    
O14   Zn1   S    
C13   N2    A    
C28   O4    S    
C16   C29   S    
C47   O3    S    
C44   O18   S    
C6    C34   A    
C13   C24   A    
C46   O2    S    
C49   H24   S    
O16   Zn2   S    
C2    C4    A    
C7    H7    S    
C12   O13   A    
C25   H42   S    
C5    C23   A    
C50   O6    S    
C56   H5    S    
C44   H11   S    
C35   H3    S    
C46   H13   S    
C1    O1    A    
O13   Zn1   S    
C17   O15   A    
C39   O6    S    
C20   C22   A    
C55   C57   A    
C37   C43   S    
C44   H10   S    
C25   C27   A    
C42   C43   D    
C42   H2    S    
C3    C4    A    
C10   O10   S    
C15   N2    A    
C57   H6    S    
C7    C9    A    
C19   C21   A    
C53   H36   S    
C8    C10   A    
C2    C8    A    
C47   H16   S    
C12   C45   S    
C3    C5    A    
C51   H30   S    
C31   O18   S    
C52   O8    S    
C34   O8    S    
N2    Zn2   S    
C11   C22   A    
C26   C28   A    
C49   H22   S    
N1    Zn1   S    
C49   H25   S    
C36   C38   A    
C1    C55   S    
C47   H17   S    
C5    C10   A    
C29   C31   A    
C51   H31   S    
C40   H45   S    
C30   C32   A    
C29   C40   A    
C56   C58   A    
C18   C20   A    
C1    O12   A    
C54   H41   S    
C50   H28   S    
C54   H39   S    
C3    C58   A    
O15   Zn2   S    
C20   C21   A    
C27   O3    S    
C37   C39   A    
C32   O2    S    
C21   C24   A    
C54   H40   S    
C52   H33   S    
C12   O11   A    
O12   Zn2   S    
C14   H23   S    
C38   O5    S    
C46   H15   S    
C53   O9    S    
