data_mof_unit_10457.cif
_audit_creation_date              2013-03-05T15:46:22-0500
_audit_creation_method            fapswitch 2.2
_symmetry_space_group_name_H-M    P1
_symmetry_Int_Tables_number       1
_space_group_crystal_system       triclinic
_cell_length_a                    10.918592
_cell_length_b                    10.970036
_cell_length_c                    18.830285
_cell_angle_alpha                 90.571607
_cell_angle_beta                  90.913903
_cell_angle_gamma                 60.184463
_cell_volume                      1956.63588999

loop_
_atom_site_label
_atom_site_type_symbol
_atom_site_description
_atom_site_fract_x
_atom_site_fract_y
_atom_site_fract_z
_atom_type_partial_charge
O1    O     O_R   0.748800 0.497470 0.428000 -0.544258
O2    O     O_R   0.476420 0.724060 0.429470 -0.517441
C1    C     C_R   0.358983 0.771798 0.397174 0.539383
O3    O     O_R   0.264580 0.744340 0.416750 -0.484303
O4    O     O_R   0.309380 0.472470 0.418200 -0.491064
C2    C     C_R   0.386491 0.355187 0.387478 0.533685
O5    O     O_R   0.501710 0.260430 0.414300 -0.530772
O6    O     O_R   0.728090 0.305600 0.428960 -0.502007
C3    C     C_R   0.774634 0.381001 0.402196 0.542458
O7    O     O_R   0.738760 0.495930 0.588610 -0.439677
O8    O     O_R   0.467110 0.722640 0.578360 -0.483788
C4    C     C_R   0.345333 0.766344 0.605390 0.568503
O9    O     O_R   0.254530 0.742800 0.577360 -0.480765
O10   O     O_R   0.300070 0.471040 0.567100 -0.472167
C5    C     C_R   0.372253 0.350083 0.596944 0.571388
O11   O     O_R   0.491670 0.258900 0.574910 -0.460922
O12   O     O_R   0.718780 0.304180 0.577850 -0.451589
C6    C     C_R   0.759975 0.380653 0.611974 0.606169
Cr1   Cr    Cr6+3 0.601770 0.606860 0.505860 1.082498
Cr2   Cr    Cr6+3 0.291380 0.601660 0.495070 1.098908
Cr3   Cr    Cr6+3 0.606880 0.291510 0.499120 1.098350
O13   O     O_3   0.500010 0.500010 0.500020 -0.301939
C7    C     C_R   0.837401 0.909716 0.092273 -0.052882
C8    C     C_R   0.782761 0.049267 0.071428 -0.081900
C9    C     C_R   0.671894 0.157655 0.108922 -0.071022
C10   C     C_R   0.611073 0.126249 0.166123 0.048911
H1    H     H_    0.580066 0.173562 0.301367 0.141628
C11   C     C_R   0.355498 0.329590 0.163801 0.003723
C12   C     C_R   0.482382 0.245036 0.274035 -0.148983
C13   C     C_R   0.481855 0.238481 0.200848 -0.028468
C14   C     C_R   0.047691 0.696588 0.292150 0.253125
C15   C     C_R   0.933601 0.798415 0.330858 -0.083066
C16   C     C_R   0.667176 0.985229 0.186835 -0.097133
C17   C     C_R   0.780003 0.877811 0.150120 -0.077260
C18   C     C_R   0.238278 0.432478 0.201137 -0.094132
C19   C     C_R   0.240083 0.441895 0.274855 -0.004147
C20   C     C_R   0.884074 0.760149 0.389506 -0.148032
C21   C     C_R   0.945835 0.619269 0.408736 -0.090923
C22   C     C_R   0.054249 0.515669 0.368103 -0.104126
C23   C     C_R   0.111109 0.552840 0.311127 0.051973
C24   C     C_R   0.363537 0.343172 0.311865 -0.004331
H2    H     H_    0.822031 0.769619 0.166063 0.121175
H3    H     H_    0.885119 0.908129 0.316416 0.129430
H4    H     H_    0.923808 0.826232 0.063400 0.140251
H5    H     H_    0.825567 0.073250 0.025730 0.152990
H6    H     H_    0.630021 0.265345 0.091895 0.114870
H7    H     H_    0.621146 0.958064 0.230157 0.101127
H8    H     H_    0.140184 0.500619 0.173280 0.173387
H9    H     H_    0.798404 0.839891 0.420378 0.137848
H10   H     H_    0.910146 0.590423 0.455526 0.190816
H11   H     H_    0.098933 0.406617 0.383352 0.118291
C25   C     C_R   0.860430 0.228549 0.296240 -0.143036
H12   H     H_    0.872033 0.139311 0.325921 0.132579
C26   C     C_R   0.881804 0.216644 0.223648 -0.140747
H13   H     H_    0.916289 0.115393 0.198851 0.180892
C27   C     C_R   0.864287 0.333042 0.184451 0.017586
C28   C     C_R   0.823405 0.461073 0.217929 -0.149122
H14   H     H_    0.809310 0.551930 0.188829 0.129343
C29   C     C_R   0.804171 0.472245 0.289971 -0.147960
H15   H     H_    0.768730 0.574487 0.313737 0.147072
C30   C     C_R   0.822610 0.356267 0.329723 0.021851
C31   C     C_R   0.440325 0.703886 0.275561 -0.086090
H16   H     H_    0.505263 0.596486 0.293468 0.120149
C32   C     C_R   0.433156 0.733014 0.203415 -0.107381
H17   H     H_    0.491403 0.648700 0.165945 0.116803
C33   C     C_R   0.342844 0.869583 0.180055 0.067654
C34   C     C_R   0.265232 0.978092 0.228864 -0.090992
H18   H     H_    0.194668 0.084201 0.210543 0.113506
C35   C     C_R   0.271236 0.948628 0.300895 -0.118669
H19   H     H_    0.206960 0.031436 0.337971 0.110037
C36   C     C_R   0.357061 0.810941 0.323927 0.061370
C37   C     C_R   0.459290 0.241645 0.714835 0.155106
C38   C     C_R   0.445874 0.259547 0.787290 -0.090835
H20   H     H_    0.537109 0.196093 0.820871 0.205809
C39   C     C_R   0.313182 0.335550 0.816953 -0.056174
C40   C     C_R   0.195207 0.419614 0.774035 -0.136568
H21   H     H_    0.091345 0.477730 0.797092 0.202949
C41   C     C_R   0.209158 0.419607 0.700330 0.145845
C42   C     C_R   0.342212 0.329487 0.669957 -0.013039
C43   C     C_R   0.736215 0.468603 0.737053 0.139875
C44   C     C_R   0.725058 0.433488 0.806451 0.212790
C45   C     C_R   0.831243 0.308469 0.832854 -0.019568
C46   C     C_R   0.912660 0.197757 0.785791 -0.121705
H22   H     H_    0.995443 0.097622 0.805580 0.166022
C47   C     C_R   0.890078 0.218690 0.712617 0.229104
C48   C     C_R   0.801769 0.355453 0.687188 -0.001419
C49   C     C_R   0.235241 0.774877 0.719547 -0.084683
H23   H     H_    0.172575 0.734292 0.694888 0.211748
C50   C     C_R   0.227910 0.793501 0.792205 -0.146810
H24   H     H_    0.153926 0.775303 0.821537 0.170581
C51   C     C_R   0.312981 0.838329 0.826221 0.035524
C52   C     C_R   0.411470 0.859465 0.786086 0.217771
C53   C     C_R   0.403853 0.856343 0.712436 -0.079953
H25   H     H_    0.468152 0.883496 0.680596 0.223492
C54   C     C_R   0.322013 0.808202 0.679312 0.008958
O14   O     O_R   0.186690 0.923650 0.086970 -0.476845
O15   O     O_R   0.957250 0.194250 0.084630 -0.527091
C55   C     C_R   0.913171 0.314335 0.112334 0.540308
O16   O     O_R   0.934970 0.407490 0.085330 -0.517667
O17   O     O_R   0.203780 0.365190 0.067090 -0.512673
C56   C     C_R   0.328837 0.294039 0.092515 0.533217
O18   O     O_R   0.417600 0.174890 0.067840 -0.506712
O19   O     O_R   0.375320 0.946260 0.070860 -0.502450
C57   C     C_R   0.308164 0.900052 0.105605 0.559089
O20   O     O_R   0.160600 0.919630 0.926660 -0.533928
O21   O     O_R   0.933060 0.190520 0.936020 -0.532645
C58   C     C_R   0.883765 0.306004 0.904495 0.597695
O22   O     O_R   0.908880 0.403460 0.925020 -0.442122
O23   O     O_R   0.179600 0.361450 0.918490 -0.503120
C59   C     C_R   0.296740 0.291925 0.886943 0.550653
O24   O     O_R   0.391510 0.170860 0.907530 -0.487123
O25   O     O_R   0.351130 0.942530 0.922260 -0.444643
C60   C     C_R   0.277633 0.892701 0.898256 0.576528
Cr4   Cr    Cr6+3 0.062440 0.063090 0.008210 1.016096
Cr5   Cr    Cr6+3 0.062880 0.375170 0.998920 1.061716
Cr6   Cr    Cr6+3 0.374700 0.061720 0.992470 1.104605
O26   O     O_3   0.166667 0.166667 0.999870 -0.283097
N1    N     N_R   0.589993 0.127498 0.688655 0.139518
O27   O     O_R   0.708236 0.095270 0.721063 -0.277614
O28   O     O_R   0.587001 0.034676 0.646081 -0.257125
N2    N     N_R   0.086726 0.504530 0.657054 0.092658
O29   O     O_R   0.061061 0.452382 0.600093 -0.323957
O30   O     O_R   0.995530 0.631339 0.676961 -0.244444
N3    N     N_R   0.744340 0.595389 0.729799 0.127814
O31   O     O_R   0.805553 0.629197 0.779930 -0.223952
O32   O     O_R   0.696781 0.675962 0.674509 -0.247944
Cl1   Cl    Cl    0.595537 0.552086 0.864183 -0.566454
Cl2   Cl    Cl    0.985169 0.077322 0.654238 -0.531449
N4    N     N_R   0.520266 0.882052 0.817945 0.128585
O33   O     O_R   0.570365 0.948025 0.782707 -0.270389
O34   O     O_R   0.591359 0.812124 0.873733 -0.220159
Cl3   Cl    Cl    0.110879 0.755827 0.222932 -0.678339

loop_
_geom_bond_atom_site_label_1
_geom_bond_atom_site_label_2
_geom_bond_distance
_ccdc_geom_bond_type
C22   H11   1.083327 S    
C49   H23   1.081964 S    
C56   O18   1.267341 A    
H1    C12   1.084504 S    
C38   H20   1.084378 S    
C18   C19   1.391476 A    
C17   H2    1.081879 S    
C27   C55   1.442129 S    
O15   C55   1.266087 A    
O4    Cr2   1.957935 S    
C47   C48   1.403904 A    
C14   C23   1.418230 A    
C14   Cl3   1.757439 S    
O8    Cr1   1.952210 S    
C20   C21   1.393309 A    
O21   Cr4   1.952053 S    
C3    C30   1.443769 S    
C8    H5    1.080626 S    
O22   Cr5   2.067637 S    
O20   C60   1.284308 A    
C40   C41   1.398633 A    
C37   C42   1.426071 A    
O2    C1    1.265691 A    
C25   C30   1.395139 A    
O16   Cr5   2.071788 S    
C21   C22   1.397141 A    
C28   C29   1.370978 A    
O25   Cr6   1.952685 S    
O21   C58   1.254505 A    
C5    O11   1.258892 A    
C55   O16   1.271078 A    
Cr6   O26   1.977549 S    
O12   C6    1.293920 A    
C35   C36   1.392927 A    
C41   N2    1.435597 S    
N1    O27   1.299796 A    
C52   C53   1.389112 A    
C43   C48   1.431563 A    
C59   O24   1.271106 A    
C11   C56   1.459008 S    
C5    C42   1.463935 S    
C46   H22   1.082856 S    
C11   C18   1.408066 A    
O6    C3    1.277079 A    
Cr5   O26   1.984650 S    
C2    C24   1.457786 S    
C49   C54   1.406446 A    
C31   C32   1.390760 A    
C7    C8    1.396385 A    
C4    C54   1.447611 S    
O24   Cr6   2.071585 S    
C50   C51   1.394219 A    
C33   C34   1.407008 A    
C29   H15   1.082545 S    
C53   C54   1.382516 A    
Cr3   O13   1.984749 S    
C44   Cl1   1.750884 S    
C38   C39   1.386176 A    
O14   Cr4   2.072993 S    
C19   C24   1.417378 A    
O17   Cr5   1.949067 S    
C18   H8    1.083901 S    
O25   C60   1.251722 A    
C25   C26   1.384311 A    
C44   C45   1.373434 A    
C26   C27   1.408277 A    
C29   C30   1.406768 A    
O1    Cr1   2.071477 S    
C34   H18   1.084101 S    
O10   Cr2   1.949710 S    
O20   Cr4   2.076175 S    
C19   C23   1.496868 S    
Cr1   O13   1.977150 S    
O1    C3    1.257661 A    
C8    C9    1.398842 A    
C22   C23   1.408716 A    
C41   C42   1.414921 A    
C43   C44   1.390210 A    
C9    C10   1.406279 A    
C15   C20   1.393650 A    
O12   Cr3   1.953690 S    
C7    H4    1.082418 S    
C51   C60   1.454762 S    
C34   C35   1.390456 A    
C32   C33   1.393052 A    
C1    C36   1.445373 S    
C39   C40   1.401154 A    
C12   C13   1.379371 A    
C33   C57   1.444653 S    
C20   H9    1.082425 S    
C10   C16   1.408050 A    
C14   C15   1.399939 A    
O7    Cr1   2.073540 S    
C58   O22   1.283528 A    
C7    C17   1.396161 A    
C31   H16   1.083570 S    
O6    Cr3   1.945265 S    
C53   H25   1.079816 S    
C6    C48   1.467090 S    
C45   C58   1.452612 S    
C40   H21   1.082689 S    
N2    O29   1.301461 A    
C46   C47   1.396871 A    
Cr2   O13   1.977502 S    
C10   C13   1.489957 S    
C49   C50   1.379026 A    
C16   H7    1.083382 S    
C27   C28   1.391819 A    
C1    O3    1.269697 A    
C51   C52   1.434805 A    
C25   H12   1.082632 S    
N3    O32   1.295982 A    
N4    O33   1.295428 A    
C43   N3    1.444949 S    
C26   H13   1.083008 S    
C39   C59   1.450435 S    
O9    Cr2   2.076722 S    
C12   C24   1.405435 A    
O2    Cr1   1.954375 S    
C37   C38   1.376184 A    
O8    C4    1.280492 A    
O11   Cr3   2.064476 S    
C2    O5    1.268093 A    
C21   H10   1.080471 S    
C32   H17   1.083579 S    
O14   C57   1.262868 A    
C52   N4    1.448926 S    
C50   H24   1.083629 S    
O5    Cr3   2.075044 S    
O23   C59   1.271053 A    
C28   H14   1.083066 S    
O4    C2    1.273722 A    
O7    C6    1.250184 A    
C11   C13   1.414563 A    
O17   C56   1.276583 A    
C15   H3    1.082182 S    
C16   C17   1.396974 A    
C31   C36   1.406605 A    
O19   Cr6   1.952350 S    
C35   H19   1.083578 S    
N1    O28   1.302520 A    
N2    O30   1.300473 A    
Cr4   O26   1.976326 S    
O18   Cr6   2.072879 S    
O23   Cr5   1.951114 S    
O3    Cr2   2.070587 S    
C4    O9    1.250388 A    
C45   C46   1.407368 A    
C37   N1    1.442478 S    
O19   C57   1.270505 A    
O10   C5    1.287815 A    
C47   Cl2   1.758609 S    
O15   Cr4   1.956577 S    
C9    H6    1.083157 S    
N3    O31   1.301815 A    
N4    O34   1.300965 A    
