data_mof_unit_20243.cif
_audit_creation_date              2012-12-10T17:57:23-0500
_audit_creation_method            fapswitch 2.2
_symmetry_space_group_name_H-M    P1
_symmetry_Int_Tables_number       1
_space_group_crystal_system       triclinic
_cell_length_a                    9.558276
_cell_length_b                    10.872015
_cell_length_c                    13.565696
_cell_angle_alpha                 92.057632
_cell_angle_beta                  73.217361
_cell_angle_gamma                 89.371838
_cell_volume                      1348.46672911

loop_
_atom_site_label
_atom_site_type_symbol
_atom_type_description
_atom_site_fract_x
_atom_site_fract_y
_atom_site_fract_z
_atom_type_partial_charge
C1    C     C_R   0.501415 0.737259 0.495352 0.798109
C2    C     C_R   0.450980 0.497752 0.973392 0.096347
C3    C     C_R   0.487005 0.468901 0.866473 0.055569
C4    C     C_R   0.558133 0.479862 0.025418 -0.058504
C5    C     C_R   0.705827 0.459938 0.968672 -0.018585
C6    C     C_R   0.739682 0.424318 0.863730 0.016341
C7    C     C_R   0.627737 0.417596 0.817002 -0.196818
C8    C     C_R   0.519521 0.468353 0.132726 0.354617
C9    C     C_R   0.774979 0.484827 0.127785 0.441344
C10   C     C_R   0.382013 0.493655 0.812816 -0.089743
C11   C     C_R   0.636528 0.933621 0.465434 -0.083727
C12   C     C_R   0.423235 0.494324 0.699352 0.796461
C13   C     C_R   0.634600 0.059879 0.486606 -0.055592
C14   C     C_R   0.501851 0.127672 0.506873 -0.079711
C15   C     C_R   0.370177 0.065016 0.526442 -0.202515
C16   C     C_R   0.370530 0.937599 0.521327 -0.177873
C17   C     C_R   0.503249 0.870907 0.490964 -0.085066
C18   C     C_R   0.896017 0.577896 0.566572 0.563770
C19   C     C_R   0.046167 0.577026 0.566653 -0.120678
C20   C     C_R   0.101907 0.420032 0.436181 0.612437
C21   C     C_R   0.952911 0.422213 0.435262 -0.176955
C22   C     C_R   0.499425 0.262242 0.504162 0.766813
C23   C     C_R   0.578456 0.495238 0.299898 0.848454
C24   C     C_R   0.813489 0.467926 0.020071 -0.295230
C25   C     C_R   0.625466 0.484763 0.185614 -0.252068
C26   C     C_R   0.241224 0.536353 0.868284 -0.179754
C27   C     C_R   0.207434 0.565609 0.973006 -0.190723
C28   C     C_R   0.311495 0.549145 0.024851 -0.117073
Cu1   Cu    Cu3+1 0.359340 0.499980 0.500000 1.022842
Cu2   Cu    Cu3+1 0.640660 0.500020 0.500000 1.017148
H1    H     H_    0.266557 0.114302 0.550480 0.162878
H2    H     H_    0.266801 0.891525 0.541609 0.170297
H3    H     H_    0.917256 0.360600 0.383676 0.155974
H4    H     H_    0.927671 0.462331 0.976633 0.163089
H5    H     H_    0.159159 0.554396 0.829712 0.185110
H6    H     H_    0.282906 0.581162 0.104696 0.191521
H7    H     H_    0.101500 0.605752 0.013664 0.188475
H8    H     H_    0.653814 0.371817 0.741769 0.173727
N1    N     N_R   0.147940 0.499970 0.499970 -0.238756
N2    N     N_R   0.852060 0.500060 0.499990 -0.214095
O1    O     O_R   0.381250 0.680340 0.500010 -0.592728
O2    O     O_R   0.618820 0.680370 0.500010 -0.546649
O3    O     O_R   0.323240 0.499950 0.650980 -0.575094
O4    O     O_R   0.560810 0.499980 0.650980 -0.543905
O5    O     O_R   0.381180 0.319630 0.499990 -0.550426
O6    O     O_R   0.618750 0.319660 0.499990 -0.594026
O7    O     O_R   0.439190 0.500020 0.349020 -0.499792
O8    O     O_R   0.676760 0.500050 0.349020 -0.546178
O9    O     O_3   0.882917 0.504122 0.175879 -0.550469
C29   C     C_3   0.966047 0.394369 0.169164 -0.307944
H9    H     H_    0.896142 0.317959 0.206427 0.144343
H10   H     H_    0.049293 0.410767 0.210241 0.214695
H11   H     H_    0.026783 0.366789 0.088366 0.159763
C30   C     C_1   0.762528 0.112931 0.505762 0.244296
N3    N     N_1   0.862668 0.154742 0.524712 -0.338467
O10   O     O_3   0.789029 0.644489 0.641255 -0.553167
C31   C     C_3   0.812788 0.772607 0.637467 -0.274665
H12   H     H_    0.897715 0.801447 0.567492 0.138108
H13   H     H_    0.843001 0.804638 0.707011 0.174323
H14   H     H_    0.708652 0.820639 0.640415 0.191007
C32   C     C_1   0.090989 0.655783 0.639163 0.345215
N4    N     N_1   0.126092 0.720086 0.697234 -0.330875
O11   O     O_3   0.204620 0.342899 0.369134 -0.527437
C33   C     C_3   0.164124 0.219106 0.383075 -0.337745
H15   H     H_    0.126041 0.198275 0.465787 0.188806
H16   H     H_    0.261707 0.159204 0.347810 0.182298
H17   H     H_    0.080699 0.195416 0.343459 0.149279
C34   C     C_1   0.885567 0.385008 0.803936 0.212753
N5    N     N_1   0.002101 0.353407 0.755923 -0.295579
O12   O     O_3   0.383664 0.423574 0.183206 -0.541057
C35   C     C_3   0.381124 0.297104 0.154572 -0.221526
H18   H     H_    0.445464 0.241550 0.194091 0.158214
H19   H     H_    0.421594 0.276946 0.069993 0.128136
H20   H     H_    0.266597 0.266519 0.177800 0.181401
C36   C     C_1   0.774974 0.871675 0.413202 0.243717
N6    N     N_1   0.885193 0.822635 0.370860 -0.276485

loop_
_geom_bond_atom_site_label_1
_geom_bond_atom_site_label_2
_ccdc_geom_bond_type
C4    C8    A    
C9    C25   A    
C5    C24   A    
C26   C27   A    
Cu1   O7    S    
C19   N1    A    
Cu2   O8    S    
C19   C32   S    
C12   O3    A    
C3    C7    A    
C5    C6    A    
C31   H13   S    
C21   H3    S    
C15   C16   A    
O10   C31   S    
C18   C19   A    
C18   N2    A    
C16   C17   A    
C29   H10   S    
O12   C35   S    
C18   O10   S    
C10   C26   A    
C6    C34   S    
C13   C14   A    
Cu1   O3    S    
C8    C25   A    
Cu2   O4    S    
C29   H11   S    
C23   O7    A    
C33   H17   S    
C9    O9    S    
C35   H19   S    
C20   N1    A    
C34   N5    T    
C31   H14   S    
C24   H4    S    
Cu1   O5    S    
C33   H16   S    
C2    C4    A    
C36   N6    T    
Cu1   Cu2   S    
C1    O2    A    
Cu1   N1    S    
C29   H9    S    
Cu2   N2    S    
C10   C12   S    
C1    O1    A    
C22   O6    A    
C13   C30   S    
C30   N3    T    
C11   C17   A    
C23   O8    A    
Cu1   O1    S    
C1    C17   S    
Cu2   O6    S    
C4    C5    A    
C35   H20   S    
C9    C24   A    
C15   H1    S    
C6    C7    A    
C16   H2    S    
C8    O12   S    
C33   H15   S    
C14   C22   S    
C20   O11   S    
C2    C3    A    
C35   H18   S    
C12   O4    A    
C3    C10   A    
C11   C36   S    
C11   C13   A    
C31   H12   S    
C21   N2    A    
C27   H7    S    
C7    H8    S    
C23   C25   S    
C32   N4    T    
O11   C33   S    
C26   H5    S    
C22   O5    A    
C20   C21   A    
C28   H6    S    
O9    C29   S    
C27   C28   A    
C14   C15   A    
Cu2   O2    S    
C2    C28   A    
