data_mof_unit_12439.cif
_audit_creation_date              2012-12-10T19:43:27-0500
_audit_creation_method            fapswitch 2.2
_symmetry_space_group_name_H-M    P1
_symmetry_Int_Tables_number       1
_space_group_crystal_system       triclinic
_cell_length_a                    11.082667
_cell_length_b                    10.940838
_cell_length_c                    9.718074
_cell_angle_alpha                 88.508146
_cell_angle_beta                  91.427266
_cell_angle_gamma                 97.484466
_cell_volume                      1167.64151892

loop_
_atom_site_label
_atom_site_type_symbol
_atom_type_description
_atom_site_fract_x
_atom_site_fract_y
_atom_site_fract_z
_atom_type_partial_charge
C1    C     C_R   0.507277 0.263633 0.501844 0.813569
C2    C     C_R   0.135665 0.425419 0.963361 -0.159941
C3    C     C_R   0.925643 0.460816 0.390422 -0.262277
C4    C     C_R   0.871478 0.496105 0.508446 -0.093269
C5    C     C_R   0.948396 0.531304 0.623735 0.044511
C6    C     C_R   0.074579 0.535947 0.613145 -0.257564
C7    C     C_R   0.128299 0.500395 0.495217 -0.086733
C8    C     C_R   0.051795 0.466094 0.380594 0.052442
C9    C     C_R   0.949990 0.665044 0.826651 -0.216680
C10   C     C_R   0.933117 0.678567 0.967303 0.250917
C11   C     C_R   0.870088 0.580195 0.042981 -0.108352
C12   C     C_R   0.262366 0.498866 0.498148 0.768449
C13   C     C_R   0.823303 0.469929 0.978284 0.177988
C14   C     C_R   0.844473 0.456674 0.838693 -0.086912
C15   C     C_R   0.905747 0.554475 0.761731 0.029726
C16   C     C_R   0.555985 0.106710 0.754051 -0.201620
C17   C     C_R   0.520899 0.042617 0.875864 -0.160275
C18   C     C_R   0.448227 0.929032 0.869069 -0.126534
C19   C     C_R   0.425424 0.872447 0.743081 -0.138511
C20   C     C_R   0.471020 0.931341 0.621135 0.046626
C21   C     C_R   0.514858 0.057904 0.625882 0.095675
C22   C     C_R   0.512427 0.129545 0.503364 -0.165073
C23   C     C_R   0.488477 0.735906 0.497820 0.781308
C24   C     C_R   0.492721 0.069644 0.378051 -0.219195
C25   C     C_R   0.473954 0.941654 0.371293 0.191234
C26   C     C_R   0.472052 0.869225 0.495007 -0.142034
C27   C     C_R   0.639448 0.693581 0.137557 -0.208991
C28   C     C_R   0.692888 0.796044 0.061777 -0.228300
C29   C     C_R   0.693995 0.793183 0.918377 0.224301
C30   C     C_R   0.643707 0.686342 0.853583 -0.112473
C31   C     C_R   0.569610 0.592835 0.924137 0.127726
C32   C     C_R   0.568199 0.594582 0.072446 0.182236
C33   C     C_R   0.434008 0.410501 0.076083 -0.040842
C34   C     C_R   0.737572 0.499609 0.502669 0.766137
C35   C     C_R   0.432804 0.409834 0.929068 0.249233
C36   C     C_R   0.178983 0.537079 0.026445 0.206903
C37   C     C_R   0.152819 0.553053 0.165783 0.264988
C38   C     C_R   0.097199 0.450076 0.242563 0.033476
C39   C     C_R   0.064487 0.336194 0.179884 -0.238914
C40   C     C_R   0.080798 0.324125 0.039554 0.194671
Cu1   Cu    Cu3+1 0.499990 0.499990 0.640660 0.910458
Cu2   Cu    Cu3+1 0.500010 0.500010 0.359340 0.920147
H1    H     H_    0.146711 0.415966 0.854663 0.153317
H2    H     H_    0.412996 0.881797 0.960643 0.141930
H3    H     H_    0.369482 0.784232 0.740938 0.160230
H4    H     H_    0.380175 0.337583 0.133368 0.142716
H5    H     H_    0.659882 0.692361 0.245649 0.209743
H6    H     H_    0.740443 0.874129 0.115532 0.153048
H7    H     H_    0.666606 0.677829 0.748394 0.201085
H8    H     H_    0.019773 0.258659 0.239123 0.153390
H9    H     H_    0.131860 0.568272 0.699121 0.164137
N1    N     N_R   0.501190 0.501210 0.147910 -0.219558
N2    N     N_R   0.501230 0.501290 0.852040 -0.205842
O1    O     O_R   0.499990 0.319640 0.618810 -0.585604
O2    O     O_R   0.500000 0.319660 0.381240 -0.588393
O3    O     O_R   0.319640 0.500000 0.618780 -0.605891
O4    O     O_R   0.319650 0.500020 0.381210 -0.570929
O5    O     O_R   0.500000 0.680340 0.618760 -0.606934
O6    O     O_R   0.500010 0.680360 0.381190 -0.592489
O7    O     O_R   0.680350 0.499980 0.618790 -0.596491
O8    O     O_R   0.680360 0.500000 0.381220 -0.606047
H10   H     H_    0.855392 0.591028 0.151145 0.138537
C41   C     C_3   0.750434 0.366108 0.055577 -0.914021
H11   H     H_    0.673360 0.323830 0.990191 0.228201
H12   H     H_    0.808503 0.294526 0.085809 0.233384
H13   H     H_    0.711491 0.399044 0.149202 0.263454
H14   H     H_    0.814994 0.369308 0.790315 0.137457
H15   H     H_    0.489138 0.122937 0.282631 0.173416
H16   H     H_    0.610973 0.195564 0.761659 0.158893
H17   H     H_    0.546041 0.083282 0.974528 0.137795
C42   C     C_3   0.446630 0.893802 0.229001 -0.900142
H18   H     H_    0.416708 0.794770 0.221254 0.270927
H19   H     H_    0.370995 0.939645 0.182749 0.213408
H20   H     H_    0.528107 0.919255 0.165964 0.237455
C43   C     C_3   0.255844 0.635228 0.945132 -0.928620
H21   H     H_    0.289100 0.597684 0.850908 0.256438
H22   H     H_    0.203794 0.711348 0.914438 0.226572
H23   H     H_    0.337478 0.671225 0.006925 0.237582
C44   C     C_3   0.755115 0.898880 0.832593 -0.884811
H24   H     H_    0.837173 0.872995 0.784056 0.223971
H25   H     H_    0.693864 0.921035 0.746947 0.253668
H26   H     H_    0.780296 0.982584 0.894631 0.230318
C45   C     C_3   0.355666 0.304083 0.862355 -0.821296
H27   H     H_    0.301670 0.332787 0.773853 0.258675
H28   H     H_    0.413092 0.239029 0.828197 0.252555
H29   H     H_    0.293220 0.251176 0.936072 0.201399
C46   C     C_3   0.175556 0.679049 0.231098 -0.855449
H30   H     H_    0.090435 0.701697 0.275609 0.224493
H31   H     H_    0.243799 0.682926 0.315486 0.241950
H32   H     H_    0.209485 0.753666 0.158362 0.228958
C47   C     C_3   0.040069 0.203070 0.972216 -0.911584
H33   H     H_    0.058695 0.207994 0.860282 0.235523
H34   H     H_    0.940924 0.176489 0.984901 0.232112
H35   H     H_    0.089102 0.130210 0.020681 0.235138
H36   H     H_    0.869275 0.430564 0.302872 0.167968
H37   H     H_    0.001385 0.739192 0.768373 0.139751
C48   C     C_3   0.980698 0.798553 0.034554 -0.905679
H38   H     H_    0.079064 0.822063 0.018712 0.229024
H39   H     H_    0.960373 0.796154 0.145726 0.227540
H40   H     H_    0.940166 0.876658 0.988208 0.245390

loop_
_geom_bond_atom_site_label_1
_geom_bond_atom_site_label_2
_ccdc_geom_bond_type
C23   O5    A    
C46   H30   S    
C41   H12   S    
C16   C21   A    
C35   N2    A    
Cu1   Cu2   S    
C19   C20   A    
C1    O1    A    
C11   H10   S    
C48   H38   S    
C7    C8    A    
C33   N1    A    
C23   O6    A    
C37   C38   A    
C5    C6    A    
C36   C37   A    
Cu1   O5    S    
C30   C31   A    
C2    C36   A    
C18   C19   A    
C23   C26   S    
C32   N1    A    
C42   H20   S    
C28   H6    S    
C45   H27   S    
C16   C17   A    
C13   C41   S    
C14   H14   S    
C25   C42   S    
C6    H9    S    
C9    C10   A    
C9    H37   S    
C41   H13   S    
C1    C22   S    
C21   C22   A    
C34   O7    A    
C33   H4    S    
C8    C38   S    
Cu2   O4    S    
C48   H39   S    
C7    C12   S    
C4    C34   S    
C24   C25   A    
C3    C8    A    
C47   H33   S    
C44   H25   S    
C35   C45   S    
C25   C26   A    
C34   O8    A    
C44   H24   S    
C10   C48   S    
C43   H21   S    
Cu1   O3    S    
C29   C30   A    
C36   C43   S    
C18   H2    S    
Cu2   O2    S    
C47   H34   S    
C31   C32   A    
C29   C44   S    
C2    H1    S    
C45   H29   S    
C17   C18   A    
C31   N2    A    
C43   H22   S    
Cu2   O8    S    
Cu1   N2    S    
C12   O3    A    
C12   O4    A    
C45   H28   S    
C30   H7    S    
C46   H31   S    
C22   C24   A    
C3    C4    A    
C39   C40   A    
C48   H40   S    
C42   H19   S    
C27   H5    S    
C28   C29   A    
C27   C32   A    
C37   C46   S    
C16   H16   S    
Cu1   O7    S    
C4    C5    A    
Cu2   O6    S    
C44   H26   S    
C19   H3    S    
C6    C7    A    
C1    O2    A    
C42   H18   S    
C47   H35   S    
C11   C13   A    
C38   C39   A    
C20   C26   A    
C33   C35   A    
C40   C47   S    
C9    C15   A    
C43   H23   S    
Cu1   O1    S    
C5    C15   S    
C10   C11   A    
C24   H15   S    
C41   H11   S    
C2    C40   A    
C17   H17   S    
C39   H8    S    
C20   C21   A    
C46   H32   S    
C27   C28   A    
C14   C15   A    
C3    H36   S    
C13   C14   A    
Cu2   N1    S    
