data_mof_unit_39026.cif
_audit_creation_date              2012-12-11T14:49:49-0500
_audit_creation_method            fapswitch 2.2
_symmetry_space_group_name_H-M    P1
_symmetry_Int_Tables_number       1
_space_group_crystal_system       triclinic
_cell_length_a                    16.871274
_cell_length_b                    7.052302
_cell_length_c                    16.786281
_cell_angle_alpha                 90.004003
_cell_angle_beta                  100.453253
_cell_angle_gamma                 89.996465
_cell_volume                      1964.10595897

loop_
_atom_site_label
_atom_site_type_symbol
_atom_type_description
_atom_site_fract_x
_atom_site_fract_y
_atom_site_fract_z
_atom_type_partial_charge
O1    O     O_R   0.579510 0.506290 0.439030 -0.538634
O2    O     O_R   0.420490 0.006290 0.560970 -0.538575
O3    O     O_R   0.412540 0.170090 0.405290 -0.541475
O4    O     O_R   0.587460 0.670090 0.594710 -0.541520
C1    C     C_R   0.386488 0.346734 0.380536 0.643806
C2    C     C_R   0.613515 0.846733 0.619461 0.643988
O5    O     O_R   0.578390 0.176230 0.429330 -0.536899
O6    O     O_R   0.421610 0.676230 0.570670 -0.536958
O7    O     O_R   0.587530 0.011250 0.585190 -0.502647
O8    O     O_R   0.412470 0.511250 0.414810 -0.502684
C3    C     C_R   0.604387 0.345364 0.413463 0.767252
C4    C     C_R   0.395609 0.845377 0.586533 0.767223
O9    O     O_3   0.502800 0.340940 0.551110 -0.365363
O10   O     O_3   0.497200 0.840940 0.448890 -0.365363
V1    V     V_3+5 0.499480 0.064020 0.490520 1.493741
V2    V     V_3+5 0.500520 0.564020 0.509480 1.493591
C5    C     C_R   0.169570 0.909050 0.864874 -0.122222
C6    C     C_R   0.830456 0.409147 0.135157 -0.122162
C7    C     C_R   0.330975 0.857631 0.635606 -0.131099
C8    C     C_R   0.669023 0.357572 0.364393 -0.131093
C9    C     C_R   0.191179 0.929491 0.645486 0.326400
C10   C     C_R   0.808911 0.428546 0.354583 0.326446
C11   C     C_R   0.251310 0.898336 0.598364 0.175439
C12   C     C_R   0.748741 0.397573 0.401676 0.175391
C13   C     C_R   0.349917 0.841500 0.720108 -0.273690
C14   C     C_R   0.650042 0.342110 0.279871 -0.273671
C15   C     C_R   0.290339 0.866080 0.768640 0.074041
C16   C     C_R   0.709643 0.366564 0.231358 0.074077
C17   C     C_R   0.210003 0.910420 0.731343 -0.027542
C18   C     C_R   0.790050 0.410057 0.268703 -0.027550
C19   C     C_R   0.150379 0.928975 0.780442 -0.239866
C20   C     C_R   0.849695 0.428402 0.219616 -0.239915
C21   C     C_R   0.249614 0.867007 0.901672 0.130022
C22   C     C_R   0.750342 0.367989 0.098317 0.129911
C23   C     C_R   0.309807 0.846281 0.853836 0.237070
C24   C     C_R   0.690126 0.347461 0.146136 0.237089
H1    H     H_    0.087846 0.953263 0.754018 0.150876
H2    H     H_    0.912266 0.452038 0.246062 0.150903
H3    H     H_    0.411793 0.811088 0.747672 0.156629
H4    H     H_    0.588121 0.312290 0.252277 0.156547
C25   C     C_3   0.743865 0.792977 0.839990 -0.370988
C26   C     C_3   0.256138 0.292943 0.160005 -0.371015
H5    H     H_    0.766067 0.654427 0.866484 0.186945
H6    H     H_    0.233937 0.154397 0.133498 0.186916
H7    H     H_    0.723502 0.870391 0.890492 0.125874
H8    H     H_    0.276510 0.370344 0.109511 0.125939
C27   C     C_3   0.670431 0.764449 0.769938 -0.078039
C28   C     C_3   0.329565 0.264401 0.230064 -0.078040
H9    H     H_    0.617100 0.828138 0.789883 0.138964
H10   H     H_    0.382904 0.328036 0.210121 0.138963
H11   H     H_    0.754981 0.638611 0.647718 0.105494
H12   H     H_    0.245007 0.138739 0.352325 0.105611
C29   C     C_3   0.839400 0.805821 0.736569 0.404301
C30   C     C_3   0.160603 0.305877 0.263426 0.404405
C31   C     C_3   0.777110 0.105415 0.785609 -0.465808
C32   C     C_3   0.222901 0.605420 0.214379 -0.465809
C33   C     C_3   0.813117 0.907894 0.811820 -0.031033
C34   C     C_3   0.186888 0.407900 0.188173 -0.030986
H13   H     H_    0.823663 0.198014 0.767353 0.144628
H14   H     H_    0.176347 0.698052 0.232626 0.144602
H15   H     H_    0.762379 0.179522 0.839627 0.162199
H16   H     H_    0.237636 0.679488 0.160359 0.162273
C35   C     C_3   0.685202 0.869434 0.690781 -0.084355
C36   C     C_3   0.314800 0.369448 0.309217 -0.084418
C37   C     C_3   0.764212 0.790392 0.664751 0.095770
C38   C     C_3   0.235783 0.290496 0.335253 0.095758
C39   C     C_3   0.700269 0.087688 0.717169 0.585657
C40   C     C_3   0.299741 0.587695 0.282822 0.585738
O11   O     O_R   0.087500 0.266000 0.085220 -0.527115
O12   O     O_R   0.912500 0.766000 0.914780 -0.527119
O13   O     O_R   0.921600 0.589950 0.070670 -0.540954
O14   O     O_R   0.078400 0.089950 0.929330 -0.540959
C41   C     C_R   0.895144 0.421303 0.086103 0.723330
C42   C     C_R   0.104875 0.921289 0.913918 0.723322
O15   O     O_R   0.087460 0.596020 0.094710 -0.547964
O16   O     O_R   0.912540 0.096020 0.905290 -0.547949
O17   O     O_R   0.079520 0.760970 0.939020 -0.534429
O18   O     O_R   0.920480 0.260970 0.060980 -0.534406
C43   C     C_R   0.115835 0.426075 0.117698 0.759570
C44   C     C_R   0.884168 0.926074 0.882297 0.759637
O19   O     O_3   0.997180 0.425140 0.948910 -0.365834
O20   O     O_3   0.002820 0.925140 0.051090 -0.365826
V3    V     V_3+5 0.000520 0.702080 0.009480 1.444962
V4    V     V_3+5 0.999480 0.202080 0.990520 1.444965
N1    N     N_3   0.651353 0.562811 0.759676 -0.623412
H17   H     H_    0.590896 0.546405 0.732486 0.261078
H18   H     H_    0.686857 0.498079 0.723263 0.285359
N2    N     N_3   0.348625 0.062754 0.240339 -0.623488
H19   H     H_    0.409087 0.046319 0.267507 0.261090
H20   H     H_    0.313137 0.998101 0.276783 0.285351
N3    N     N_3   0.870065 0.614111 0.760172 -0.638653
H21   H     H_    0.823825 0.526620 0.771922 0.206632
H22   H     H_    0.891347 0.550906 0.711723 0.219513
N4    N     N_3   0.129951 0.114153 0.239833 -0.638675
H23   H     H_    0.176198 0.026655 0.228093 0.206645
H24   H     H_    0.108667 0.050981 0.288282 0.219526
N5    N     N_3   0.630732 0.166351 0.748752 -0.635854
H25   H     H_    0.575474 0.121919 0.715722 0.219383
H26   H     H_    0.631569 0.131503 0.809425 0.209489
N6    N     N_3   0.369280 0.666306 0.251237 -0.635875
H27   H     H_    0.424535 0.621902 0.284283 0.219405
H28   H     H_    0.368451 0.631391 0.190571 0.209540
O21   O     O_3   0.709571 0.201030 0.649914 -0.610235
H29   H     H_    0.766097 0.198834 0.641589 0.306430
O22   O     O_3   0.290443 0.701072 0.350077 -0.610267
H30   H     H_    0.233906 0.699028 0.358374 0.306361
N7    N     N_3   0.906519 0.912302 0.712038 -0.653829
H31   H     H_    0.928648 0.837493 0.666889 0.266290
H32   H     H_    0.887786 0.043517 0.686859 0.235561
N8    N     N_3   0.093473 0.412377 0.287941 -0.653949
H33   H     H_    0.071351 0.337612 0.333100 0.266274
H34   H     H_    0.112193 0.543623 0.313099 0.235580
O23   O     O_3   0.779590 0.883394 0.594817 -0.653233
H35   H     H_    0.740608 0.835010 0.547732 0.294507
O24   O     O_3   0.220395 0.383621 0.405161 -0.653209
H36   H     H_    0.259473 0.335572 0.452240 0.294521
N9    N     N_3   0.271086 0.844309 0.987846 -0.679980
H37   H     H_    0.255568 0.968345 0.015428 0.221239
H38   H     H_    0.237619 0.732150 0.005461 0.221299
N10   N     N_3   0.728825 0.345934 0.012116 -0.679757
H39   H     H_    0.744627 0.469904 0.984695 0.221194
H40   H     H_    0.762050 0.233456 0.994374 0.221193
O25   O     O_3   0.115094 0.977394 0.605076 -0.640269
H41   H     H_    0.091975 0.072081 0.637846 0.292725
O26   O     O_3   0.885063 0.475716 0.395044 -0.640296
H42   H     H_    0.908325 0.570353 0.362372 0.292725
N11   N     N_3   0.391032 0.803233 0.891868 -0.677515
H43   H     H_    0.390663 0.676059 0.923817 0.251813
H44   H     H_    0.411436 0.910926 0.933358 0.253211
N12   N     N_3   0.608826 0.305322 0.108056 -0.677547
H45   H     H_    0.608979 0.178341 0.075922 0.251793
H46   H     H_    0.588594 0.413439 0.066726 0.253267
N13   N     N_3   0.231686 0.910670 0.511752 -0.653676
H47   H     H_    0.206823 0.044257 0.496338 0.251109
H48   H     H_    0.187516 0.809112 0.491325 0.263914
N14   N     N_3   0.768381 0.409424 0.488301 -0.653623
H49   H     H_    0.793361 0.542837 0.503856 0.250948
H50   H     H_    0.812453 0.307566 0.508623 0.264088

loop_
_geom_bond_atom_site_label_1
_geom_bond_atom_site_label_2
_ccdc_geom_bond_type
C35   C37   S    
C21   N9    S    
C31   H13   S    
C15   C17   A    
N7    H32   S    
N12   H46   S    
O1    C3    A    
O2    C4    A    
C26   C34   S    
C2    O7    A    
C40   N6    S    
N5    H25   S    
C39   O21   S    
O25   H41   S    
C27   H9    S    
N1    H17   S    
O5    C3    A    
C5    C21   A    
C27   N1    S    
N9    H38   S    
C27   C35   S    
C28   C36   S    
O17   V3    S    
O24   H36   S    
C14   H4    S    
C30   N8    S    
C26   H8    S    
N8    H33   S    
N5    H26   S    
C8    C12   A    
C42   O17   A    
C29   N3    S    
C41   O18   A    
C28   N2    S    
C20   H2    S    
C29   C37   S    
C22   C24   A    
C12   N14   S    
C28   H10   S    
O6    V2    S    
C25   H5    S    
C33   C44   S    
O16   V4    S    
C26   H6    S    
O19   V3    S    
N10   H40   S    
O13   V3    S    
N1    H18   S    
C22   N10   S    
C35   C39   S    
C3    C8    S    
C38   O24   S    
C11   N13   S    
O12   C44   A    
O14   C42   A    
N3    H21   S    
O13   C41   A    
C29   C33   S    
C10   O26   S    
O5    V1    S    
C15   C23   A    
C32   C40   S    
C9    C17   A    
C19   H1    S    
C1    C36   S    
C36   C38   S    
C2    C35   S    
O4    V2    S    
C7    C11   A    
N11   H44   S    
O12   V3    S    
C24   N12   S    
N3    H22   S    
N13   H47   S    
C29   N7    S    
O6    C4    A    
N6    H28   S    
C25   C27   S    
O1    V2    S    
C26   C28   S    
N4    H24   S    
O2    V1    S    
C6    C22   A    
O14   V4    S    
C34   C43   S    
O4    C2    A    
N2    H20   S    
C6    C41   S    
O20   V4    S    
C31   C33   S    
O26   H42   S    
C5    C19   A    
C10   C12   A    
O11   C43   A    
C6    C20   A    
C40   O22   S    
N7    H31   S    
N11   H43   S    
C36   C40   S    
C23   N11   S    
O19   V4    S    
O3    V1    S    
N10   H39   S    
N14   H50   S    
O23   H35   S    
C30   C34   S    
C10   C18   A    
C37   O23   S    
O16   C44   A    
N14   H49   S    
O3    C1    A    
C31   C39   S    
C30   C38   S    
C13   C15   A    
O22   H30   S    
C14   C16   A    
C9    C11   A    
N12   H45   S    
O7    V1    S    
C25   C33   S    
C1    O8    A    
C17   C19   A    
O11   V4    S    
O8    V2    S    
N9    H37   S    
C13   H3    S    
C18   C20   A    
O15   V3    S    
C5    C42   S    
C8    C14   A    
C31   H15   S    
C4    C7    S    
C16   C18   A    
N6    H27   S    
C21   C23   A    
C32   C34   S    
C32   H16   S    
N4    H23   S    
C7    C13   A    
N8    H34   S    
C30   N4    S    
H11   C37   S    
C39   N5    S    
O18   V4    S    
H12   C38   S    
C32   H14   S    
N2    H19   S    
C16   C24   A    
O20   V3    S    
O9    V2    S    
O21   H29   S    
N13   H48   S    
C25   H7    S    
O10   V1    S    
C9    O25   S    
O15   C43   A    
