data_mof_unit_61630.cif
_audit_creation_date              2012-12-10T18:24:43-0500
_audit_creation_method            fapswitch 2.2
_symmetry_space_group_name_H-M    P1
_symmetry_Int_Tables_number       1
_space_group_crystal_system       triclinic
_cell_length_a                    16.046143
_cell_length_b                    16.041166
_cell_length_c                    19.548761
_cell_angle_alpha                 95.284732
_cell_angle_beta                  90.672829
_cell_angle_gamma                 84.076809
_cell_volume                      4983.67675546

loop_
_atom_site_label
_atom_site_type_symbol
_atom_type_description
_atom_site_fract_x
_atom_site_fract_y
_atom_site_fract_z
_atom_type_partial_charge
C1    C     C_R   0.275795 0.510885 0.490985 0.502272
C2    C     C_2   0.479162 0.518023 0.982330 -0.122628
C3    C     C_2   0.530585 0.467603 0.018892 -0.124185
C4    C     C_R   0.724150 0.489124 0.508945 0.505342
C5    C     C_R   0.518064 0.481477 0.237134 0.033808
C6    C     C_1   0.186187 0.515413 0.487340 0.022508
C7    C     C_2   0.020865 0.523521 0.480832 -0.110585
C8    C     C_2   0.979093 0.476296 0.518507 -0.116636
C9    C     C_1   0.889085 0.480754 0.515157 -0.030670
C10   C     C_1   0.110867 0.519160 0.484319 -0.037008
C11   C     C_1   0.813758 0.484566 0.512336 0.026627
C12   C     C_R   0.484593 0.517676 0.907047 0.043040
C13   C     C_1   0.516496 0.184865 0.487153 0.026981
C14   C     C_2   0.524927 0.018813 0.480517 -0.114081
C15   C     C_2   0.474933 0.981219 0.519434 -0.119224
C16   C     C_R   0.511758 0.274881 0.490889 0.513783
C17   C     C_1   0.479476 0.890828 0.515889 -0.035953
C18   C     C_1   0.520404 0.109205 0.484075 -0.033796
C19   C     C_1   0.483416 0.815166 0.512824 0.024873
C20   C     C_R   0.488221 0.725147 0.509096 0.501398
C21   C     C_R   0.511006 0.488970 0.311726 0.560207
C22   C     C_R   0.490298 0.510168 0.688543 0.505620
C23   C     C_R   0.415711 0.553928 0.871450 -0.112778
C24   C     C_R   0.488273 0.514840 0.763541 0.037574
C25   C     C_R   0.557941 0.480625 0.799128 -0.120050
C26   C     C_R   0.556672 0.482870 0.870239 -0.101443
C27   C     C_R   0.417544 0.552790 0.800080 -0.119765
C28   C     C_R   0.447364 0.481811 0.127218 -0.117903
C29   C     C_R   0.444031 0.486426 0.198416 -0.167941
C30   C     C_R   0.596746 0.468364 0.203834 0.259536
C31   C     C_R   0.599151 0.463102 0.132110 -0.086420
C32   C     C_R   0.525035 0.471308 0.093867 -0.009231
H1    H     H_    0.613939 0.452712 0.771981 0.136502
H2    H     H_    0.389330 0.485748 0.098314 0.127469
H3    H     H_    0.363254 0.580011 0.773455 0.134968
H4    H     H_    0.430471 0.560946 0.008596 0.123732
H5    H     H_    0.612791 0.457941 0.895472 0.109557
H6    H     H_    0.733535 0.399518 0.342361 0.363219
H7    H     H_    0.658873 0.453869 0.105764 0.155429
H8    H     H_    0.012315 0.433933 0.552249 0.137858
H9    H     H_    0.987649 0.565899 0.447097 0.151757
H10   H     H_    0.430183 0.018180 0.554288 0.138982
H11   H     H_    0.569679 0.981851 0.445664 0.147203
H12   H     H_    0.383473 0.495197 0.223491 0.131814
H13   H     H_    0.580266 0.424523 0.994648 0.124629
H14   H     H_    0.359973 0.582094 0.898833 0.110105
O1    O     O_3   0.500000 0.500000 0.500000 -0.451185
O2    O     O_R   0.462330 0.445560 0.340470 -0.540865
O3    O     O_R   0.440930 0.559110 0.655640 -0.544099
O4    O     O_R   0.554010 0.538050 0.348260 -0.480393
O5    O     O_R   0.542730 0.457290 0.655630 -0.546528
O6    O     O_2   0.762016 0.416545 0.202531 -0.276400
O7    O     O_2   0.713546 0.540625 0.279776 -0.257956
O8    O     O_3   0.683031 0.393609 0.313406 -0.524413
O9    O     O_R   0.555880 0.314540 0.535300 -0.533997
O10   O     O_R   0.439840 0.689760 0.546310 -0.538002
O11   O     O_R   0.320170 0.458170 0.449830 -0.538036
O12   O     O_R   0.684110 0.537530 0.468570 -0.510501
O13   O     O_R   0.310830 0.559620 0.535340 -0.537922
O14   O     O_R   0.684890 0.444680 0.546270 -0.539231
O15   O     O_R   0.463420 0.314900 0.449800 -0.526962
O16   O     O_R   0.540870 0.680800 0.468590 -0.534372
S1    S     S_3+6 0.692520 0.455677 0.249677 0.029456
Zn1   Zn    Zn3+2 0.569660 0.430340 0.558290 0.955094
Zn2   Zn    Zn3+2 0.437560 0.430860 0.436130 0.969878
Zn3   Zn    Zn3+2 0.568560 0.563000 0.447270 1.007099
Zn4   Zn    Zn3+2 0.424220 0.575810 0.558310 0.942836

loop_
_geom_bond_atom_site_label_1
_geom_bond_atom_site_label_2
_ccdc_geom_bond_type
C31   H7    S    
C6    C10   T    
C7    C10   S    
O13   Zn4   S    
C26   H5    S    
C1    O11   A    
O2    Zn2   S    
O10   Zn4   S    
O7    S1    D    
C14   C18   S    
O1    Zn3   S    
C31   C32   A    
H6    O8    S    
C24   C27   A    
O14   Zn1   S    
C20   O10   A    
C21   O2    A    
C2    C12   S    
O9    Zn1   S    
C4    O14   A    
C25   H1    S    
C1    O13   A    
C2    C3    D    
C8    C9    S    
C16   O9    A    
C28   H2    S    
C7    C8    D    
C23   H14   S    
C30   S1    S    
C4    C11   S    
O4    Zn3   S    
C12   C23   A    
C9    C11   T    
C3    C32   S    
C13   C18   T    
C22   O3    A    
O1    Zn4   S    
C28   C29   A    
C17   C19   T    
C3    H13   S    
C5    C29   A    
C23   C27   A    
C7    H9    S    
C29   H12   S    
C20   O16   A    
C30   C31   A    
C22   C24   S    
C8    H8    S    
O8    S1    S    
O16   Zn3   S    
C2    H4    S    
C1    C6    S    
O15   Zn2   S    
C28   C32   A    
C5    C21   S    
C24   C25   A    
C14   H11   S    
C5    C30   A    
C16   O15   A    
C13   C16   S    
C4    O12   A    
O1    Zn1   S    
C15   C17   S    
C14   C15   D    
C21   O4    A    
O3    Zn4   S    
C27   H3    S    
C25   C26   A    
O1    Zn2   S    
O5    Zn1   S    
C19   C20   S    
C15   H10   S    
C12   C26   A    
C22   O5    A    
O11   Zn2   S    
O6    S1    D    
O12   Zn3   S    
