data_mof_unit_28627.cif
_audit_creation_date              2012-12-11T17:06:28-0500
_audit_creation_method            fapswitch 2.2
_symmetry_space_group_name_H-M    P1
_symmetry_Int_Tables_number       1
_space_group_crystal_system       triclinic
_cell_length_a                    6.996274
_cell_length_b                    14.47131
_cell_length_c                    16.069522
_cell_angle_alpha                 90.485595
_cell_angle_beta                  89.139831
_cell_angle_gamma                 90.225377
_cell_volume                      1626.70921603

loop_
_atom_site_label
_atom_site_type_symbol
_atom_type_description
_atom_site_fract_x
_atom_site_fract_y
_atom_site_fract_z
_atom_type_partial_charge
O1    O     O_R   0.494400 0.415450 0.412630 -0.534491
O2    O     O_R   0.823940 0.405730 0.586760 -0.543330
O3    O     O_R   0.994240 0.584550 0.587370 -0.530103
C1    C     C_R   0.654441 0.384800 0.616022 0.699708
O4    O     O_R   0.824110 0.404430 0.413240 -0.543813
O5    O     O_R   0.994420 0.583240 0.412620 -0.539939
C2    C     C_R   0.655686 0.381809 0.384629 0.691372
O6    O     O_R   0.494230 0.416760 0.587380 -0.535572
O7    O     O_3   0.660800 0.558670 0.500000 -0.387225
V1    V     V_3+5 0.935650 0.489120 0.500000 1.390341
O8    O     O_R   0.324140 0.594270 0.413240 -0.559652
C3    C     C_R   0.156035 0.616530 0.384293 0.685647
O9    O     O_R   0.323960 0.595570 0.586760 -0.547601
C4    C     C_R   0.155354 0.617247 0.615808 0.735891
V2    V     V_3+5 0.435660 0.510880 0.500000 1.368825
O10   O     O_3   0.160640 0.441330 0.500000 -0.369266
C5    C     C_3   0.034461 0.670351 0.768828 -0.169614
C6    C     C_3   0.206552 0.707208 0.819494 -0.169721
H1    H     H_    0.261347 0.675696 0.877133 0.126245
H2    H     H_    0.948795 0.607759 0.783774 0.118824
C7    C     C_3   0.126097 0.806339 0.812904 -0.112393
C8    C     C_3   0.954087 0.769793 0.763039 -0.230650
C9    C     C_3   0.071215 0.784876 0.682232 0.435995
C10   C     C_3   0.242631 0.820350 0.732163 0.364146
C11   C     C_3   0.323115 0.720936 0.737122 -0.281884
C12   C     C_3   0.148265 0.685733 0.687192 -0.093759
H3    H     H_    0.803659 0.785513 0.777948 0.107395
H4    H     H_    0.472113 0.696617 0.727405 0.124281
C13   C     C_R   0.278249 0.806245 0.227397 0.075508
C14   C     C_R   0.116068 0.811780 0.179349 -0.084594
C15   C     C_R   0.964377 0.752300 0.199793 -0.130167
H5    H     H_    0.841058 0.751100 0.161055 0.116672
C16   C     C_R   0.978369 0.689217 0.266078 -0.092655
H6    H     H_    0.863573 0.640264 0.276114 0.109504
C17   C     C_R   0.142978 0.685821 0.315918 -0.157494
C18   C     C_R   0.288459 0.750192 0.297499 0.001412
C19   C     C_3   0.496154 0.732849 0.280314 0.240423
C20   C     C_3   0.474107 0.782132 0.198091 -0.002996
H7    H     H_    0.536615 0.658603 0.275723 0.058856
H8    H     H_    0.568184 0.843474 0.188203 0.148132
C21   C     C_R   0.486184 0.257658 0.693777 0.102568
C22   C     C_R   0.645019 0.315395 0.683215 -0.110688
C23   C     C_R   0.799657 0.302385 0.737083 -0.181319
H9    H     H_    0.923833 0.346538 0.732109 0.133502
C24   C     C_R   0.789906 0.236619 0.801400 -0.185338
H10   H     H_    0.907520 0.231110 0.843804 0.133804
C25   C     C_R   0.624107 0.182995 0.814471 -0.112687
C26   C     C_R   0.475108 0.194588 0.758474 0.104394
C27   C     C_3   0.268969 0.212948 0.774103 -0.406364
C28   C     C_3   0.280538 0.281973 0.703396 -0.408817
H11   H     H_    0.242687 0.245754 0.836010 0.166698
H12   H     H_    0.178885 0.151555 0.759736 0.182337
H13   H     H_    0.260374 0.354844 0.724156 0.165849
H14   H     H_    0.196488 0.260655 0.648243 0.177585
C29   C     C_R   0.471187 0.290819 0.278369 0.122097
C30   C     C_R   0.643950 0.309354 0.318673 -0.112423
C31   C     C_R   0.801826 0.253537 0.296393 -0.193906
H15   H     H_    0.936114 0.261384 0.328338 0.135508
C32   C     C_R   0.789769 0.188674 0.230473 -0.179018
H16   H     H_    0.915590 0.148765 0.214096 0.134904
C33   C     C_R   0.619662 0.177846 0.184745 -0.108544
C34   C     C_R   0.459165 0.226863 0.213412 0.109672
C35   C     C_3   0.323929 0.285884 0.166624 -0.421840
C36   C     C_3   0.336893 0.355690 0.237605 -0.412577
H17   H     H_    0.180242 0.253602 0.161523 0.176060
H18   H     H_    0.386460 0.311377 0.107024 0.167896
H19   H     H_    0.200769 0.363559 0.273430 0.173503
H20   H     H_    0.406883 0.421729 0.219208 0.166418
O11   O     O_R   0.771650 0.079500 0.908680 -0.541096
O12   O     O_R   0.441690 0.091800 0.082800 -0.540565
O13   O     O_R   0.271460 0.912980 0.083410 -0.541269
C37   C     C_R   0.609960 0.113469 0.112201 0.692667
O14   O     O_R   0.441930 0.090510 0.909280 -0.534485
O15   O     O_R   0.271690 0.911670 0.908660 -0.532169
C38   C     C_R   0.611770 0.114042 0.882094 0.707508
O16   O     O_R   0.771410 0.080810 0.083440 -0.539822
O17   O     O_3   0.605100 0.937580 0.996050 -0.379865
V3    V     V_3+5 0.330220 0.007110 0.996030 1.406153
O18   O     O_R   0.941980 0.900620 0.909250 -0.547762
C39   C     C_R   0.112006 0.877193 0.881863 0.729705
O19   O     O_R   0.941740 0.901920 0.082770 -0.547243
C40   C     C_R   0.109302 0.878422 0.109983 0.691985
V4    V     V_3+5 0.830220 0.985300 0.996000 1.383364
O20   O     O_3   0.105210 0.054870 0.996020 -0.371740
O21   O     O_3   0.612927 0.788158 0.331471 -0.562669
C41   C     C_3   0.611333 0.753461 0.412512 0.105786
H21   H     H_    0.686318 0.686583 0.412658 0.170439
H22   H     H_    0.464069 0.747156 0.438619 0.127938
C42   C     C_3   0.715926 0.820213 0.467684 -0.688245
H23   H     H_    0.657598 0.890981 0.460844 0.211781
H24   H     H_    0.695283 0.798271 0.533109 0.212632
H25   H     H_    0.869643 0.819939 0.449814 0.239837
N1    N     N_3   0.466978 0.718079 0.126898 -0.690812
H26   H     H_    0.485020 0.756506 0.072529 0.240753
H27   H     H_    0.581266 0.671985 0.128945 0.211041
O22   O     O_3   0.989533 0.817171 0.608000 -0.584737
C43   C     C_3   0.057675 0.905644 0.585234 0.087036
H28   H     H_    0.076213 0.953237 0.638920 0.157466
H29   H     H_    0.947229 0.940012 0.547945 0.130663
C44   C     C_3   0.236888 0.897798 0.530276 -0.697360
H30   H     H_    0.200738 0.865812 0.469463 0.199486
H31   H     H_    0.298094 0.967568 0.519134 0.189350
H32   H     H_    0.345677 0.854180 0.560069 0.229380
O23   O     O_3   0.335320 0.905124 0.714871 -0.576766
C45   C     C_3   0.534726 0.896953 0.718520 0.093226
H33   H     H_    0.587738 0.834760 0.684543 0.124354
H34   H     H_    0.577552 0.896621 0.784851 0.143188
C46   C     C_3   0.626229 0.979408 0.675601 -0.719209
H35   H     H_    0.540439 0.041821 0.687564 0.235119
H36   H     H_    0.772887 0.990784 0.698966 0.173188
H37   H     H_    0.631455 0.967802 0.607284 0.200229

loop_
_geom_bond_atom_site_label_1
_geom_bond_atom_site_label_2
_ccdc_geom_bond_type
C20   H8    S    
C29   C30   A    
C35   H17   S    
N1    H26   S    
O12   V3    S    
C6    C7    S    
C21   C22   A    
C17   C18   A    
C1    O6    A    
C43   H28   S    
O17   V3    S    
C9    O22   S    
C11   H4    S    
C45   H34   S    
C13   C18   A    
C28   H14   S    
C5    C12   S    
C36   H20   S    
C19   O21   S    
C18   C19   S    
C19   C20   S    
O5    C3    A    
C14   C15   A    
C41   H22   S    
C31   C32   A    
O17   V4    S    
V2    O10   S    
C29   C34   A    
C5    H2    S    
C46   H35   S    
C7    C39   S    
C6    H1    S    
C9    C12   S    
C42   H25   S    
O19   V4    S    
O8    V2    S    
V4    O20   S    
C27   H11   S    
C13   C20   S    
C9    C10   S    
C15   C16   A    
O1    V2    S    
C42   H24   S    
C13   C14   A    
O7    V1    S    
C37   O16   A    
O13   C40   A    
C35   H18   S    
C32   H16   S    
N1    H27   S    
O15   C39   A    
O9    C4    A    
O22   C43   S    
O14   C38   A    
C6    C11   S    
C2    C30   S    
O16   V4    S    
O23   C45   S    
C43   H29   S    
C5    C6    S    
C24   C25   A    
C45   C46   S    
C32   C33   A    
C28   H13   S    
C36   H19   S    
C10   C11   S    
O4    C2    A    
C41   H21   S    
C11   C12   S    
C24   H10   S    
C44   H32   S    
O19   C40   A    
O18   C39   A    
C10   O23   S    
C14   C40   S    
O2    C1    A    
C23   H9    S    
C34   C35   S    
O11   V4    S    
C25   C26   A    
O14   V3    S    
C27   H12   S    
C29   C36   S    
C44   H31   S    
C16   H6    S    
C4    C12   S    
C3    C17   S    
C23   C24   A    
O21   C41   S    
O3    C4    A    
C33   C37   S    
C26   C27   S    
O6    V2    S    
C8    H3    S    
O9    V2    S    
C22   C23   A    
O2    V1    S    
C21   C28   S    
C43   C44   S    
C30   C31   A    
O1    C2    A    
C15   H5    S    
C41   C42   S    
O5    V1    S    
O8    C3    A    
C45   H33   S    
C5    C8    S    
C46   H37   S    
O7    V2    S    
C25   C38   S    
O4    V1    S    
C19   H7    S    
O3    V1    S    
V1    O10   S    
O18   V4    S    
C31   H15   S    
C1    C22   S    
C20   N1    S    
C44   H30   S    
C16   C17   A    
C21   C26   A    
C46   H36   S    
O11   C38   A    
C33   C34   A    
C35   C36   S    
V3    O20   S    
C27   C28   S    
O15   V3    S    
C7    C10   S    
C8    C9    S    
O12   C37   A    
C42   H23   S    
C7    C8    S    
O13   V3    S    
