data_mof_unit_16680.cif
_audit_creation_date              2013-03-05T16:08:07-0500
_audit_creation_method            fapswitch 2.2
_symmetry_space_group_name_H-M    P1
_symmetry_Int_Tables_number       1
_space_group_crystal_system       triclinic
_cell_length_a                    6.952397
_cell_length_b                    14.551715
_cell_length_c                    15.938999
_cell_angle_alpha                 90.442314
_cell_angle_beta                  89.945813
_cell_angle_gamma                 89.973301
_cell_volume                      1612.48841515

loop_
_atom_site_label
_atom_site_type_symbol
_atom_site_description
_atom_site_fract_x
_atom_site_fract_y
_atom_site_fract_z
_atom_type_partial_charge
O1    O     O_R   0.494400 0.415450 0.412630 -0.601023
O2    O     O_R   0.823940 0.405730 0.586760 -0.598818
O3    O     O_R   0.994240 0.584550 0.587370 -0.592567
C1    C     C_R   0.655155 0.383666 0.615330 0.944850
O4    O     O_R   0.824110 0.404430 0.413240 -0.560718
O5    O     O_R   0.994420 0.583240 0.412620 -0.597707
C2    C     C_R   0.655422 0.381676 0.384688 0.987996
O6    O     O_R   0.494230 0.416760 0.587380 -0.595034
O7    O     O_3   0.660800 0.558670 0.500000 -0.277125
V1    V     V_3+5 0.935650 0.489120 0.500000 1.175323
O8    O     O_R   0.324140 0.594270 0.413240 -0.595304
C3    C     C_R   0.155120 0.616259 0.384379 0.940349
O9    O     O_R   0.323960 0.595570 0.586760 -0.595417
C4    C     C_R   0.154985 0.617171 0.615828 0.947812
V2    V     V_3+5 0.435660 0.510880 0.500000 1.160231
O10   O     O_3   0.160640 0.441330 0.500000 -0.270245
C5    C     C_3   0.954770 0.716958 0.728966 -0.188414
C6    C     C_3   0.055015 0.708969 0.815769 -0.179712
H1    H     H_    0.991410 0.676769 0.872274 0.138192
H2    H     H_    0.807532 0.692697 0.713425 0.142144
C7    C     C_3   0.121631 0.809929 0.809489 -0.236254
C8    C     C_3   0.024671 0.816773 0.723591 0.416341
C9    C     C_3   0.210770 0.787260 0.678799 -0.217976
C10   C     C_3   0.310048 0.778948 0.765827 -0.118969
C11   C     C_3   0.243446 0.677365 0.771681 -0.088343
C12   C     C_3   0.143634 0.686653 0.685758 -0.132750
H3    H     H_    0.272862 0.819940 0.622201 0.152060
H4    H     H_    0.456842 0.804059 0.781038 0.157455
H5    H     H_    0.334924 0.618726 0.791116 0.122928
C13   C     C_R   0.274365 0.749799 0.186679 0.173245
C14   C     C_R   0.118372 0.810104 0.178898 -0.219411
C15   C     C_R   0.966126 0.800353 0.236530 -0.154237
H6    H     H_    0.843181 0.845565 0.233256 0.134376
C16   C     C_R   0.977642 0.736940 0.302821 -0.145525
H7    H     H_    0.862181 0.734408 0.348216 0.142217
C17   C     C_R   0.142366 0.681861 0.313806 -0.226387
C18   C     C_R   0.286145 0.687348 0.252458 0.167694
C19   C     C_3   0.496419 0.703136 0.262781 -0.480095
C20   C     C_3   0.483675 0.770784 0.190867 -0.456631
H8    H     H_    0.582399 0.640845 0.247277 0.195190
H9    H     H_    0.530484 0.736359 0.323993 0.197936
H10   H     H_    0.561672 0.747455 0.133631 0.197721
H11   H     H_    0.511125 0.843161 0.210200 0.187610
C21   C     C_R   0.500569 0.319716 0.745053 0.154097
C22   C     C_R   0.648050 0.317551 0.685188 -0.203744
C23   C     C_R   0.796838 0.253158 0.697032 -0.194564
H12   H     H_    0.916695 0.250082 0.653791 0.131638
C24   C     C_R   0.785819 0.187714 0.761494 -0.004589
H13   H     H_    0.898641 0.136941 0.766289 0.162873
C25   C     C_R   0.625655 0.184615 0.815832 -0.266852
C26   C     C_R   0.490556 0.255541 0.809137 0.093579
C27   C     C_3   0.276092 0.253507 0.805845 0.198426
C28   C     C_3   0.287348 0.323547 0.735136 -0.594677
H14   H     H_    0.217822 0.185452 0.786589 0.068288
H15   H     H_    0.227974 0.392448 0.751150 0.222609
H16   H     H_    0.240651 0.295468 0.673439 0.182832
C29   C     C_R   0.509053 0.321075 0.251494 0.082853
C30   C     C_R   0.648166 0.313962 0.314731 -0.392188
C31   C     C_R   0.786841 0.242876 0.306417 0.637495
C32   C     C_R   0.777227 0.180181 0.238262 -0.325506
H17   H     H_    0.883504 0.125875 0.234006 0.152484
C33   C     C_R   0.624563 0.183134 0.180111 -0.265811
C34   C     C_R   0.496188 0.256884 0.186688 0.188891
C35   C     C_3   0.281706 0.258935 0.187352 -0.417627
C36   C     C_3   0.295802 0.329847 0.257767 -0.408975
H18   H     H_    0.218004 0.192676 0.207676 0.195687
H19   H     H_    0.221657 0.287344 0.128369 0.222783
H20   H     H_    0.240614 0.305214 0.318916 0.246901
H21   H     H_    0.244791 0.399195 0.239238 0.181103
O11   O     O_R   0.771650 0.079500 0.908680 -0.551589
O12   O     O_R   0.441690 0.091800 0.082800 -0.600170
O13   O     O_R   0.271460 0.912980 0.083410 -0.601592
C37   C     C_R   0.610631 0.113742 0.111989 0.977269
O14   O     O_R   0.441930 0.090510 0.909280 -0.602395
O15   O     O_R   0.271690 0.911670 0.908660 -0.602964
C38   C     C_R   0.611176 0.113087 0.881049 1.018324
O16   O     O_R   0.771410 0.080810 0.083440 -0.591962
O17   O     O_3   0.605100 0.937580 0.996050 -0.289969
V3    V     V_3+5 0.330220 0.007110 0.996030 1.195523
O18   O     O_R   0.941980 0.900620 0.909250 -0.574998
C39   C     C_R   0.110886 0.879088 0.880024 0.990773
O19   O     O_R   0.941740 0.901920 0.082770 -0.610306
C40   C     C_R   0.110464 0.880109 0.111798 0.915697
V4    V     V_3+5 0.830220 0.985300 0.996000 1.204671
O20   O     O_3   0.105210 0.054870 0.996020 -0.240215
N1    N     N_R   0.189302 0.290764 0.882618 0.255302
O21   O     O_R   0.053093 0.245500 0.919937 -0.393691
O22   O     O_R   0.250156 0.367553 0.915615 -0.409774
O23   O     O_3   0.930098 0.232543 0.365590 -0.634492
C41   C     C_3   0.864013 0.171916 0.427863 -0.211594
H22   H     H_    0.733430 0.199243 0.459990 0.112545
H23   H     H_    0.977959 0.164713 0.476050 0.174014
H24   H     H_    0.835141 0.102332 0.401245 0.138941
N2    N     N_R   0.902381 0.891047 0.693963 0.218549
O24   O     O_R   0.830367 0.887022 0.618766 -0.426245
O25   O     O_R   0.860267 0.960197 0.742625 -0.460670

loop_
_geom_bond_atom_site_label_1
_geom_bond_atom_site_label_2
_geom_bond_distance
_ccdc_geom_bond_type
C6    C7    1.544568 S    
C1    O6    1.298415 A    
O12   V3    2.002182 S    
C41   H22   1.113643 S    
C22   C23   1.409227 A    
C27   C28   1.527326 S    
C18   C19   1.489031 S    
O14   C38   1.302534 A    
C5    C12   1.544657 S    
C17   C18   1.400414 A    
C6    H1    1.110043 S    
O13   V3    2.002938 S    
O5    C3    1.297923 A    
C19   C20   1.519315 S    
N1    O22   1.302309 A    
V2    O10   2.163798 S    
C5    H2    1.110559 S    
C14   C40   1.483740 S    
C32   C33   1.410635 A    
C16   H7    1.081018 S    
C31   O23   1.381289 S    
C9    C12   1.541591 S    
O8    V2    2.003254 S    
C21   C28   1.492005 S    
C9    C10   1.555481 S    
C33   C37   1.480318 S    
O1    V2    2.000759 S    
C9    H3    1.110133 S    
C3    C17   1.483647 S    
O11   V4    2.002979 S    
O7    V1    2.161920 S    
C2    C30   1.483242 S    
O18   V4    2.001199 S    
C24   C25   1.410998 A    
C31   C32   1.414840 A    
O1    C2    1.299345 A    
O9    C4    1.299985 A    
C8    N2    1.456637 S    
C6    C11   1.553790 S    
C27   H14   1.111291 S    
C29   C34   1.390269 A    
C20   H10   1.111601 S    
C1    C22   1.477948 S    
C28   H15   1.111876 S    
C11   H5    1.110182 S    
C23   C24   1.408364 A    
C26   C27   1.492311 S    
C35   H19   1.111578 S    
V4    O20   2.163748 S    
C10   C11   1.552711 S    
C19   H9    1.111296 S    
O4    C2    1.300465 A    
O17   V3    2.161969 S    
O15   C39   1.296568 A    
C20   H11   1.111715 S    
O16   V4    2.002428 S    
C25   C26   1.399925 A    
C30   C31   1.419101 A    
C13   C18   1.395223 A    
C32   H17   1.083317 S    
C35   H18   1.111611 S    
O2    C1    1.299635 A    
C33   C34   1.398752 A    
C25   C38   1.480095 S    
C41   H23   1.109405 S    
C14   C15   1.408767 A    
C36   H20   1.109258 S    
C5    C6    1.554891 S    
C4    C12   1.501071 S    
N2    O25   1.298887 A    
O3    C4    1.295439 A    
C21   C26   1.391007 A    
C24   H13   1.080471 S    
C7    C39   1.504878 S    
O6    V2    2.002847 S    
O19   V4    2.003277 S    
O14   V3    2.003168 S    
O9    V2    2.001233 S    
O11   C38   1.296657 A    
O2    V1    2.003190 S    
V3    O20   1.711496 S    
C21   C22   1.400164 A    
C41   H24   1.113236 S    
O12   C37   1.302708 A    
C28   H16   1.110832 S    
C23   H12   1.081571 S    
N1    O21   1.299994 A    
C10   H4    1.110551 S    
C29   C36   1.491224 S    
O18   C39   1.300202 A    
O5    V1    2.002854 S    
O8    C3    1.302992 A    
C5    C8    1.534843 S    
C15   H6    1.079946 S    
C27   N1    1.464066 S    
C11   C12   1.542718 S    
O4    V1    2.002265 S    
O3    V1    2.001345 S    
V1    O10   1.711546 S    
C35   C36   1.522010 S    
C19   H8    1.111653 S    
C29   C30   1.401936 A    
C13   C14   1.400962 A    
C36   H21   1.111686 S    
C13   C20   1.488492 S    
C16   C17   1.409353 A    
O7    V2    1.713091 S    
N2    O24   1.300278 A    
O13   C40   1.299716 A    
C34   C35   1.491471 S    
O17   V4    1.712552 S    
O19   C40   1.301445 A    
C7    C10   1.548036 S    
C37   O16   1.296670 A    
C8    C9    1.536609 S    
O23   C41   1.409844 S    
C7    C8    1.530573 S    
O15   V3    2.001360 S    
C15   C16   1.410498 A    
