data_mof_unit_22597.cif
_audit_creation_date              2013-03-05T16:14:15-0500
_audit_creation_method            fapswitch 2.2
_symmetry_space_group_name_H-M    P1
_symmetry_Int_Tables_number       1
_space_group_crystal_system       triclinic
_cell_length_a                    10.783103
_cell_length_b                    10.611575
_cell_length_c                    10.031284
_cell_angle_alpha                 88.315219
_cell_angle_beta                  90.261147
_cell_angle_gamma                 91.372111
_cell_volume                      1147.00303762

loop_
_atom_site_label
_atom_site_type_symbol
_atom_site_description
_atom_site_fract_x
_atom_site_fract_y
_atom_site_fract_z
_atom_type_partial_charge
O1    O     O_R   0.499990 0.316750 0.614620 -0.595100
O2    O     O_R   0.500010 0.683250 0.385380 -0.597592
O3    O     O_R   0.499990 0.316780 0.385290 -0.564376
O4    O     O_R   0.500010 0.683220 0.614710 -0.543433
C1    C     C_R   0.499396 0.260697 0.501518 0.863989
C2    C     C_R   0.498986 0.739331 0.498447 0.875181
O5    O     O_R   0.316760 0.500000 0.614660 -0.559029
O6    O     O_R   0.683240 0.500000 0.385340 -0.587967
O7    O     O_R   0.316760 0.500020 0.385330 -0.603086
O8    O     O_R   0.683240 0.499980 0.614670 -0.597798
C3    C     C_R   0.260551 0.496188 0.499209 0.919568
C4    C     C_R   0.739352 0.501834 0.501034 0.925088
Zn1   Zn    Zn3+2 0.500000 0.499980 0.653120 1.082336
Zn2   Zn    Zn3+2 0.500000 0.500020 0.346880 1.058067
C5    C     C_R   0.230211 0.799850 0.163332 0.250749
C6    C     C_R   0.798064 0.141332 0.792933 0.266354
C7    C     C_R   0.182649 0.744025 0.281996 -0.210579
C8    C     C_R   0.841960 0.217047 0.685013 -0.256291
H1    H     H_    0.190253 0.793281 0.374877 0.176110
H2    H     H_    0.864673 0.174444 0.591642 0.198128
C9    C     C_R   0.124616 0.624743 0.281371 0.132523
C10   C     C_R   0.867851 0.345745 0.700687 0.122643
C11   C     C_R   0.116731 0.558901 0.162700 -0.096727
C12   C     C_R   0.845742 0.400316 0.823435 -0.098403
H3    H     H_    0.071624 0.466597 0.161214 0.192731
H4    H     H_    0.868467 0.498973 0.837678 0.200457
C13   C     C_R   0.163544 0.612723 0.044633 -0.257670
C14   C     C_R   0.795482 0.327938 0.928745 -0.278651
H5    H     H_    0.153054 0.561030 0.953596 0.213505
H6    H     H_    0.776232 0.372962 0.021675 0.189969
C15   C     C_R   0.217458 0.734499 0.042212 0.271574
C16   C     C_R   0.771152 0.198419 0.915170 0.292760
C17   C     C_R   0.938064 0.581359 0.415122 0.243861
C18   C     C_R   0.062300 0.415863 0.589789 0.239195
C19   C     C_R   0.872142 0.502383 0.504989 -0.176034
C20   C     C_R   0.127520 0.492396 0.496157 -0.167909
C21   C     C_R   0.933910 0.420892 0.595051 -0.078389
C22   C     C_R   0.064523 0.568821 0.402385 -0.082382
C23   C     C_R   0.593283 0.069493 0.434990 -0.073278
C24   C     C_R   0.403086 0.930640 0.564369 -0.084970
H7    H     H_    0.667802 0.123811 0.387391 0.187518
H8    H     H_    0.329108 0.876457 0.613165 0.202045
C25   C     C_R   0.591271 0.940276 0.430304 0.014853
C26   C     C_R   0.404468 0.060091 0.567967 -0.030863
H9    H     H_    0.665151 0.893911 0.380339 0.212593
H10   H     H_    0.330521 0.106859 0.617715 0.210581
C27   C     C_R   0.496659 0.872025 0.495622 -0.052510
C28   C     C_R   0.500038 0.128080 0.503847 -0.046852
C29   C     C_R   0.545198 0.601441 0.066140 0.176540
C30   C     C_R   0.457133 0.397386 0.934187 0.193557
C31   C     C_R   0.546167 0.600850 0.924149 0.248004
C32   C     C_R   0.452817 0.399843 0.075900 0.225128
N1    N     N_R   0.499970 0.499970 0.857200 -0.188856
N2    N     N_R   0.500030 0.500030 0.142800 -0.202869
N3    N     N_R   0.251262 0.792332 0.915756 0.237105
O9    O     O_R   0.227368 0.910252 0.890234 -0.273841
O10   O     O_R   0.282599 0.722213 0.817722 -0.407160
N4    N     N_R   0.718451 0.126875 0.025369 0.247689
O11   O     O_R   0.633937 0.040078 0.004898 -0.205645
O12   O     O_R   0.743370 0.158613 0.147004 -0.386349
N5    N     N_R   0.601988 0.704804 0.851114 0.277581
O13   O     O_R   0.550498 0.814510 0.848707 -0.241408
O14   O     O_R   0.709512 0.692576 0.795552 -0.325907
N6    N     N_R   0.397175 0.296151 0.149049 0.275724
O15   O     O_R   0.454492 0.190013 0.160915 -0.239622
O16   O     O_R   0.285603 0.304642 0.195978 -0.339577
N7    N     N_R   0.292900 0.920593 0.168167 0.247380
O17   O     O_R   0.387665 0.946233 0.091586 -0.208231
O18   O     O_R   0.265943 0.998884 0.260631 -0.328359
N8    N     N_R   0.792999 0.006611 0.781139 0.261525
O19   O     O_R   0.828946 0.934229 0.880213 -0.242950
O20   O     O_R   0.776246 0.957363 0.665026 -0.361986
Br1   Br    Br    0.862324 0.721238 0.323770 -0.400163
Br2   Br    Br    0.144375 0.292535 0.701120 -0.423812
Br3   Br    Br    0.609660 0.751157 0.142700 -0.250616
Br4   Br    Br    0.409470 0.239301 0.860883 -0.265370

loop_
_geom_bond_atom_site_label_1
_geom_bond_atom_site_label_2
_geom_bond_distance
_ccdc_geom_bond_type
C24   C27   1.393615 A    
N3    O9    1.301429 A    
C13   H5    1.083148 S    
C18   C21   1.388049 A    
C31   N5    1.428502 S    
C16   N4    1.434238 S    
C23   H7    1.082146 S    
O5    C3    1.305915 A    
O1    C1    1.296336 A    
C3    C20   1.434300 S    
C19   C21   1.408464 A    
C12   H4    1.082894 S    
N4    O12   1.300486 A    
C29   N2    1.384305 A    
O4    Zn1   1.971126 S    
N5    O14   1.299669 A    
C17   C19   1.397573 A    
C9    C22   1.480556 S    
C26   H10   1.080876 S    
C29   C31   1.424631 A    
C30   C32   1.423563 A    
C29   Br3   1.900257 S    
N8    O19   1.301451 A    
C11   C13   1.391250 A    
C8    H2    1.083479 S    
C24   H8    1.082393 S    
O2    C2    1.296462 A    
C32   N2    1.361151 A    
Zn1   N1    2.047183 S    
C9    C11   1.399151 A    
C1    C28   1.406973 S    
C30   N1    1.387272 A    
C2    C27   1.408373 S    
C13   C15   1.403834 A    
N7    O17   1.299976 A    
C14   C16   1.403475 A    
C6    N8    1.437668 S    
O4    C2    1.293908 A    
C32   N6    1.426212 S    
C23   C25   1.373031 A    
N4    O11   1.300083 A    
C10   C21   1.481947 S    
C7    C9    1.398684 A    
C31   N1    1.363390 A    
N6    O16   1.300004 A    
O7    Zn2   2.014915 S    
C30   Br4   1.909653 S    
O7    C3    1.294759 A    
O5    Zn1   2.011487 S    
O6    C4    1.306802 A    
C5    N7    1.436259 S    
C4    C19   1.432132 S    
C25   H9    1.079284 S    
O3    Zn2   1.971125 S    
O8    C4    1.292402 A    
C18   Br2   1.924506 S    
C17   Br1   1.918675 S    
Zn2   N2    2.047183 S    
N3    O10   1.301153 A    
C10   C12   1.399837 A    
O1    Zn1   1.993447 S    
N7    O18   1.301674 A    
C5    C7    1.407278 A    
O6    Zn2   2.011484 S    
C8    C10   1.400624 A    
C12   C14   1.391818 A    
O3    C1    1.293314 A    
O8    Zn1   2.014913 S    
C5    C15   1.421086 A    
C6    C16   1.417778 A    
C17   C22   1.380128 A    
N6    O15   1.299805 A    
C20   C22   1.407016 A    
C14   H6    1.083081 S    
C7    H1    1.083475 S    
C18   C20   1.403622 A    
C11   H3    1.083599 S    
N5    O13   1.301264 A    
O2    Zn2   1.993447 S    
C24   C26   1.374936 A    
C6    C8    1.406011 A    
N8    O20   1.300683 A    
C15   N3    1.437484 S    
C25   C27   1.391935 A    
C26   C28   1.392622 A    
C23   C28   1.391440 A    
