data_mof_unit_65529.cif
_audit_creation_date              2012-12-10T17:51:20-0500
_audit_creation_method            fapswitch 2.2
_symmetry_space_group_name_H-M    P1
_symmetry_Int_Tables_number       1
_space_group_crystal_system       triclinic
_cell_length_a                    39.12109
_cell_length_b                    38.898137
_cell_length_c                    47.337492
_cell_angle_alpha                 90.008482
_cell_angle_beta                  90.006137
_cell_angle_gamma                 89.997413
_cell_volume                      72035.2363279

loop_
_atom_site_label
_atom_site_type_symbol
_atom_type_description
_atom_site_fract_x
_atom_site_fract_y
_atom_site_fract_z
_atom_type_partial_charge
C1    C     C_R   0.566436 0.999999 0.000000 0.873958
C2    C     C_R   0.999999 0.566042 0.000000 0.975479
C3    C     C_R   0.433564 0.000001 0.999998 0.873952
C4    C     C_R   0.000001 0.433958 1.000000 0.975485
C5    C     C_R   0.066436 0.499999 0.500000 0.874015
C6    C     C_R   0.499999 0.066042 0.500000 0.975473
C7    C     C_R   0.933564 0.500001 0.499998 0.874017
C8    C     C_R   0.500001 0.933958 0.500000 0.975476
C9    C     C_R   0.500006 0.999986 0.855075 -0.021172
C10   C     C_R   0.999987 0.500002 0.853830 -0.003847
C11   C     C_R   0.500001 0.000017 0.144925 -0.021194
C12   C     C_R   0.000012 0.500000 0.146170 -0.003853
C13   C     C_R   0.000006 0.499986 0.355075 -0.021177
C14   C     C_R   0.499986 0.000002 0.353830 -0.003846
C15   C     C_R   0.000002 0.500017 0.644925 -0.021178
C16   C     C_R   0.500012 0.000001 0.646170 -0.003862
C17   C     C_R   0.000000 0.066093 0.000002 0.942299
C18   C     C_R   0.933808 1.000000 0.999999 0.938053
C19   C     C_R   0.000000 0.933907 0.999998 0.942296
C20   C     C_R   0.066192 0.000001 0.000001 0.938047
C21   C     C_R   0.500000 0.566093 0.500002 0.942362
C22   C     C_R   0.433808 0.500000 0.499998 0.938141
C23   C     C_R   0.500000 0.433907 0.499998 0.942358
C24   C     C_R   0.566192 0.500001 0.500001 0.938134
C25   C     C_R   0.878037 0.018659 0.020777 0.311207
C26   C     C_R   0.970023 0.878380 0.992817 0.339173
C27   C     C_R   0.121964 0.981347 0.020788 0.311192
C28   C     C_R   0.029980 0.121618 0.992838 0.339173
C29   C     C_R   0.878039 0.981340 0.979209 0.311196
C30   C     C_R   0.970023 0.121622 0.007179 0.339157
C31   C     C_R   0.121960 0.018659 0.979224 0.311229
C32   C     C_R   0.029981 0.878380 0.007167 0.339162
C33   C     C_R   0.378038 0.518674 0.520768 0.311212
C34   C     C_R   0.470018 0.378381 0.492831 0.339156
C35   C     C_R   0.621964 0.481334 0.520779 0.311192
C36   C     C_R   0.529985 0.621617 0.492852 0.339156
C37   C     C_R   0.378040 0.481327 0.479217 0.311200
C38   C     C_R   0.470018 0.621621 0.507165 0.339141
C39   C     C_R   0.621959 0.518674 0.479232 0.311231
C40   C     C_R   0.529985 0.378380 0.507154 0.339147
C41   C     C_R   0.842248 0.020492 0.019442 0.292015
C42   C     C_R   0.970335 0.842326 0.992070 0.302567
C43   C     C_R   0.157754 0.979514 0.019457 0.292009
C44   C     C_R   0.029668 0.157671 0.992094 0.302540
C45   C     C_R   0.842250 0.979505 0.980538 0.291984
C46   C     C_R   0.970335 0.157675 0.007927 0.302604
C47   C     C_R   0.157749 0.020494 0.980557 0.291987
C48   C     C_R   0.029670 0.842326 0.007911 0.302559
C49   C     C_R   0.342248 0.520505 0.519433 0.292017
C50   C     C_R   0.470330 0.342327 0.492083 0.302576
C51   C     C_R   0.657753 0.479502 0.519448 0.292013
C52   C     C_R   0.529674 0.657671 0.492109 0.302550
C53   C     C_R   0.342250 0.479493 0.480547 0.291987
C54   C     C_R   0.470329 0.657675 0.507913 0.302609
C55   C     C_R   0.657748 0.520508 0.480566 0.291994
C56   C     C_R   0.529675 0.342326 0.507897 0.302567
C57   C     C_R   0.824295 0.999997 0.999989 -0.083239
C58   C     C_R   0.000003 0.824228 0.999990 -0.088216
C59   C     C_R   0.175705 0.000004 0.000008 -0.083214
C60   C     C_R   0.000001 0.175772 0.000011 -0.088237
C61   C     C_R   0.324296 0.499998 0.499989 -0.083238
C62   C     C_R   0.500002 0.324228 0.499989 -0.088214
C63   C     C_R   0.675704 0.500005 0.500008 -0.083217
C64   C     C_R   0.500001 0.675771 0.500011 -0.088232
C65   C     C_R   0.896118 1.000000 0.999995 -0.380005
C66   C     C_R   0.000002 0.896342 0.999994 -0.356527
C67   C     C_R   0.103882 0.000003 0.000004 -0.380010
C68   C     C_R   0.000001 0.103658 0.000006 -0.356529
C69   C     C_R   0.396119 0.500000 0.499995 -0.379990
C70   C     C_R   0.500001 0.396342 0.499994 -0.356517
C71   C     C_R   0.603881 0.500003 0.500004 -0.379993
C72   C     C_R   0.500001 0.603658 0.500006 -0.356517
C73   C     C_R   0.768716 0.013814 0.976882 0.376837
C74   C     C_R   0.017535 0.768285 0.978713 0.368712
C75   C     C_R   0.231273 0.986170 0.976898 0.376800
C76   C     C_R   0.982461 0.231703 0.978730 0.368721
C77   C     C_R   0.768727 0.986170 0.023098 0.376858
C78   C     C_R   0.017538 0.231711 0.021291 0.368632
C79   C     C_R   0.231283 0.013829 0.023116 0.376902
C80   C     C_R   0.982470 0.768301 0.021275 0.368645
C81   C     C_R   0.268717 0.513799 0.476876 0.376837
C82   C     C_R   0.517521 0.268286 0.478705 0.368703
C83   C     C_R   0.731273 0.486188 0.476892 0.376805
C84   C     C_R   0.482476 0.731703 0.478722 0.368713
C85   C     C_R   0.268728 0.486185 0.523104 0.376849
C86   C     C_R   0.517524 0.731710 0.521299 0.368636
C87   C     C_R   0.731283 0.513815 0.523122 0.376888
C88   C     C_R   0.482482 0.268301 0.521281 0.368649
C89   C     C_R   0.732958 0.011992 0.976132 0.367812
C90   C     C_R   0.018896 0.732232 0.979452 0.359933
C91   C     C_R   0.267031 0.987990 0.976144 0.367818
C92   C     C_R   0.981099 0.267757 0.979465 0.359948
C93   C     C_R   0.732970 0.987991 0.023852 0.367858
C94   C     C_R   0.018900 0.267764 0.020555 0.359924
C95   C     C_R   0.267041 0.012005 0.023866 0.367842
C96   C     C_R   0.981107 0.732247 0.020542 0.359951
C97   C     C_R   0.232958 0.511977 0.476126 0.367812
C98   C     C_R   0.518883 0.232232 0.479443 0.359930
C99   C     C_R   0.767031 0.488008 0.476139 0.367818
C100  C     C_R   0.481113 0.767756 0.479457 0.359942
C101  C     C_R   0.232970 0.488007 0.523857 0.367853
C102  C     C_R   0.518886 0.767764 0.520563 0.359918
C103  C     C_R   0.767041 0.511990 0.523872 0.367844
C104  C     C_R   0.481118 0.232247 0.520549 0.359946
C105  C     C_R   0.714846 0.999992 0.999993 -0.180275
C106  C     C_R   0.000001 0.714018 0.999999 -0.174308
C107  C     C_R   0.285154 0.999997 0.000004 -0.180294
C108  C     C_R   0.999999 0.285982 0.000010 -0.174317
C109  C     C_R   0.214846 0.499993 0.499993 -0.180265
C110  C     C_R   0.500000 0.214018 0.499997 -0.174295
C111  C     C_R   0.785154 0.499998 0.500004 -0.180287
C112  C     C_R   0.499999 0.785982 0.500010 -0.174302
C113  C     C_R   0.786629 0.999993 0.999989 -0.108372
C114  C     C_R   0.000002 0.786304 0.999992 -0.098264
C115  C     C_R   0.213371 0.000002 0.000007 -0.108371
C116  C     C_R   0.000000 0.213696 0.000011 -0.098269
C117  C     C_R   0.286630 0.499993 0.499989 -0.108366
C118  C     C_R   0.500001 0.286304 0.499992 -0.098260
C119  C     C_R   0.713370 0.500003 0.500007 -0.108366
C120  C     C_R   0.500001 0.713696 0.500011 -0.098264
C121  C     C_R   0.500000 0.999998 0.945573 0.891891
C122  C     C_R   0.999998 0.499999 0.945301 0.961841
C123  C     C_R   0.500001 0.000002 0.054427 0.891871
C124  C     C_R   0.000002 0.500001 0.054699 0.961873
C125  C     C_R   0.000000 0.499998 0.445573 0.891948
C126  C     C_R   0.499998 0.999999 0.445301 0.961839
C127  C     C_R   0.000001 0.500002 0.554427 0.891922
C128  C     C_R   0.500002 0.000001 0.554699 0.961867
C129  C     C_R   0.659004 0.969209 0.004681 0.424456
C130  C     C_R   0.011715 0.657721 0.023961 0.444109
C131  C     C_R   0.340996 0.030787 0.004686 0.424440
C132  C     C_R   0.988294 0.342291 0.023969 0.444136
C133  C     C_R   0.659002 0.030781 0.995313 0.424468
C134  C     C_R   0.011713 0.342275 0.976045 0.444097
C135  C     C_R   0.340999 0.969213 0.995310 0.424490
C136  C     C_R   0.988279 0.657713 0.976039 0.444105
C137  C     C_R   0.159004 0.469212 0.504695 0.424446
C138  C     C_R   0.511730 0.157722 0.523956 0.444102
C139  C     C_R   0.840997 0.530784 0.504701 0.424431
C140  C     C_R   0.488277 0.842290 0.523963 0.444129
C141  C     C_R   0.159002 0.530779 0.495299 0.424448
C142  C     C_R   0.511730 0.842275 0.476050 0.444088
C143  C     C_R   0.840999 0.469217 0.495295 0.424471
C144  C     C_R   0.488263 0.157713 0.476043 0.444098
C145  C     C_R   0.623221 0.969416 0.005937 0.219253
C146  C     C_R   0.011014 0.621689 0.024057 0.229948
C147  C     C_R   0.376780 0.030583 0.005936 0.219266
C148  C     C_R   0.988995 0.378323 0.024062 0.229957
C149  C     C_R   0.623218 0.030578 0.994062 0.219247
C150  C     C_R   0.011012 0.378308 0.975947 0.229997
C151  C     C_R   0.376782 0.969419 0.994054 0.219245
C152  C     C_R   0.988980 0.621681 0.975944 0.230002
C153  C     C_R   0.123220 0.469420 0.505949 0.219238
C154  C     C_R   0.511029 0.121690 0.524052 0.229964
C155  C     C_R   0.876781 0.530579 0.505951 0.219246
C156  C     C_R   0.488978 0.878322 0.524056 0.229973
C157  C     C_R   0.123218 0.530574 0.494049 0.219239
C158  C     C_R   0.511029 0.878307 0.475952 0.230011
C159  C     C_R   0.876782 0.469424 0.494040 0.219237
C160  C     C_R   0.488965 0.121681 0.475948 0.230014
C161  C     C_R   0.604599 0.999998 1.000000 -0.392494
C162  C     C_R   0.999998 0.603663 0.000000 -0.325871
C163  C     C_R   0.395402 0.000002 0.999996 -0.392500
C164  C     C_R   0.000003 0.396337 0.000003 -0.325881
C165  C     C_R   0.104598 0.499998 0.500000 -0.392489
C166  C     C_R   0.499998 0.103663 0.500000 -0.325875
C167  C     C_R   0.895402 0.500002 0.499996 -0.392493
C168  C     C_R   0.500003 0.896337 0.500002 -0.325885
C169  C     C_R   0.677028 0.999994 0.999995 -0.138634
C170  C     C_R   0.999997 0.675946 0.000000 -0.144433
C171  C     C_R   0.322972 0.999999 0.999999 -0.138664
C172  C     C_R   0.000003 0.324054 0.000008 -0.144427
C173  C     C_R   0.177028 0.499994 0.499995 -0.138622
C174  C     C_R   0.499997 0.175947 0.499999 -0.144420
C175  C     C_R   0.822972 0.500000 0.500000 -0.138651
C176  C     C_R   0.500003 0.824053 0.500008 -0.144415
C177  C     C_R   0.495339 0.030252 0.690643 0.637391
C178  C     C_R   0.007124 0.529776 0.689398 0.639066
C179  C     C_R   0.504691 0.969744 0.690634 0.637378
C180  C     C_R   0.992866 0.470254 0.689386 0.639054
C181  C     C_R   0.495306 0.969753 0.309356 0.637385
C182  C     C_R   0.007122 0.470223 0.310604 0.639073
C183  C     C_R   0.504657 0.030261 0.309368 0.637389
C184  C     C_R   0.992891 0.529753 0.310612 0.639082
C185  C     C_R   0.995349 0.530254 0.190643 0.637360
C186  C     C_R   0.507129 0.029775 0.189398 0.639074
C187  C     C_R   0.004681 0.469741 0.190633 0.637344
C188  C     C_R   0.492858 0.970256 0.189386 0.639063
C189  C     C_R   0.995305 0.469753 0.809356 0.637376
C190  C     C_R   0.507141 0.970228 0.810604 0.639063
C191  C     C_R   0.004661 0.530260 0.809368 0.637382
C192  C     C_R   0.492872 0.029749 0.810612 0.639072
C193  C     C_R   0.505785 0.968880 0.720549 -0.175951
C194  C     C_R   0.993598 0.469024 0.719300 -0.174122
C195  C     C_R   0.494245 0.031112 0.720558 -0.175940
C196  C     C_R   0.006382 0.531002 0.719312 -0.174128
C197  C     C_R   0.505749 0.031126 0.279453 -0.175941
C198  C     C_R   0.993639 0.530985 0.280699 -0.174123
C199  C     C_R   0.494215 0.968893 0.279441 -0.175944
C200  C     C_R   0.006379 0.468996 0.280690 -0.174130
C201  C     C_R   0.005761 0.468874 0.220549 -0.175950
C202  C     C_R   0.493594 0.969025 0.219300 -0.174123
C203  C     C_R   0.994267 0.531117 0.220558 -0.175938
C204  C     C_R   0.506383 0.031002 0.219312 -0.174129
C205  C     C_R   0.005751 0.531126 0.779453 -0.175941
C206  C     C_R   0.493613 0.030980 0.780699 -0.174119
C207  C     C_R   0.994215 0.468893 0.779440 -0.175944
C208  C     C_R   0.506407 0.969002 0.780690 -0.174126
C209  C     C_R   0.500014 0.999995 0.735597 -0.110865
C210  C     C_R   0.999988 0.500012 0.734351 -0.110901
C211  C     C_R   0.499984 0.000011 0.264404 -0.110856
C212  C     C_R   0.000011 0.499992 0.265649 -0.110914
C213  C     C_R   0.000013 0.499994 0.235597 -0.110835
C214  C     C_R   0.499987 0.000013 0.234351 -0.110908
C215  C     C_R   0.999985 0.500010 0.764404 -0.110853
C216  C     C_R   0.500012 0.999992 0.765649 -0.110897
C217  C     C_R   0.512144 0.938075 0.735780 0.349389
C218  C     C_R   0.987920 0.438084 0.734526 0.349235
C219  C     C_R   0.487887 0.061915 0.735799 0.349386
C220  C     C_R   0.012054 0.561941 0.734551 0.349236
C221  C     C_R   0.512101 0.061932 0.264223 0.349382
C222  C     C_R   0.987997 0.561931 0.265472 0.349249
C223  C     C_R   0.487861 0.938091 0.264198 0.349383
C224  C     C_R   0.012026 0.438052 0.265453 0.349247
C225  C     C_R   0.012082 0.438062 0.235781 0.349366
C226  C     C_R   0.487916 0.938085 0.234526 0.349237
C227  C     C_R   0.987946 0.561927 0.235800 0.349365
C228  C     C_R   0.512054 0.061941 0.234551 0.349239
C229  C     C_R   0.012103 0.561931 0.764223 0.349385
C230  C     C_R   0.487937 0.061920 0.765471 0.349234
C231  C     C_R   0.987863 0.438090 0.764198 0.349384
C232  C     C_R   0.512089 0.938065 0.765452 0.349231
C233  C     C_R   0.473828 0.982752 0.870033 0.414025
C234  C     C_R   0.969236 0.494551 0.868739 0.411101
C235  C     C_R   0.526183 0.017222 0.870041 0.414010
C236  C     C_R   0.030741 0.505451 0.868741 0.411092
C237  C     C_R   0.473828 0.017259 0.129961 0.414021
C238  C     C_R   0.969259 0.505460 0.131260 0.411098
C239  C     C_R   0.526174 0.982771 0.129965 0.414017
C240  C     C_R   0.030762 0.494542 0.131260 0.411089
C241  C     C_R   0.973819 0.482766 0.370033 0.414025
C242  C     C_R   0.469237 0.994545 0.368740 0.411100
C243  C     C_R   0.026193 0.517208 0.370042 0.414013
C244  C     C_R   0.530739 0.005458 0.368742 0.411091
C245  C     C_R   0.973821 0.517248 0.629961 0.414015
C246  C     C_R   0.469260 0.005463 0.631260 0.411104
C247  C     C_R   0.026182 0.482782 0.629965 0.414011
C248  C     C_R   0.530762 0.994539 0.631259 0.411091
C249  C     C_R   0.473988 0.982669 0.899691 0.331680
C250  C     C_R   0.969231 0.494459 0.898452 0.338621
C251  C     C_R   0.526021 0.017310 0.899699 0.331711
C252  C     C_R   0.030753 0.505540 0.898454 0.338632
C253  C     C_R   0.473989 0.017341 0.100303 0.331693
C254  C     C_R   0.969247 0.505549 0.101547 0.338631
C255  C     C_R   0.526013 0.982681 0.100307 0.331703
C256  C     C_R   0.030768 0.494453 0.101546 0.338653
C257  C     C_R   0.973978 0.482683 0.399691 0.331674
C258  C     C_R   0.469232 0.994452 0.398453 0.338598
C259  C     C_R   0.026030 0.517296 0.399699 0.331700
C260  C     C_R   0.530752 0.005547 0.398454 0.338611
C261  C     C_R   0.973982 0.517328 0.600303 0.331687
C262  C     C_R   0.469248 0.005554 0.601547 0.338603
C263  C     C_R   0.026021 0.482693 0.600307 0.331697
C264  C     C_R   0.530767 0.994449 0.601546 0.338626
C265  C     C_R   0.500003 0.999992 0.914544 -0.383680
C266  C     C_R   0.999994 0.499999 0.913687 -0.349636
C267  C     C_R   0.500001 0.000008 0.085456 -0.383693
C268  C     C_R   0.000006 0.500001 0.086312 -0.349626
C269  C     C_R   0.000003 0.499992 0.414545 -0.383668
C270  C     C_R   0.499994 0.999999 0.413688 -0.349642
C271  C     C_R   0.000001 0.500008 0.585456 -0.383680
C272  C     C_R   0.500006 0.000001 0.586312 -0.349637
Cu1   Cu    Cu3+1 0.500000 0.965740 0.000000 1.140704
Cu2   Cu    Cu3+1 0.034260 0.500000 0.000000 1.050005
Cu3   Cu    Cu3+1 0.500000 0.034260 0.000000 1.140709
Cu4   Cu    Cu3+1 0.965740 0.500000 0.000000 1.049977
Cu5   Cu    Cu3+1 1.000000 0.465740 0.500000 1.140666
Cu6   Cu    Cu3+1 0.534260 0.000000 0.500000 1.050010
Cu7   Cu    Cu3+1 1.000000 0.534260 0.500000 1.140671
Cu8   Cu    Cu3+1 0.465740 0.000000 0.500000 1.049981
Cu9   Cu    Cu3+1 0.000000 0.000000 0.971840 0.997455
Cu10  Cu    Cu3+1 1.000000 0.000000 0.028160 0.997468
Cu11  Cu    Cu3+1 0.500000 0.500000 0.471840 0.997395
Cu12  Cu    Cu3+1 0.500000 0.500000 0.528160 0.997405
N1    N     N_R   0.500015 0.999999 0.676644 -0.446358
N2    N     N_R   0.999998 0.500016 0.675396 -0.444118
N3    N     N_R   0.499982 0.000006 0.323356 -0.446352
N4    N     N_R   0.000006 0.499987 0.324604 -0.444121
N5    N     N_R   0.000014 0.499998 0.176644 -0.446342
N6    N     N_R   0.499996 0.000016 0.175396 -0.444127
N7    N     N_R   0.999983 0.500005 0.823356 -0.446348
N8    N     N_R   0.500006 0.999987 0.824604 -0.444115
O1    O     O_R   0.549920 0.971060 0.999980 -0.534273
O2    O     O_R   0.028940 0.549920 0.999980 -0.571651
O3    O     O_R   0.450080 0.028940 0.999980 -0.534264
O4    O     O_R   0.971060 0.450080 0.999980 -0.571667
O5    O     O_R   0.549920 0.028940 0.000020 -0.534252
O6    O     O_R   0.028940 0.450080 0.000020 -0.571640
O7    O     O_R   0.450080 0.971060 0.000020 -0.534268
O8    O     O_R   0.971060 0.549920 0.000020 -0.571653
O9    O     O_R   0.049920 0.471060 0.499980 -0.534287
O10   O     O_R   0.528940 0.049920 0.499980 -0.571636
O11   O     O_R   0.950080 0.528940 0.499980 -0.534281
O12   O     O_R   0.471060 0.950080 0.499980 -0.571652
O13   O     O_R   0.049920 0.528940 0.500020 -0.534265
O14   O     O_R   0.528940 0.950080 0.500020 -0.571625
O15   O     O_R   0.950080 0.471060 0.500020 -0.534282
O16   O     O_R   0.471060 0.049920 0.500020 -0.571641
O17   O     O_R   0.499990 0.971060 0.958930 -0.552151
O18   O     O_R   0.028940 0.499990 0.958930 -0.558323
O19   O     O_R   0.500010 0.028940 0.958930 -0.552128
O20   O     O_R   0.971060 0.500010 0.958930 -0.558326
O21   O     O_R   0.499990 0.028940 0.041070 -0.552146
O22   O     O_R   0.028940 0.500010 0.041070 -0.558333
O23   O     O_R   0.500010 0.971060 0.041070 -0.552120
O24   O     O_R   0.971060 0.499990 0.041070 -0.558334
O25   O     O_R   0.999990 0.471060 0.458930 -0.552175
O26   O     O_R   0.528940 0.999990 0.458930 -0.558326
O27   O     O_R   0.000010 0.528940 0.458930 -0.552154
O28   O     O_R   0.471060 0.000010 0.458930 -0.558334
O29   O     O_R   0.999990 0.528940 0.541070 -0.552166
O30   O     O_R   0.528940 0.000010 0.541070 -0.558336
O31   O     O_R   0.000010 0.471060 0.541070 -0.552142
O32   O     O_R   0.471060 0.999990 0.541070 -0.558335
O33   O     O_2   0.492307 0.059231 0.675269 -0.425019
O34   O     O_2   0.015361 0.557719 0.674033 -0.434422
O35   O     O_2   0.507724 0.940767 0.675250 -0.425002
O36   O     O_2   0.984635 0.442312 0.674009 -0.434428
O37   O     O_2   0.492271 0.940775 0.324730 -0.425017
O38   O     O_2   0.015350 0.442277 0.325970 -0.434433
O39   O     O_2   0.507693 0.059236 0.324753 -0.425008
O40   O     O_2   0.984659 0.557696 0.325986 -0.434445
O41   O     O_2   0.992311 0.559230 0.175267 -0.425014
O42   O     O_2   0.515376 0.057715 0.174034 -0.434416
O43   O     O_2   0.007719 0.440767 0.175248 -0.424994
O44   O     O_2   0.484618 0.942317 0.174010 -0.434421
O45   O     O_2   0.992265 0.440776 0.824730 -0.425018
O46   O     O_2   0.515378 0.942285 0.825971 -0.434420
O47   O     O_2   0.007700 0.559235 0.824753 -0.425012
O48   O     O_2   0.484630 0.057689 0.825987 -0.434434
O49   O     O_R   0.000010 0.049920 0.976260 -0.579423
O50   O     O_R   0.950080 0.000010 0.976260 -0.578357
O51   O     O_R   0.999990 0.950080 0.976260 -0.579424
O52   O     O_R   0.049920 0.999990 0.976260 -0.578354
O53   O     O_R   0.000010 0.950080 0.023740 -0.579420
O54   O     O_R   0.950080 0.999990 0.023740 -0.578363
O55   O     O_R   0.999990 0.049920 0.023740 -0.579422
O56   O     O_R   0.049920 0.000010 0.023740 -0.578350
O57   O     O_R   0.500010 0.549920 0.476260 -0.579450
O58   O     O_R   0.450080 0.500010 0.476260 -0.578391
O59   O     O_R   0.499990 0.450080 0.476260 -0.579450
O60   O     O_R   0.549920 0.499990 0.476260 -0.578390
O61   O     O_R   0.500010 0.450080 0.523740 -0.579446
O62   O     O_R   0.450080 0.499990 0.523740 -0.578399
O63   O     O_R   0.499990 0.549920 0.523740 -0.579450
O64   O     O_R   0.549920 0.500010 0.523740 -0.578385
Cl1   Cl    Cl    0.521385 0.898419 0.718692 -0.390622
Cl2   Cl    Cl    0.981646 0.397852 0.717428 -0.392838
Cl3   Cl    Cl    0.478657 0.101576 0.718723 -0.390616
Cl4   Cl    Cl    0.018326 0.602176 0.717468 -0.392838
Cl5   Cl    Cl    0.521320 0.101592 0.281313 -0.390625
Cl6   Cl    Cl    0.981773 0.602172 0.282570 -0.392799
Cl7   Cl    Cl    0.478629 0.898430 0.281272 -0.390619
Cl8   Cl    Cl    0.018250 0.397809 0.282539 -0.392818
Cl9   Cl    Cl    0.021261 0.398390 0.218695 -0.390652
Cl10  Cl    Cl    0.481644 0.897853 0.217428 -0.392826
Cl11  Cl    Cl    0.978774 0.601603 0.218725 -0.390645
Cl12  Cl    Cl    0.518323 0.102177 0.217468 -0.392825
Cl13  Cl    Cl    0.021321 0.601592 0.781312 -0.390625
Cl14  Cl    Cl    0.481658 0.102152 0.782568 -0.392828
Cl15  Cl    Cl    0.978634 0.398429 0.781271 -0.390620
Cl16  Cl    Cl    0.518370 0.897830 0.782536 -0.392849
O65   O     O_3   0.448767 0.964120 0.856115 -0.497482
C273  C     C_3   0.426024 0.986546 0.841999 -0.202978
H1    H     H_    0.424583 0.012842 0.851360 0.133632
H2    H     H_    0.399971 0.975372 0.843052 0.190668
H3    H     H_    0.433047 0.988377 0.819347 0.169276
O66   O     O_3   0.939141 0.486563 0.854709 -0.505474
C274  C     C_3   0.926815 0.515549 0.839823 -0.224747
H4    H     H_    0.934968 0.540673 0.849010 0.148619
H5    H     H_    0.898474 0.514994 0.840307 0.188088
H6    H     H_    0.934547 0.514056 0.817319 0.173760
O67   O     O_3   0.551246 0.035852 0.856132 -0.497481
C275  C     C_3   0.573987 0.013424 0.842016 -0.203018
H7    H     H_    0.575423 0.987127 0.851367 0.133638
H8    H     H_    0.600042 0.024594 0.843079 0.190669
H9    H     H_    0.566966 0.011598 0.819360 0.169287
O68   O     O_3   0.060832 0.513440 0.854714 -0.505471
C276  C     C_3   0.073153 0.484458 0.839815 -0.224774
H10   H     H_    0.064995 0.459331 0.848988 0.148620
H11   H     H_    0.101495 0.485007 0.840305 0.188091
H12   H     H_    0.065421 0.485961 0.817311 0.173760
O69   O     O_3   0.448769 0.035900 0.143872 -0.497467
C277  C     C_3   0.426021 0.013482 0.157984 -0.202978
H13   H     H_    0.424577 0.987185 0.148626 0.133614
H14   H     H_    0.399970 0.024662 0.156923 0.190676
H15   H     H_    0.433041 0.011652 0.180639 0.169275
O70   O     O_3   0.939170 0.513458 0.145288 -0.505475
C278  C     C_3   0.926841 0.484479 0.160179 -0.224768
H16   H     H_    0.934994 0.459351 0.151000 0.148630
H17   H     H_    0.898500 0.485037 0.159688 0.188084
H18   H     H_    0.934571 0.485980 0.182684 0.173762
O71   O     O_3   0.551232 0.964133 0.143880 -0.497476
C279  C     C_3   0.573975 0.986553 0.158005 -0.203010
H19   H     H_    0.575421 0.012849 0.148653 0.133633
H20   H     H_    0.600026 0.975373 0.156953 0.190674
H21   H     H_    0.566947 0.988383 0.180658 0.169282
O72   O     O_3   0.060855 0.486542 0.145287 -0.505470
C280  C     C_3   0.073183 0.515516 0.160193 -0.224764
H22   H     H_    0.065023 0.540647 0.151028 0.148637
H23   H     H_    0.101524 0.514963 0.159701 0.188083
H24   H     H_    0.065460 0.514004 0.182698 0.173769
O73   O     O_3   0.948748 0.464147 0.356115 -0.497472
C281  C     C_3   0.926018 0.486584 0.341998 -0.202974
H25   H     H_    0.924592 0.512882 0.351356 0.133629
H26   H     H_    0.899959 0.475425 0.343052 0.190669
H27   H     H_    0.933042 0.488409 0.319345 0.169277
O74   O     O_3   0.439144 0.986552 0.354710 -0.505475
C282  C     C_3   0.426811 0.015537 0.339825 -0.224761
H28   H     H_    0.434956 0.040661 0.349015 0.148613
H29   H     H_    0.398470 0.014974 0.340307 0.188090
H30   H     H_    0.434545 0.014049 0.317321 0.173760
O75   O     O_3   0.051265 0.535825 0.356133 -0.497472
C283  C     C_3   0.073994 0.513385 0.342015 -0.203012
H31   H     H_    0.075416 0.487087 0.351366 0.133633
H32   H     H_    0.100054 0.524541 0.343078 0.190671
H33   H     H_    0.066971 0.511563 0.319360 0.169287
O76   O     O_3   0.560829 0.013452 0.354714 -0.505473
C284  C     C_3   0.573156 0.984471 0.339817 -0.224784
H34   H     H_    0.565007 0.959344 0.348994 0.148613
H35   H     H_    0.601498 0.985029 0.340303 0.188091
H36   H     H_    0.565421 0.985969 0.317313 0.173759
O77   O     O_3   0.948757 0.535879 0.643873 -0.497472
C285  C     C_3   0.926018 0.513453 0.657986 -0.202979
H37   H     H_    0.924587 0.487154 0.648633 0.133630
H38   H     H_    0.899961 0.524621 0.656922 0.190673
H39   H     H_    0.933037 0.511633 0.680642 0.169280
O78   O     O_3   0.439171 0.013462 0.645289 -0.505467
C286  C     C_3   0.426840 0.984481 0.660175 -0.224776
H40   H     H_    0.434985 0.959354 0.650989 0.148607
H41   H     H_    0.398499 0.985046 0.659690 0.188090
H42   H     H_    0.434576 0.985973 0.682680 0.173757
O79   O     O_3   0.051247 0.464154 0.643880 -0.497479
C287  C     C_3   0.073981 0.486581 0.658006 -0.203008
H43   H     H_    0.075413 0.512880 0.648657 0.133648
H44   H     H_    0.100038 0.475414 0.656949 0.190672
H45   H     H_    0.066955 0.488403 0.680659 0.169287
O80   O     O_3   0.560854 0.986539 0.645287 -0.505462
C288  C     C_3   0.573186 0.015515 0.660189 -0.224769
H46   H     H_    0.565033 0.040645 0.651016 0.148612
H47   H     H_    0.601526 0.014955 0.659702 0.188088
H48   H     H_    0.565456 0.014013 0.682692 0.173764
O81   O     O_3   0.448963 0.964636 0.914093 -0.489906
C289  C     C_3   0.421816 0.987271 0.920377 -0.172681
H49   H     H_    0.430064 0.008063 0.934994 0.114344
H50   H     H_    0.401295 0.972557 0.931072 0.219048
H51   H     H_    0.410557 0.998559 0.900917 0.136145
O82   O     O_3   0.939292 0.486360 0.912547 -0.507518
C290  C     C_3   0.919048 0.516270 0.915061 -0.149498
H52   H     H_    0.905823 0.522089 0.894918 0.160991
H53   H     H_    0.934044 0.539030 0.922187 0.176029
H54   H     H_    0.899039 0.511501 0.931190 0.177996
O83   O     O_3   0.551045 0.035343 0.914110 -0.489887
C291  C     C_3   0.578192 0.012708 0.920394 -0.172707
H55   H     H_    0.569944 0.991916 0.935005 0.114343
H56   H     H_    0.598713 0.027421 0.931095 0.219041
H57   H     H_    0.589450 0.001419 0.900933 0.136147
O84   O     O_3   0.060698 0.513632 0.912551 -0.507505
C292  C     C_3   0.080936 0.483718 0.915057 -0.149517
H58   H     H_    0.094151 0.477895 0.894911 0.160982
H59   H     H_    0.065940 0.460963 0.922181 0.175998
H60   H     H_    0.100954 0.488486 0.931184 0.178008
O85   O     O_3   0.448968 0.035379 0.085895 -0.489892
C293  C     C_3   0.421818 0.012750 0.079606 -0.172666
H61   H     H_    0.430062 0.991960 0.064986 0.114327
H62   H     H_    0.401297 0.027470 0.068912 0.219058
H63   H     H_    0.410561 0.001460 0.099063 0.136105
O86   O     O_3   0.939305 0.513652 0.087452 -0.507513
C294  C     C_3   0.919060 0.483745 0.084936 -0.149515
H64   H     H_    0.934052 0.460986 0.077804 0.176030
H65   H     H_    0.899042 0.488520 0.068812 0.177997
H66   H     H_    0.905846 0.477922 0.105081 0.160969
O87   O     O_3   0.551033 0.964636 0.085903 -0.489901
C295  C     C_3   0.578187 0.987260 0.079624 -0.172683
H67   H     H_    0.589449 0.998544 0.099086 0.136158
H68   H     H_    0.569946 0.008055 0.065011 0.114318
H69   H     H_    0.598703 0.972537 0.068926 0.219073
O88   O     O_3   0.060708 0.486354 0.087450 -0.507501
C296  C     C_3   0.080950 0.516263 0.084946 -0.149529
H70   H     H_    0.065957 0.539020 0.077815 0.176012
H71   H     H_    0.100970 0.511488 0.068826 0.178005
H72   H     H_    0.094161 0.522088 0.105096 0.160971
O89   O     O_3   0.948944 0.464665 0.414093 -0.489891
C297  C     C_3   0.921808 0.487315 0.420375 -0.172691
H73   H     H_    0.910561 0.498612 0.400914 0.136137
H74   H     H_    0.930064 0.508100 0.434996 0.114367
H75   H     H_    0.901276 0.472611 0.431064 0.219029
O90   O     O_3   0.439295 0.986345 0.412548 -0.507532
C298  C     C_3   0.419043 0.016249 0.415061 -0.149487
H76   H     H_    0.434032 0.039015 0.422181 0.176025
H77   H     H_    0.399039 0.011476 0.431194 0.177994
H78   H     H_    0.405811 0.022059 0.394919 0.161005
O91   O     O_3   0.051064 0.535316 0.414110 -0.489873
C299  C     C_3   0.078200 0.512665 0.420392 -0.172715
H79   H     H_    0.089448 0.501367 0.400931 0.136138
H80   H     H_    0.069943 0.491882 0.435007 0.114365
H81   H     H_    0.098732 0.527369 0.431088 0.219022
O92   O     O_3   0.560694 0.013649 0.412552 -0.507519
C300  C     C_3   0.580942 0.983742 0.415056 -0.149501
H82   H     H_    0.594164 0.977928 0.394911 0.160997
H83   H     H_    0.565953 0.960978 0.422174 0.175991
H84   H     H_    0.600955 0.988512 0.431188 0.178007
O93   O     O_3   0.948952 0.535355 0.585895 -0.489881
C301  C     C_3   0.921811 0.512713 0.579609 -0.172668
H85   H     H_    0.910565 0.501414 0.599068 0.136094
H86   H     H_    0.930061 0.491929 0.564986 0.114352
H87   H     H_    0.901279 0.527424 0.568922 0.219049
O94   O     O_3   0.439308 0.013664 0.587451 -0.507525
C302  C     C_3   0.419055 0.983761 0.584937 -0.149496
H88   H     H_    0.434043 0.960996 0.577813 0.176024
H89   H     H_    0.399045 0.988538 0.568806 0.177997
H90   H     H_    0.405832 0.977949 0.605079 0.160990
O95   O     O_3   0.051049 0.464661 0.585902 -0.489892
C303  C     C_3   0.078194 0.487297 0.579625 -0.172681
H91   H     H_    0.089444 0.498592 0.599089 0.136141
H92   H     H_    0.069946 0.508084 0.565008 0.114343
H93   H     H_    0.098721 0.472583 0.568935 0.219059
O96   O     O_3   0.560705 0.986342 0.587449 -0.507514
C304  C     C_3   0.580955 0.016246 0.584946 -0.149512
H94   H     H_    0.594176 0.022061 0.605093 0.160993
H95   H     H_    0.565966 0.039010 0.577823 0.176001
H96   H     H_    0.600968 0.011470 0.568820 0.178004
O97   O     O_3   0.895598 0.037933 0.040614 -0.505701
C305  C     C_3   0.895425 0.020006 0.066559 -0.101450
H97   H     H_    0.905274 0.993282 0.064286 0.118190
H98   H     H_    0.869461 0.019422 0.076037 0.191941
H99   H     H_    0.912473 0.033656 0.081553 0.178556
O98   O     O_3   0.940766 0.896095 0.985209 -0.499906
C306  C     C_3   0.920991 0.901676 0.009715 -0.152521
H100  H     H_    0.934046 0.919649 0.024459 0.110114
H101  H     H_    0.914797 0.877162 0.020730 0.178888
H102  H     H_    0.896411 0.913637 0.003449 0.205005
O99   O     O_3   0.104405 0.962079 0.040621 -0.505696
C307  C     C_3   0.104580 0.980011 0.066568 -0.101466
H103  H     H_    0.094728 0.006734 0.064295 0.118185
H104  H     H_    0.130545 0.980600 0.076047 0.191937
H105  H     H_    0.087535 0.966363 0.081558 0.178562
O100  O     O_3   0.059236 0.103901 0.985233 -0.499905
C308  C     C_3   0.079014 0.098329 0.009742 -0.152538
H106  H     H_    0.065958 0.080365 0.024486 0.110109
H107  H     H_    0.085212 0.122848 0.020754 0.178912
H108  H     H_    0.103592 0.086363 0.003478 0.204990
O101  O     O_3   0.895603 0.962068 0.959374 -0.505691
C309  C     C_3   0.895424 0.979993 0.933428 -0.101454
H109  H     H_    0.905271 0.006717 0.935702 0.118189
H110  H     H_    0.869458 0.980577 0.923949 0.191935
H111  H     H_    0.912471 0.966342 0.918437 0.178554
O102  O     O_3   0.940767 0.103909 0.014784 -0.499919
C310  C     C_3   0.920988 0.098332 0.990276 -0.152539
H112  H     H_    0.934043 0.080363 0.975530 0.110110
H113  H     H_    0.914789 0.122848 0.979265 0.178912
H114  H     H_    0.896411 0.086368 0.996539 0.205016
O103  O     O_3   0.104395 0.037929 0.959390 -0.505679
C311  C     C_3   0.104569 0.019999 0.933442 -0.101428
H115  H     H_    0.094726 0.993274 0.935712 0.118186
H116  H     H_    0.130533 0.019416 0.923963 0.191938
H117  H     H_    0.087517 0.033646 0.918452 0.178545
O104  O     O_3   0.059237 0.896095 0.014779 -0.499922
C312  C     C_3   0.079015 0.901666 0.990274 -0.152528
H118  H     H_    0.065959 0.919630 0.975527 0.110107
H119  H     H_    0.085215 0.877147 0.979263 0.178915
H120  H     H_    0.103592 0.913632 0.996542 0.205015
O105  O     O_3   0.395600 0.537961 0.540596 -0.505689
C313  C     C_3   0.395427 0.520053 0.566550 -0.101450
H121  H     H_    0.405273 0.493327 0.564290 0.118193
H122  H     H_    0.369462 0.519479 0.576028 0.191946
H123  H     H_    0.412477 0.533713 0.581536 0.178556
O106  O     O_3   0.440757 0.396096 0.485234 -0.499902
C314  C     C_3   0.420995 0.401675 0.509748 -0.152524
H124  H     H_    0.434059 0.419647 0.524488 0.110148
H125  H     H_    0.414807 0.377161 0.520763 0.178899
H126  H     H_    0.396412 0.413637 0.503491 0.204981
O107  O     O_3   0.604403 0.462052 0.540603 -0.505688
C315  C     C_3   0.604579 0.479965 0.566558 -0.101465
H127  H     H_    0.594730 0.506690 0.564299 0.118187
H128  H     H_    0.630545 0.480545 0.576038 0.191940
H129  H     H_    0.587533 0.466307 0.581541 0.178563
O108  O     O_3   0.559246 0.603900 0.485259 -0.499900
C316  C     C_3   0.579010 0.598330 0.509776 -0.152539
H130  H     H_    0.565945 0.580366 0.524516 0.110144
H131  H     H_    0.585201 0.622849 0.520791 0.178922
H132  H     H_    0.603591 0.586363 0.503523 0.204961
O109  O     O_3   0.395604 0.462041 0.459392 -0.505680
C317  C     C_3   0.395425 0.479948 0.433437 -0.101453
H133  H     H_    0.405270 0.506674 0.435698 0.118191
H134  H     H_    0.369459 0.480523 0.423957 0.191940
H135  H     H_    0.412473 0.466287 0.418453 0.178555
O110  O     O_3   0.440758 0.603909 0.514757 -0.499915
C318  C     C_3   0.420993 0.598333 0.490241 -0.152544
H136  H     H_    0.434057 0.580365 0.475499 0.110147
H137  H     H_    0.414800 0.622849 0.479229 0.178924
H138  H     H_    0.396413 0.586368 0.496494 0.204986
O111  O     O_3   0.604393 0.537957 0.459408 -0.505665
C319  C     C_3   0.604568 0.520046 0.433451 -0.101434
H139  H     H_    0.594727 0.493319 0.435708 0.118191
H140  H     H_    0.630532 0.519472 0.423972 0.191943
H141  H     H_    0.587515 0.533702 0.418468 0.178547
O112  O     O_3   0.559245 0.396095 0.514754 -0.499919
C320  C     C_3   0.579010 0.401665 0.490242 -0.152532
H142  H     H_    0.565946 0.419628 0.475498 0.110142
H143  H     H_    0.585204 0.377145 0.479229 0.178926
H144  H     H_    0.603590 0.413631 0.496500 0.204992
Cl17  Cl    Cl    0.820254 0.049818 0.041462 -0.572670
Cl18  Cl    Cl    0.933321 0.820194 0.980819 -0.558642
Cl19  Cl    Cl    0.179749 0.950193 0.041477 -0.572620
Cl20  Cl    Cl    0.066681 0.179800 0.980849 -0.558653
Cl21  Cl    Cl    0.820260 0.950177 0.958515 -0.572664
Cl22  Cl    Cl    0.933322 0.179810 0.019175 -0.558583
Cl23  Cl    Cl    0.179738 0.049816 0.958541 -0.572714
Cl24  Cl    Cl    0.066684 0.820195 0.019161 -0.558612
Cl25  Cl    Cl    0.320255 0.549846 0.541439 -0.572668
Cl26  Cl    Cl    0.433309 0.320195 0.480848 -0.558638
Cl27  Cl    Cl    0.679749 0.450166 0.541454 -0.572623
Cl28  Cl    Cl    0.566694 0.679800 0.480880 -0.558650
Cl29  Cl    Cl    0.320260 0.450150 0.458538 -0.572658
Cl30  Cl    Cl    0.433309 0.679810 0.519144 -0.558591
Cl31  Cl    Cl    0.679737 0.549846 0.458563 -0.572699
Cl32  Cl    Cl    0.566695 0.320195 0.519132 -0.558616
O113  O     O_3   0.786255 0.027069 0.953983 -0.532381
C321  C     C_3   0.790091 0.062767 0.958002 -0.208568
H145  H     H_    0.805432 0.068476 0.977237 0.166096
H146  H     H_    0.764864 0.075940 0.959147 0.200312
H147  H     H_    0.804076 0.073502 0.939631 0.182627
O114  O     O_3   0.035492 0.786028 0.958209 -0.539454
C322  C     C_3   0.014590 0.789087 0.934082 -0.186553
H148  H     H_    0.990984 0.803976 0.938768 0.174615
H149  H     H_    0.007886 0.763467 0.925196 0.202301
H150  H     H_    0.028951 0.803339 0.917625 0.185875
O115  O     O_3   0.213723 0.972910 0.954001 -0.532411
C323  C     C_3   0.209894 0.937212 0.958015 -0.208598
H151  H     H_    0.194568 0.931504 0.977255 0.166111
H152  H     H_    0.235124 0.924042 0.959150 0.200330
H153  H     H_    0.195897 0.926473 0.939647 0.182620
O116  O     O_3   0.964498 0.213950 0.958228 -0.539433
C324  C     C_3   0.985396 0.210870 0.934104 -0.186575
H154  H     H_    0.008999 0.195977 0.938796 0.174594
H155  H     H_    0.992107 0.236483 0.925214 0.202277
H156  H     H_    0.971031 0.196611 0.917648 0.185871
O117  O     O_3   0.786277 0.972916 0.045995 -0.532345
C325  C     C_3   0.790135 0.937221 0.041968 -0.208581
H157  H     H_    0.805483 0.931528 0.022736 0.166079
H158  H     H_    0.764916 0.924035 0.040812 0.200259
H159  H     H_    0.804123 0.926487 0.060340 0.182628
O118  O     O_3   0.035498 0.213963 0.041795 -0.539524
C326  C     C_3   0.014607 0.210919 0.065925 -0.186596
H160  H     H_    0.990987 0.196048 0.061242 0.174633
H161  H     H_    0.007924 0.236544 0.074814 0.202339
H162  H     H_    0.028966 0.196654 0.082380 0.185866
O119  O     O_3   0.213744 0.027091 0.046015 -0.532309
C327  C     C_3   0.209891 0.062786 0.041992 -0.208547
H163  H     H_    0.194537 0.068478 0.022762 0.166073
H164  H     H_    0.235112 0.075967 0.040836 0.200262
H165  H     H_    0.195912 0.073527 0.060367 0.182632
O120  O     O_3   0.964514 0.786059 0.041776 -0.539511
C328  C     C_3   0.985412 0.789122 0.065904 -0.186592
H166  H     H_    0.009027 0.803995 0.061219 0.174635
H167  H     H_    0.992103 0.763504 0.074797 0.202326
H168  H     H_    0.971056 0.803394 0.082357 0.185860
O121  O     O_3   0.286256 0.527039 0.453971 -0.532376
C329  C     C_3   0.290092 0.562740 0.457974 -0.208565
H169  H     H_    0.305434 0.568461 0.477207 0.166096
H170  H     H_    0.264864 0.575914 0.459114 0.200308
H171  H     H_    0.304076 0.573463 0.439598 0.182628
O122  O     O_3   0.535465 0.286029 0.458194 -0.539459
C330  C     C_3   0.514550 0.289086 0.434075 -0.186557
H172  H     H_    0.490945 0.303974 0.438771 0.174615
H173  H     H_    0.507843 0.263465 0.425191 0.202304
H174  H     H_    0.528900 0.303340 0.417612 0.185877
O123  O     O_3   0.713723 0.472944 0.453988 -0.532400
C331  C     C_3   0.709893 0.437243 0.457985 -0.208596
H175  H     H_    0.694565 0.431522 0.477221 0.166107
H176  H     H_    0.735123 0.424072 0.459115 0.200325
H177  H     H_    0.695898 0.426517 0.439611 0.182622
O124  O     O_3   0.464527 0.713950 0.458212 -0.539441
C332  C     C_3   0.485441 0.710872 0.434097 -0.186584
H178  H     H_    0.509042 0.695981 0.438798 0.174597
H179  H     H_    0.492154 0.736485 0.425210 0.202284
H180  H     H_    0.471087 0.696611 0.417634 0.185873
O125  O     O_3   0.286277 0.472947 0.546007 -0.532350
C333  C     C_3   0.290133 0.437249 0.541997 -0.208583
H181  H     H_    0.305480 0.431542 0.522767 0.166084
H182  H     H_    0.264913 0.424064 0.540848 0.200264
H183  H     H_    0.304122 0.426527 0.560373 0.182628
O126  O     O_3   0.535470 0.713963 0.541811 -0.539521
C334  C     C_3   0.514563 0.710919 0.565931 -0.186600
H184  H     H_    0.490948 0.696047 0.561238 0.174631
H185  H     H_    0.507874 0.736544 0.574816 0.202337
H186  H     H_    0.528912 0.696655 0.582393 0.185869
O127  O     O_3   0.713743 0.527060 0.546027 -0.532317
C335  C     C_3   0.709892 0.562758 0.542022 -0.208553
H187  H     H_    0.694540 0.568465 0.522794 0.166078
H188  H     H_    0.735114 0.575939 0.540873 0.200266
H189  H     H_    0.695913 0.573487 0.560401 0.182632
O128  O     O_3   0.464538 0.286059 0.541789 -0.539507
C336  C     C_3   0.485450 0.289121 0.565910 -0.186596
H190  H     H_    0.509062 0.303994 0.561214 0.174631
H191  H     H_    0.492146 0.263503 0.574799 0.202326
H192  H     H_    0.471104 0.303392 0.582368 0.185863
O129  O     O_3   0.715926 0.024430 0.952644 -0.504529
C337  C     C_3   0.709558 0.996930 0.933995 -0.198554
H193  H     H_    0.688804 0.980247 0.942239 0.116088
H194  H     H_    0.732995 0.981528 0.929622 0.183401
H195  H     H_    0.700657 0.007652 0.913569 0.192523
O130  O     O_3   0.036920 0.714987 0.958680 -0.508376
C338  C     C_3   0.070478 0.709078 0.968337 -0.173726
H196  H     H_    0.070795 0.688292 0.984405 0.121588
H197  H     H_    0.082680 0.732831 0.976810 0.176781
H198  H     H_    0.086181 0.700228 0.950237 0.202066
O131  O     O_3   0.284052 0.975548 0.952653 -0.504534
C339  C     C_3   0.290404 0.003042 0.934003 -0.198540
H199  H     H_    0.311159 0.019734 0.942245 0.116101
H200  H     H_    0.266962 0.018437 0.929634 0.183423
H201  H     H_    0.299298 0.992316 0.913576 0.192526
O132  O     O_3   0.963068 0.284990 0.958692 -0.508353
C340  C     C_3   0.929515 0.290911 0.968353 -0.173730
H202  H     H_    0.929208 0.311710 0.984415 0.121586
H203  H     H_    0.917314 0.267166 0.976835 0.176756
H204  H     H_    0.913804 0.299748 0.950252 0.202064
O133  O     O_3   0.715951 0.975555 0.047343 -0.504475
C341  C     C_3   0.709564 0.003060 0.065982 -0.198503
H205  H     H_    0.688787 0.019718 0.057735 0.116084
H206  H     H_    0.732986 0.018489 0.070344 0.183307
H207  H     H_    0.700685 0.992343 0.086414 0.192533
O134  O     O_3   0.036931 0.285008 0.041325 -0.508418
C342  C     C_3   0.070501 0.290865 0.031683 -0.173772
H208  H     H_    0.070849 0.311622 0.015591 0.121580
H209  H     H_    0.082686 0.267084 0.023245 0.176950
H210  H     H_    0.086200 0.299729 0.049783 0.202049
O135  O     O_3   0.284070 0.024449 0.047356 -0.504463
C343  C     C_3   0.290486 0.996945 0.065984 -0.198511
H211  H     H_    0.311269 0.980303 0.057728 0.116080
H212  H     H_    0.267077 0.981500 0.070346 0.183238
H213  H     H_    0.299369 0.007666 0.086418 0.192535
O136  O     O_3   0.963081 0.715016 0.041315 -0.508402
C344  C     C_3   0.929513 0.709137 0.031667 -0.173782
H214  H     H_    0.929174 0.688359 0.015588 0.121589
H215  H     H_    0.917323 0.732903 0.023212 0.176880
H216  H     H_    0.913815 0.700291 0.049769 0.202053
O137  O     O_3   0.215927 0.524399 0.452633 -0.504522
C345  C     C_3   0.209556 0.496886 0.433998 -0.198560
H217  H     H_    0.188798 0.480212 0.442250 0.116090
H218  H     H_    0.232990 0.481476 0.429634 0.183386
H219  H     H_    0.200657 0.507593 0.413566 0.192524
O138  O     O_3   0.536894 0.214987 0.458664 -0.508382
C346  C     C_3   0.570459 0.209082 0.468306 -0.173726
H220  H     H_    0.570789 0.188298 0.484376 0.121590
H221  H     H_    0.582665 0.232837 0.476772 0.176792
H222  H     H_    0.586150 0.200232 0.450199 0.202070
O139  O     O_3   0.784052 0.475583 0.452642 -0.504528
C347  C     C_3   0.790410 0.503092 0.434007 -0.198545
H223  H     H_    0.811169 0.519771 0.442257 0.116103
H224  H     H_    0.766971 0.518496 0.429648 0.183401
H225  H     H_    0.799300 0.492380 0.413574 0.192529
O140  O     O_3   0.463096 0.784990 0.458675 -0.508362
C348  C     C_3   0.429535 0.790906 0.468318 -0.173727
H226  H     H_    0.429214 0.811702 0.484382 0.121585
H227  H     H_    0.417330 0.767158 0.476791 0.176771
H228  H     H_    0.413838 0.799745 0.450210 0.202067
O141  O     O_3   0.215951 0.475587 0.547354 -0.504482
C349  C     C_3   0.209566 0.503104 0.565981 -0.198514
H229  H     H_    0.188792 0.519759 0.557726 0.116087
H230  H     H_    0.232990 0.518532 0.570337 0.183320
H231  H     H_    0.200685 0.492400 0.586417 0.192530
O142  O     O_3   0.536903 0.785007 0.541342 -0.508420
C350  C     C_3   0.570480 0.790866 0.531715 -0.173762
H232  H     H_    0.570837 0.811626 0.515625 0.121584
H233  H     H_    0.582670 0.767087 0.523280 0.176939
H234  H     H_    0.586167 0.799728 0.549823 0.202056
O143  O     O_3   0.784069 0.524416 0.547367 -0.504472
C351  C     C_3   0.790480 0.496901 0.565985 -0.198526
H235  H     H_    0.811259 0.480258 0.557721 0.116083
H236  H     H_    0.767066 0.481459 0.570340 0.183266
H237  H     H_    0.799366 0.507607 0.586422 0.192531
O144  O     O_3   0.463104 0.215015 0.541329 -0.508404
C352  C     C_3   0.429531 0.209136 0.531694 -0.173775
H238  H     H_    0.429183 0.188357 0.515616 0.121592
H239  H     H_    0.417336 0.232901 0.523243 0.176874
H240  H     H_    0.413844 0.200291 0.549802 0.202060
O145  O     O_3   0.676318 0.938886 0.010228 -0.487216
C353  C     C_3   0.684569 0.922752 0.984440 -0.191003
H241  H     H_    0.706469 0.935858 0.974133 0.128195
H242  H     H_    0.662309 0.921365 0.969784 0.155559
H243  H     H_    0.692655 0.895986 0.988968 0.206787
O146  O     O_3   0.021586 0.674901 0.048242 -0.484424
C354  C     C_3   0.056425 0.683772 0.046076 -0.194272
H244  H     H_    0.059817 0.706211 0.031866 0.129981
H245  H     H_    0.072575 0.661802 0.038972 0.155026
H246  H     H_    0.065661 0.691534 0.067291 0.207283
O147  O     O_3   0.323682 0.061110 0.010238 -0.487217
C355  C     C_3   0.315405 0.077231 0.984453 -0.190989
H247  H     H_    0.293496 0.064120 0.974157 0.128212
H248  H     H_    0.337651 0.078612 0.969786 0.155528
H249  H     H_    0.307322 0.103999 0.988983 0.206785
O148  O     O_3   0.978429 0.325123 0.048251 -0.484410
C356  C     C_3   0.943590 0.316249 0.046086 -0.194305
H250  H     H_    0.940195 0.293803 0.031878 0.129982
H251  H     H_    0.927437 0.338215 0.038979 0.155008
H252  H     H_    0.934360 0.308498 0.067302 0.207286
O149  O     O_3   0.676314 0.061103 0.989766 -0.487217
C357  C     C_3   0.684576 0.077235 0.015553 -0.191033
H253  H     H_    0.706477 0.064125 0.025860 0.128198
H254  H     H_    0.662320 0.078626 0.030210 0.155569
H255  H     H_    0.692663 0.104000 0.011026 0.206793
O150  O     O_3   0.021574 0.325094 0.951763 -0.484426
C358  C     C_3   0.056408 0.316195 0.953936 -0.194234
H256  H     H_    0.059782 0.293743 0.968135 0.130013
H257  H     H_    0.072571 0.338148 0.961056 0.154956
H258  H     H_    0.065641 0.308441 0.932720 0.207271
O151  O     O_3   0.323687 0.938888 0.989762 -0.487206
C359  C     C_3   0.315445 0.922759 0.015549 -0.191059
H259  H     H_    0.293552 0.935871 0.025867 0.128183
H260  H     H_    0.337712 0.921367 0.030197 0.155591
H261  H     H_    0.307353 0.895994 0.011019 0.206792
O152  O     O_3   0.978408 0.674883 0.951757 -0.484419
C360  C     C_3   0.943575 0.683780 0.953930 -0.194261
H262  H     H_    0.940203 0.706237 0.968128 0.130011
H263  H     H_    0.927415 0.661829 0.961051 0.154954
H264  H     H_    0.934334 0.691523 0.932714 0.207278
O153  O     O_3   0.176317 0.438893 0.510255 -0.487218
C361  C     C_3   0.184567 0.422741 0.484475 -0.191012
H265  H     H_    0.206466 0.435840 0.474160 0.128193
H266  H     H_    0.162306 0.421343 0.469821 0.155563
H267  H     H_    0.192654 0.395978 0.489015 0.206787
O154  O     O_3   0.521615 0.174902 0.548232 -0.484431
C362  C     C_3   0.556453 0.183773 0.546051 -0.194288
H268  H     H_    0.559836 0.206213 0.531841 0.129987
H269  H     H_    0.572599 0.161803 0.538940 0.155033
H270  H     H_    0.565701 0.191535 0.567262 0.207277
O155  O     O_3   0.823684 0.561104 0.510268 -0.487217
C363  C     C_3   0.815410 0.577245 0.484491 -0.191003
H271  H     H_    0.793503 0.564141 0.474186 0.128205
H272  H     H_    0.837658 0.578639 0.469828 0.155543
H273  H     H_    0.807325 0.604009 0.489035 0.206784
O156  O     O_3   0.478396 0.825122 0.548241 -0.484417
C364  C     C_3   0.443558 0.816249 0.546059 -0.194317
H274  H     H_    0.440173 0.793801 0.531851 0.129989
H275  H     H_    0.427410 0.838214 0.538943 0.155014
H276  H     H_    0.434314 0.808499 0.567270 0.207279
O157  O     O_3   0.176313 0.561097 0.489737 -0.487219
C365  C     C_3   0.184574 0.577247 0.515517 -0.191029
H277  H     H_    0.206476 0.564144 0.525830 0.128198
H278  H     H_    0.162319 0.578648 0.530173 0.155571
H279  H     H_    0.192661 0.604008 0.510977 0.206792
O158  O     O_3   0.521608 0.825093 0.451774 -0.484431
C366  C     C_3   0.556441 0.816196 0.453962 -0.194244
H280  H     H_    0.559807 0.793745 0.468164 0.130012
H281  H     H_    0.572598 0.838150 0.461088 0.154971
H282  H     H_    0.565689 0.808441 0.432751 0.207267
O159  O     O_3   0.823687 0.438897 0.489732 -0.487208
C367  C     C_3   0.815444 0.422748 0.515511 -0.191052
H283  H     H_    0.793550 0.435852 0.525834 0.128186
H284  H     H_    0.837710 0.421347 0.530160 0.155588
H285  H     H_    0.807353 0.395986 0.510967 0.206791
O160  O     O_3   0.478378 0.174883 0.451765 -0.484424
C368  C     C_3   0.443546 0.183777 0.453952 -0.194271
H286  H     H_    0.440180 0.206234 0.468152 0.130009
H287  H     H_    0.427392 0.161825 0.461078 0.154969
H288  H     H_    0.434293 0.191522 0.432739 0.207275
Cl33  Cl    Cl    0.603507 0.930209 0.015774 -0.482915
Cl34  Cl    Cl    0.023459 0.599456 0.054930 -0.579850
Cl35  Cl    Cl    0.396495 0.069795 0.015773 -0.482872
Cl36  Cl    Cl    0.976563 0.400571 0.054934 -0.579875
Cl37  Cl    Cl    0.603501 0.069787 0.984228 -0.482843
Cl38  Cl    Cl    0.023447 0.400537 0.945072 -0.579818
Cl39  Cl    Cl    0.396499 0.930212 0.984207 -0.482884
Cl40  Cl    Cl    0.976535 0.599437 0.945071 -0.579876
Cl41  Cl    Cl    0.103505 0.430221 0.515805 -0.482891
Cl42  Cl    Cl    0.523493 0.099457 0.554920 -0.579852
Cl43  Cl    Cl    0.896498 0.569783 0.515807 -0.482853
Cl44  Cl    Cl    0.476525 0.900570 0.554923 -0.579882
Cl45  Cl    Cl    0.103499 0.569776 0.484196 -0.482806
Cl46  Cl    Cl    0.523486 0.900536 0.445083 -0.579810
Cl47  Cl    Cl    0.896500 0.430225 0.484174 -0.482843
Cl48  Cl    Cl    0.476502 0.099437 0.445081 -0.579869

loop_
_geom_bond_atom_site_label_1
_geom_bond_atom_site_label_2
_ccdc_geom_bond_type
Cu8   O16   S    
C302  H90   S    
C141  C173  A    
C318  H136  S    
C8    O12   A    
O121  C329  S    
C148  Cl36  S    
C37   C69   A    
C326  H162  S    
C128  C272  S    
O101  C309  S    
C342  H208  S    
C327  H165  S    
C143  C175  A    
C290  H52   S    
C234  C250  A    
C203  C227  A    
C368  H286  S    
C44   Cl20  S    
C223  C226  A    
C135  O151  S    
C107  C171  S    
C340  H202  S    
Cu3   O21   S    
C18   C65   S    
C255  O87   S    
C338  H197  S    
C345  H219  S    
C131  C171  A    
O146  C354  S    
C183  C197  A    
C105  C169  S    
C238  C254  A    
C92   O132  S    
C31   C47   A    
C195  C209  A    
C351  H235  S    
C98   O138  S    
C109  C173  S    
C322  H149  S    
O134  C342  S    
C130  C146  A    
C52   Cl28  S    
C143  O159  S    
C346  H220  S    
C74   C114  A    
C81   C117  A    
Cu9   O51   S    
C352  H240  S    
O104  C312  S    
C93   O133  S    
C83   C119  A    
O126  C334  S    
Cu6   O30   S    
C8    C168  S    
C281  H27   S    
C320  H143  S    
C345  H217  S    
C102  C112  A    
C155  C167  A    
C291  H55   S    
C288  H47   S    
C353  H243  S    
C138  C174  A    
C132  O148  S    
C160  C166  A    
C144  C160  A    
C229  Cl13  S    
C208  C216  A    
C22   C69   S    
C129  C145  A    
C239  O71   S    
C311  H117  S    
C33   C69   A    
C151  C163  A    
C196  C210  A    
C138  C154  A    
C12   C238  A    
C256  C268  A    
C35   C71   A    
Cu8   O28   S    
C156  Cl44  S    
C329  H170  S    
C82   C98   A    
C42   C58   A    
Cu11  O60   S    
C259  O91   S    
C142  C158  A    
C363  H273  S    
C77   C113  A    
C42   Cl18  S    
C343  H211  S    
C136  C152  A    
C45   Cl21  S    
C285  H37   S    
C358  H258  S    
C297  H74   S    
C16   C248  A    
C342  H210  S    
C26   O98   S    
C21   C72   S    
C9    C233  A    
O83   C291  S    
C84   C100  A    
C355  H249  S    
C91   C107  A    
C274  H4    S    
C330  H174  S    
C185  N5    A    
C256  O88   S    
C154  C166  A    
C25   C41   A    
C300  H83   S    
O110  C318  S    
C192  O48   S    
C312  H120  S    
C87   O127  S    
C34   O106  S    
C82   O122  S    
Cu10  O55   S    
C316  H130  S    
C28   C44   A    
C253  C267  A    
C128  O32   A    
C253  O85   S    
C309  H111  S    
C148  C164  A    
C191  N7    A    
C137  C173  A    
C313  H121  S    
C197  C211  A    
C96   O136  S    
Cu6   O26   S    
O147  C355  S    
C303  H93   S    
C140  C176  A    
C254  C268  A    
O160  C368  S    
C319  H140  S    
O90   C298  S    
C137  C153  A    
C177  O33   S    
C202  C214  A    
C328  H168  S    
C143  C159  A    
C3    O7    A    
C10   N7    S    
C179  O35   S    
C140  C156  A    
C14   C244  A    
C304  H95   S    
C159  Cl47  S    
C351  H236  S    
C47   Cl23  S    
C335  H189  S    
C35   C51   A    
C324  H154  S    
C56   C62   A    
C334  H186  S    
C75   C115  A    
C357  H253  S    
C82   C118  A    
C219  C230  A    
O67   C275  S    
Cu1   O17   S    
O111  C319  S    
C368  H288  S    
C89   O129  S    
C299  H79   S    
C49   Cl25  S    
C179  C193  A    
C340  H204  S    
Cu12  O62   S    
C350  H233  S    
O102  C310  S    
C51   Cl27  S    
C177  C195  A    
C361  H267  S    
C330  H173  S    
C39   O111  S    
O91   C299  S    
C126  C270  S    
C218  Cl2   S    
C315  H127  S    
C84   O124  S    
C275  H8    S    
C91   O131  S    
O94   C302  S    
C73   C89   A    
C225  Cl9   S    
O69   C277  S    
C281  H25   S    
C64   C120  S    
C324  H156  S    
C6    O16   A    
C307  H103  S    
C234  O66   S    
C12   N5    S    
C130  O146  S    
C232  Cl16  S    
O80   C288  S    
C104  C110  A    
C177  N1    A    
C293  H61   S    
C145  C161  A    
C222  C227  A    
C78   C94   A    
C339  H201  S    
C182  C200  A    
C46   Cl22  S    
C188  C202  A    
O88   C296  S    
C159  C167  A    
C36   O108  S    
C75   O115  S    
C248  O80   S    
C206  C230  A    
C277  H13   S    
Cu8   O32   S    
C47   C59   A    
C12   C240  A    
O132  C340  S    
C244  O76   S    
C264  O96   S    
O125  C333  S    
C158  Cl46  S    
C318  H138  S    
C144  C174  A    
C238  O70   S    
C39   C71   A    
C305  H97   S    
C188  O44   S    
Cu11  O58   S    
C337  H194  S    
C132  C172  A    
C16   N1    S    
C5    O9    A    
C273  H3    S    
C343  H213  S    
C247  C263  A    
Cu3   O5    S    
C219  Cl3   S    
C248  C264  A    
C7    O11   A    
C131  O147  S    
C19   O53   A    
C79   C115  A    
C9    C235  A    
O96   C304  S    
C205  C229  A    
C282  H28   S    
C244  C260  A    
C301  H86   S    
C287  H44   S    
C245  C261  A    
C323  H151  S    
C2    C162  S    
C195  C219  A    
C320  H142  S    
C178  O34   S    
C235  O67   S    
C189  O45   S    
C284  H34   S    
Cu10  O53   S    
C193  C217  A    
C290  H53   S    
C40   C70   A    
C220  C229  A    
C22   O62   A    
C181  N3    A    
C103  C111  A    
O148  C356  S    
C28   C68   A    
C81   O121  S    
C327  H164  S    
C197  C221  A    
C334  H185  S    
C348  H226  S    
Cu4   O4    S    
Cu6   Cu8   S    
Cu7   O13   S    
C156  C168  A    
C210  C215  A    
C204  C214  A    
O124  C332  S    
C63   C119  S    
C19   C66   S    
O141  C349  S    
C249  C265  A    
O103  C311  S    
C273  H1    S    
C367  H283  S    
C361  H266  S    
C252  O84   S    
C366  H280  S    
C14   C242  A    
C53   C61   A    
C92   C108  A    
C11   N6    S    
C149  Cl37  S    
O87   C295  S    
O68   C276  S    
C346  H221  S    
C305  H99   S    
C101  O141  S    
C325  H159  S    
C276  H12   S    
C125  O25   A    
C344  H215  S    
C131  C147  A    
C289  H49   S    
C103  O143  S    
C198  C212  A    
C251  C265  A    
C329  H171  S    
C299  H81   S    
C43   C59   A    
C37   C53   A    
Cu12  O64   S    
C140  O156  S    
C7    O15   A    
C134  C172  A    
O145  C353  S    
C306  H102  S    
C180  N2    A    
C106  C170  S    
C23   C70   S    
C55   C63   A    
C236  C252  A    
C315  H129  S    
C292  H58   S    
C20   O52   A    
C261  O93   S    
C295  H67   S    
C88   C104  A    
C53   Cl29  S    
C158  C168  A    
C310  H114  S    
C321  H146  S    
C110  C174  S    
C190  O46   S    
C45   C57   A    
C38   C72   A    
C240  C256  A    
C242  O74   S    
O82   C290  S    
C96   C106  A    
C26   C66   A    
C307  H105  S    
C279  H19   S    
C260  O92   S    
C363  H272  S    
C325  H157  S    
C157  C165  A    
C74   O114  S    
C50   Cl26  S    
C339  H199  S    
C274  H6    S    
C57   C113  S    
C298  H77   S    
C147  Cl35  S    
C179  N1    A    
C367  H285  S    
C16   C246  A    
C335  H187  S    
C362  H269  S    
C321  H147  S    
C355  H248  S    
C349  H230  S    
C367  H284  S    
C254  O86   S    
C87   C119  A    
C356  H250  S    
C152  Cl40  S    
C27   C43   A    
C194  C210  A    
C97   C109  A    
O99   C307  S    
C139  C155  A    
C99   C111  A    
O112  C320  S    
C223  Cl7   S    
C289  H51   S    
C304  H94   S    
C56   Cl32  S    
C155  Cl43  S    
O156  C364  S    
C262  O94   S    
Cu1   O1    S    
C212  C213  A    
C280  H24   S    
C296  H71   S    
C233  O65   S    
Cu3   O3    S    
Cu1   O23   S    
C29   C65   A    
C252  C266  A    
C283  H31   S    
C112  C176  S    
C136  C170  A    
C317  H133  S    
C365  H278  S    
C24   O60   A    
C291  H56   S    
C123  O23   A    
C17   O49   A    
C60   C116  S    
C349  H231  S    
C257  C269  A    
C88   C118  A    
C86   C102  A    
C323  H153  S    
C320  H144  S    
C359  H259  S    
C26   C42   A    
C276  H11   S    
O151  C359  S    
C284  H36   S    
C302  H89   S    
C7    C167  S    
C157  Cl45  S    
C313  H123  S    
C153  C165  A    
C30   C46   A    
C78   C116  A    
C303  H92   S    
C259  C269  A    
C348  H228  S    
C231  Cl15  S    
O139  C347  S    
C342  H209  S    
C311  H115  S    
C365  H279  S    
C150  C164  A    
C36   C52   A    
C178  C196  A    
C19   O51   A    
C1    O1    A    
C314  H126  S    
C227  Cl11  S    
C366  H281  S    
C301  H85   S    
O66   C274  S    
C3    O3    A    
C147  C163  A    
O113  C321  S    
C160  Cl48  S    
C341  H205  S    
C48   Cl24  S    
C55   Cl31  S    
C108  C172  S    
C21   O63   A    
C74   C90   A    
C54   Cl30  S    
C183  N3    A    
Cu9   O50   S    
Cu1   Cu3   S    
C41   Cl17  S    
Cu4   O24   S    
C247  O79   S    
C127  O29   A    
C260  C270  A    
O86   C294  S    
C30   C68   A    
C261  C271  A    
C27   C67   A    
Cu2   O18   S    
C31   O103  S    
C262  C272  A    
C211  C214  A    
C236  O68   S    
O84   C292  S    
C54   C64   A    
C121  O17   A    
C288  H46   S    
C33   C49   A    
C89   C105  A    
C306  H100  S    
C58   C114  S    
C133  O149  S    
C130  C170  A    
C86   C120  A    
O89   C297  S    
C32   O104  S    
C295  H69   S    
Cu5   O31   S    
C36   C72   A    
O92   C300  S    
C90   O130  S    
C181  C199  A    
C340  H203  S    
C281  H26   S    
C6    C166  S    
O73   C281  S    
C98   C110  A    
C316  H132  S    
C242  C258  A    
Cu11  O59   S    
C294  H64   S    
C279  H21   S    
Cu4   O20   S    
C249  O81   S    
C224  C225  A    
Cu5   O15   S    
C343  H212  S    
O157  C365  S    
C294  H66   S    
C233  C249  A    
C350  H232  S    
C202  C226  A    
C364  H274  S    
C178  N2    A    
C146  C162  A    
C122  C266  S    
O98   C306  S    
C4    O6    A    
C38   O110  S    
C287  H45   S    
C77   O117  S    
C237  C253  A    
C282  H29   S    
C245  O77   S    
C356  H252  S    
C246  O78   S    
C217  C232  A    
C300  H82   S    
C80   C114  A    
C312  H119  S    
C354  H245  S    
C4    C164  S    
C101  C109  A    
C326  H160  S    
C8    O14   A    
C304  H96   S    
C73   C113  A    
Cu9   Cu10  S    
C326  H161  S    
C191  C205  A    
C133  C169  A    
O78   C286  S    
C85   C101  A    
C313  H122  S    
C6    O10   A    
C368  H287  S    
C24   O64   A    
Cu2   O22   S    
C283  H33   S    
C190  N8    A    
C330  H172  S    
C347  H224  S    
O144  C352  S    
C40   C56   A    
C123  O21   A    
C129  O145  S    
C226  Cl10  S    
C135  C171  A    
C328  H167  S    
C34   C70   A    
C246  C262  A    
C359  H261  S    
C3    C163  S    
C39   C55   A    
C186  N6    A    
C364  H275  S    
O154  C362  S    
C251  O83   S    
C264  C272  A    
C83   C99   A    
O97   C305  S    
C32   C48   A    
C286  H41   S    
C278  H18   S    
C357  H254  S    
C137  O153  S    
O150  C358  S    
C263  C271  A    
Cu4   O8    S    
C299  H80   S    
C333  H181  S    
Cu5   O9    S    
C292  H59   S    
C338  H198  S    
C139  O155  S    
C151  Cl39  S    
C10   C234  A    
O119  C327  S    
Cu7   O11   S    
O130  C338  S    
C285  H38   S    
C61   C117  S    
C314  H124  S    
C138  O154  S    
C141  O157  S    
C302  H88   S    
C73   O113  S    
C250  C266  A    
C315  H128  S    
C146  Cl34  S    
C191  O47   S    
O123  C331  S    
C85   O125  S    
C145  Cl33  S    
O158  C366  S    
C322  H150  S    
C142  C176  A    
C255  C267  A    
C243  O75   S    
C353  H241  S    
C237  O69   S    
C362  H268  S    
C311  H116  S    
C357  H255  S    
C307  H104  S    
C80   C96   A    
C286  H40   S    
Cu1   O7    S    
C79   C95   A    
C308  H106  S    
C154  Cl42  S    
C293  H62   S    
O135  C343  S    
C17   O55   A    
C153  Cl41  S    
O95   C303  S    
C298  H78   S    
C282  H30   S    
C122  O20   A    
C51   C63   A    
C126  O26   A    
C243  C259  A    
C189  C207  A    
Cu3   O19   S    
C20   O56   A    
C201  C213  A    
C277  H14   S    
C230  Cl14  S    
C331  H175  S    
C15   C247  A    
C100  C112  A    
C317  H134  S    
C318  H137  S    
C52   C64   A    
C329  H169  S    
C305  H98   S    
C144  O160  S    
C149  C161  A    
C309  H109  S    
C121  C265  S    
C185  O41   S    
O159  C367  S    
C97   O137  S    
C347  H223  S    
C142  O158  S    
C293  H63   S    
C32   C66   A    
O122  C330  S    
C364  H276  S    
C187  O43   S    
C80   O120  S    
C17   C68   S    
C300  H84   S    
C29   O101  S    
C150  Cl38  S    
C10   C236  A    
C2    O8    A    
C100  O140  S    
C277  H15   S    
C323  H152  S    
C316  H131  S    
C333  H182  S    
C48   C58   A    
C309  H110  S    
Cu10  O54   S    
C317  H135  S    
C25   O97   S    
C187  C201  A    
C23   O59   A    
C207  C231  A    
Cu7   O29   S    
Cu2   O6    S    
Cu2   O2    S    
Cu10  O56   S    
C41   C57   A    
O155  C363  S    
C125  O27   A    
O128  C336  S    
C126  O28   A    
C76   O116  S    
C49   C61   A    
C5    O13   A    
C360  H262  S    
C83   O123  S    
C44   C60   A    
C135  C151  A    
C77   C93   A    
O136  C344  S    
C124  C268  S    
C228  Cl12  S    
Cu9   O52   S    
C30   O102  S    
C258  C270  A    
C273  H2    S    
C62   C118  S    
C333  H183  S    
C360  H263  S    
C31   C67   A    
C90   C106  A    
C182  N4    A    
C123  C267  S    
O107  C315  S    
C257  O89   S    
O72   C280  S    
C205  C215  A    
C336  H190  S    
C29   C45   A    
C324  H155  S    
C25   C65   A    
C220  Cl4   S    
O118  C326  S    
C222  Cl6   S    
C289  H50   S    
C134  O150  S    
C332  H179  S    
C152  C162  A    
C341  H206  S    
C278  H16   S    
O143  C351  S    
O140  C348  S    
Cu12  O61   S    
C350  H234  S    
C338  H196  S    
C240  O72   S    
C339  H200  S    
C336  H192  S    
C94   O134  S    
C306  H101  S    
O149  C357  S    
C2    O2    A    
C20   C67   S    
C139  C175  A    
O71   C279  S    
C85   C117  A    
C235  C251  A    
C334  H184  S    
C1    C161  S    
C275  H7    S    
C295  H68   S    
O109  C317  S    
C23   O61   A    
C322  H148  S    
C194  C218  A    
C278  H17   S    
C332  H178  S    
C297  H75   S    
C94   C108  A    
C200  C212  A    
C46   C60   A    
C241  C257  A    
C111  C175  S    
C129  C169  A    
O100  C308  S    
C198  C222  A    
C279  H20   S    
C308  H108  S    
C78   O118  S    
C181  O37   S    
C274  H5    S    
C186  O42   S    
C11   C239  A    
C298  H76   S    
C134  C150  A    
C122  O18   A    
O152  C360  S    
C15   N2    S    
C335  H188  S    
O93   C301  S    
C124  O24   A    
C353  H242  S    
C352  H239  S    
C321  H145  S    
C280  H22   S    
C331  H177  S    
C13   C241  A    
C15   C245  A    
O116  C324  S    
C38   C54   A    
C327  H163  S    
C102  O142  S    
C337  H193  S    
C184  O40   S    
C5    C165  S    
C303  H91   S    
C204  C228  A    
C296  H70   S    
C1    O5    A    
Cu2   Cu4   S    
O153  C361  S    
C347  H225  S    
C84   C120  A    
Cu6   O14   S    
C93   C105  A    
C288  H48   S    
C283  H32   S    
O106  C314  S    
C310  H113  S    
C183  O39   S    
C184  N4    A    
C354  H246  S    
O127  C335  S    
C331  H176  S    
C37   O109  S    
O81   C289  S    
Cu8   O12   S    
C21   O57   A    
C40   O112  S    
C345  H218  S    
C207  C215  A    
C196  C220  A    
C359  H260  S    
O138  C346  S    
C43   Cl19  S    
C284  H35   S    
C290  H54   S    
C34   C50   A    
C209  C216  A    
C319  H139  S    
C27   O99   S    
C200  C224  A    
C133  C149  A    
O108  C316  S    
O85   C293  S    
C286  H42   S    
O75   C283  S    
C348  H227  S    
C291  H57   S    
C360  H264  S    
C79   O119  S    
C241  O73   S    
C221  Cl5   S    
O133  C341  S    
C182  O38   S    
C319  H141  S    
C206  C216  A    
C125  C269  S    
C314  H125  S    
C13   C243  A    
C124  O22   A    
C104  O144  S    
C358  H256  S    
C361  H265  S    
C187  N5    A    
C358  H257  S    
C13   N4    S    
C193  C209  A    
C310  H112  S    
C351  H237  S    
C14   N3    S    
C192  N8    A    
C346  H222  S    
C250  O82   S    
C337  H195  S    
Cu9   O49   S    
C352  H238  S    
C224  Cl8   S    
C186  C204  A    
C308  H107  S    
C263  O95   S    
C258  O90   S    
C18   O50   A    
C95   C107  A    
C76   C92   A    
Cu12  O63   S    
C190  C208  A    
Cu6   O10   S    
C201  C225  A    
C208  C232  A    
C365  H277  S    
C127  O31   A    
Cu5   Cu7   S    
C203  C213  A    
C50   C62   A    
C87   C103  A    
C301  H87   S    
C280  H23   S    
C275  H9    S    
C185  C203  A    
Cu11  Cu12  S    
C180  C194  A    
C121  O19   A    
C341  H207  S    
C86   O126  S    
O74   C282  S    
C344  H214  S    
C332  H180  S    
C141  C157  A    
C88   O128  S    
C189  N7    A    
C297  H73   S    
C344  H216  S    
O70   C278  S    
C132  C148  A    
Cu5   O25   S    
O129  C337  S    
C4    O4    A    
C363  H271  S    
C336  H191  S    
C11   C237  A    
C188  N6    A    
O131  C339  S    
C294  H65   S    
C33   O105  S    
O142  C350  S    
C180  O36   S    
C75   C91   A    
C192  C206  A    
O117  C325  S    
C184  C198  A    
C362  H270  S    
C355  H247  S    
C349  H229  S    
C328  H166  S    
O79   C287  S    
C356  H251  S    
O65   C273  S    
C239  C255  A    
C22   O58   A    
C136  O152  S    
C312  H118  S    
C276  H10   S    
C287  H43   S    
C81   C97   A    
Cu7   O27   S    
C76   C116  A    
C128  O30   A    
C221  C228  A    
C199  C211  A    
O105  C313  S    
C296  H72   S    
C95   O135  S    
C218  C231  A    
C292  H60   S    
C285  H39   S    
Cu11  O57   S    
C35   O107  S    
C18   O54   A    
C199  C223  A    
O120  C328  S    
C28   O100  S    
C59   C115  S    
O77   C285  S    
C366  H282  S    
C354  H244  S    
O76   C284  S    
C325  H158  S    
C127  C271  S    
C9    N8    S    
C217  Cl1   S    
O114  C322  S    
O137  C345  S    
C99   O139  S    
O115  C323  S    
C24   C71   S    
