data_mof_unit_47675.cif
_audit_creation_date              2012-12-10T20:44:41-0500
_audit_creation_method            fapswitch 2.2
_symmetry_space_group_name_H-M    P1
_symmetry_Int_Tables_number       1
_space_group_crystal_system       triclinic
_cell_length_a                    9.897688
_cell_length_b                    10.690196
_cell_length_c                    16.713643
_cell_angle_alpha                 88.496681
_cell_angle_beta                  95.577642
_cell_angle_gamma                 89.517453
_cell_volume                      1759.3552459

loop_
_atom_site_label
_atom_site_type_symbol
_atom_type_description
_atom_site_fract_x
_atom_site_fract_y
_atom_site_fract_z
_atom_type_partial_charge
C1    C     C_R   0.500379 0.260518 0.500054 0.886561
C2    C     C_R   0.645844 0.482102 0.789039 -0.236798
C3    C     C_R   0.457632 0.647466 0.139552 0.211019
C4    C     C_R   0.479603 0.634720 0.224034 0.106384
C5    C     C_R   0.424461 0.540017 0.094815 0.218381
C6    C     C_R   0.464491 0.515377 0.260589 -0.094724
C7    C     C_R   0.425295 0.410603 0.215144 0.118570
C8    C     C_R   0.405546 0.424476 0.132124 -0.221644
C9    C     C_R   0.582399 0.064137 0.452685 0.113827
C10   C     C_R   0.498053 0.128902 0.499039 -0.140869
C11   C     C_R   0.400541 0.066402 0.539527 -0.226084
C12   C     C_R   0.518646 0.501668 0.653456 0.846490
C13   C     C_R   0.398491 0.936935 0.542421 0.177897
C14   C     C_R   0.495257 0.871789 0.501681 -0.117884
C15   C     C_R   0.581075 0.936380 0.454099 0.080046
C16   C     C_3   0.731745 0.927278 0.452468 -0.474906
C17   C     C_3   0.732747 0.069167 0.450765 -0.458298
C18   C     C_R   0.079653 0.414565 0.546487 0.133089
C19   C     C_R   0.060557 0.577839 0.449024 0.216814
C20   C     C_R   0.917368 0.576842 0.449585 -0.141333
C21   C     C_R   0.936995 0.414430 0.546122 0.150938
C22   C     C_3   0.943377 0.398725 0.635358 -0.066434
C23   C     C_R   0.499453 0.739522 0.502179 0.886011
C24   C     C_3   0.098605 0.400792 0.636381 -0.053372
C25   C     C_R   0.480956 0.502324 0.347026 0.917331
C26   C     C_R   0.529432 0.519474 0.739507 -0.020804
C27   C     C_R   0.420840 0.577214 0.772343 -0.231211
C28   C     C_R   0.424958 0.591376 0.854283 -0.171486
C29   C     C_R   0.537273 0.545551 0.904988 0.319028
C30   C     C_R   0.649479 0.495246 0.871869 -0.185101
H1    H     H_    0.784186 0.884861 0.508703 0.213438
H2    H     H_    0.760632 0.886599 0.395946 0.196889
H3    H     H_    0.785589 0.108864 0.505937 0.210420
H4    H     H_    0.737200 0.461735 0.910517 0.141491
H5    H     H_    0.332103 0.611107 0.734725 0.150222
N1    N     N_2   0.537190 0.543520 0.989289 -0.183801
N2    N     N_2   0.420431 0.543790 0.011097 -0.198404
N3    N     N_R   0.142860 0.499130 0.500540 -0.123557
N4    N     N_R   0.857210 0.499170 0.500530 -0.135432
O1    O     O_R   0.614690 0.316790 0.499990 -0.611845
O2    O     O_R   0.385350 0.316760 0.500000 -0.612707
O3    O     O_R   0.627460 0.498860 0.616130 -0.620659
O4    O     O_R   0.398120 0.498820 0.616130 -0.624488
O5    O     O_R   0.614650 0.683240 0.500000 -0.620753
O6    O     O_R   0.385310 0.683210 0.500010 -0.625918
O7    O     O_R   0.601880 0.501180 0.383870 -0.612265
O8    O     O_R   0.372540 0.501140 0.383870 -0.621214
Zn1   Zn    Zn3+2 0.653130 0.500020 0.499990 0.934415
Zn2   Zn    Zn3+2 0.346870 0.499980 0.500010 0.932270
C31   C     C_3   0.517488 0.745543 0.276456 -0.897840
H6    H     H_    0.616292 0.726496 0.312181 0.240634
H7    H     H_    0.528114 0.834634 0.242676 0.248931
H8    H     H_    0.438447 0.760487 0.318128 0.226317
C32   C     C_3   0.301032 0.872800 0.594061 -0.873568
H9    H     H_    0.356869 0.804696 0.636709 0.234190
H10   H     H_    0.248856 0.940573 0.630237 0.220089
H11   H     H_    0.221240 0.824194 0.555665 0.259833
H12   H     H_    0.761605 0.110425 0.393184 0.202270
C33   C     C_3   0.114747 0.670541 0.391484 -0.852548
H13   H     H_    0.224771 0.667707 0.390979 0.292866
H14   H     H_    0.070126 0.652279 0.329382 0.219185
H15   H     H_    0.085453 0.766740 0.407121 0.211218
H16   H     H_    0.854220 0.640361 0.410261 0.156978
H17   H     H_    0.902530 0.481980 0.663915 0.154167
C34   C     C_3   0.878206 0.276183 0.661184 -0.843137
H18   H     H_    0.906618 0.256700 0.726222 0.235534
H19   H     H_    0.766062 0.285174 0.651263 0.251748
H20   H     H_    0.909365 0.195737 0.626311 0.236312
H21   H     H_    0.143053 0.485858 0.664911 0.151908
C35   C     C_3   0.469018 0.773454 0.097269 -0.889388
H22   H     H_    0.443233 0.770449 0.031306 0.248365
H23   H     H_    0.397282 0.841310 0.120012 0.235526
H24   H     H_    0.574477 0.808116 0.108148 0.243057
C36   C     C_3   0.176351 0.281082 0.665970 -0.823161
H25   H     H_    0.140751 0.198920 0.630908 0.230901
H26   H     H_    0.286103 0.292960 0.660037 0.248437
H27   H     H_    0.163795 0.262883 0.730494 0.239336
H28   H     H_    0.731474 0.439540 0.764224 0.157625
C37   C     C_3   0.407672 0.283656 0.254334 -0.889691
H29   H     H_    0.379981 0.211424 0.209211 0.236883
H30   H     H_    0.503911 0.253600 0.289607 0.231689
H31   H     H_    0.325833 0.288266 0.295160 0.252532
H32   H     H_    0.338876 0.635191 0.878128 0.146723
H33   H     H_    0.379570 0.344325 0.095504 0.162425
H34   H     H_    0.331017 0.118469 0.572371 0.164117

loop_
_geom_bond_atom_site_label_1
_geom_bond_atom_site_label_2
_ccdc_geom_bond_type
C23   O6    A    
C5    N2    S    
C18   C21   A    
C19   C20   A    
C7    C8    A    
O8    Zn2   S    
N3    Zn2   S    
C16   H1    S    
C29   N1    S    
C26   C27   A    
C36   H26   S    
C18   C24   S    
C28   C29   A    
C12   O4    A    
C6    C25   S    
C15   C16   S    
C12   O3    A    
C1    O1    A    
C16   C17   S    
C34   H19   S    
C36   H27   S    
C31   H7    S    
C35   H22   S    
C9    C10   A    
C25   O8    A    
C17   H12   S    
C33   H13   S    
C13   C14   A    
C28   H32   S    
C17   H3    S    
O2    Zn2   S    
C24   H21   S    
O7    Zn1   S    
C32   H10   S    
C33   H14   S    
C31   H8    S    
C36   H25   S    
C30   H4    S    
C3    C35   S    
C4    C6    A    
C37   H30   S    
C20   N4    A    
O4    Zn2   S    
C19   C33   S    
C23   O5    A    
C4    C31   S    
C14   C23   S    
C22   C34   S    
C29   C30   A    
C2    H28   S    
C19   N3    A    
C5    C8    A    
C21   N4    A    
O6    Zn2   S    
C34   H20   S    
C35   H24   S    
C31   H6    S    
C2    C26   A    
O3    Zn1   S    
C9    C17   S    
C22   C24   S    
C3    C4    A    
C7    C37   S    
C13   C32   S    
C1    O2    A    
O1    Zn1   S    
C32   H9    S    
N1    N2    D    
C33   H15   S    
C8    H33   S    
C1    C10   S    
C3    C5    A    
C37   H31   S    
C6    C7    A    
C16   H2    S    
C2    C30   A    
C27   H5    S    
C20   H16   S    
C9    C15   A    
C11   C13   A    
C24   C36   S    
C11   H34   S    
C18   N3    A    
C10   C11   A    
C22   H17   S    
C37   H29   S    
C34   H18   S    
C12   C26   S    
C27   C28   A    
C14   C15   A    
C35   H23   S    
C21   C22   S    
C25   O7    A    
O5    Zn1   S    
N4    Zn1   S    
C32   H11   S    
