data_mof_unit_65863.cif
_audit_creation_date              2012-12-10T16:55:42-0500
_audit_creation_method            fapswitch 2.2
_symmetry_space_group_name_H-M    P1
_symmetry_Int_Tables_number       1
_space_group_crystal_system       triclinic
_cell_length_a                    7.774435
_cell_length_b                    8.621072
_cell_length_c                    10.502483
_cell_angle_alpha                 90.749121
_cell_angle_beta                  84.966327
_cell_angle_gamma                 93.102465
_cell_volume                      700.150993297

loop_
_atom_site_label
_atom_site_type_symbol
_atom_type_description
_atom_site_fract_x
_atom_site_fract_y
_atom_site_fract_z
_atom_type_partial_charge
C1    C     C_R   0.544384 0.794130 0.492745 0.943580
C2    C     C_3   0.500942 0.502952 0.877207 -0.138305
C3    C     C_3   0.366801 0.404877 0.048329 -0.225398
C4    C     C_3   0.633202 0.595135 0.951672 -0.225435
C5    C     C_2   0.559958 0.955118 0.467476 -0.097076
C6    C     C_2   0.440063 0.044895 0.532562 -0.097199
C7    C     C_3   0.688489 0.013374 0.354936 -0.410117
C8    C     C_3   0.763290 0.889731 0.263081 -0.761445
C9    C     C_3   0.311523 0.986632 0.645090 -0.410079
C10   C     C_3   0.236773 0.110290 0.736981 -0.761196
C11   C     C_R   0.455620 0.205881 0.507268 0.943635
C12   C     C_R   0.501105 0.502993 0.742477 0.897710
C13   C     C_R   0.498896 0.497012 0.257524 0.897747
C14   C     C_3   0.351335 0.552418 0.970200 0.531739
C15   C     C_3   0.648666 0.447597 0.029801 0.531735
C16   C     C_3   0.481934 0.644985 0.046809 -0.319424
C17   C     C_3   0.518068 0.355030 0.953193 -0.319435
C18   C     C_3   0.499060 0.497061 0.122793 -0.138310
Cl1   Cl    Cl    0.154579 0.629816 0.931194 -0.599706
Cl2   Cl    Cl    0.845405 0.370169 0.068802 -0.599729
H1    H     H_    0.461998 0.763076 0.086721 0.176087
H2    H     H_    0.621645 0.092624 0.295139 0.225160
H3    H     H_    0.800279 0.078642 0.393109 0.244655
H4    H     H_    0.340053 0.194423 0.763682 0.242748
H5    H     H_    0.134937 0.172043 0.693651 0.279150
H6    H     H_    0.175927 0.053748 0.825446 0.262415
H7    H     H_    0.199732 0.921415 0.606879 0.244629
H8    H     H_    0.378361 0.907339 0.704859 0.225144
H9    H     H_    0.538076 0.236952 0.913273 0.176094
H10   H     H_    0.258108 0.328356 0.091190 0.204609
H11   H     H_    0.741896 0.671654 0.908811 0.204620
H12   H     H_    0.014696 0.382477 0.404147 0.206896
H13   H     H_    0.985303 0.617522 0.595855 0.206901
H14   H     H_    0.865060 0.827958 0.306462 0.279184
H15   H     H_    0.660069 0.805593 0.236325 0.242822
H16   H     H_    0.824225 0.946309 0.174666 0.262462
N1    N     N_2   0.950320 0.457950 0.465730 -0.163567
N2    N     N_2   0.049680 0.542050 0.534270 -0.163562
O1    O     O_R   0.389250 0.738570 0.508410 -0.640662
O2    O     O_R   0.610750 0.261430 0.491590 -0.640678
O3    O     O_R   0.678390 0.711620 0.486450 -0.624785
O4    O     O_R   0.321610 0.288380 0.513550 -0.624784
O5    O     O_R   0.355460 0.513510 0.697030 -0.580848
O6    O     O_R   0.644540 0.486490 0.302970 -0.580853
O7    O     O_R   0.644600 0.486560 0.675070 -0.618579
O8    O     O_R   0.355400 0.513440 0.324930 -0.618574
Zn1   Zn    Zn3+2 0.306940 0.517990 0.514670 0.965017
Zn2   Zn    Zn3+2 0.693060 0.482010 0.485330 0.965004

loop_
_geom_bond_atom_site_label_1
_geom_bond_atom_site_label_2
_ccdc_geom_bond_type
C4    C16   S    
C15   C18   S    
C2    C4    S    
C5    C7    S    
C16   H1    S    
C3    H10   S    
C7    H2    S    
C17   H9    S    
C9    C10   S    
H13   N2    S    
C2    C12   S    
C10   H6    S    
C4    C15   S    
C7    C8    S    
C8    H14   S    
H12   N1    S    
N1    Zn2   S    
N2    Zn1   S    
N1    N2    D    
C3    C14   S    
C13   C18   S    
C6    C9    S    
C7    H3    S    
C5    C6    D    
C10   H5    S    
C1    O3    A    
O3    Zn2   S    
C3    C17   S    
C12   O5    A    
C14   C16   S    
O4    Zn1   S    
C15   Cl2   S    
C2    C14   S    
C1    C5    S    
C4    H11   S    
C1    O1    A    
C11   O2    A    
C9    H7    S    
C3    C18   S    
C16   C18   S    
C8    H16   S    
O7    Zn2   S    
C6    C11   S    
C15   C17   S    
O2    Zn2   S    
C13   O8    A    
C11   O4    A    
C10   H4    S    
O8    Zn1   S    
O1    Zn1   S    
O5    Zn1   S    
C14   Cl1   S    
C13   O6    A    
O6    Zn2   S    
C9    H8    S    
C12   O7    A    
C2    C17   S    
C8    H15   S    
