data_mof_unit_35467.cif
_audit_creation_date              2012-12-10T18:20:35-0500
_audit_creation_method            fapswitch 2.2
_symmetry_space_group_name_H-M    P1
_symmetry_Int_Tables_number       1
_space_group_crystal_system       triclinic
_cell_length_a                    14.077664
_cell_length_b                    13.584694
_cell_length_c                    14.914971
_cell_angle_alpha                 89.52806
_cell_angle_beta                  88.527239
_cell_angle_gamma                 83.705241
_cell_volume                      2834.17478388

loop_
_atom_site_label
_atom_site_type_symbol
_atom_type_description
_atom_site_fract_x
_atom_site_fract_y
_atom_site_fract_z
_atom_type_partial_charge
C1    C     C_R   0.501397 0.497875 0.326947 0.939992
C2    C     C_R   0.498843 0.500336 0.672929 0.921490
C3    C     C_R   0.494365 0.495437 0.953205 0.017884
C4    C     C_R   0.496878 0.494519 0.046652 0.026755
C5    C     C_R   0.545193 0.417097 0.904544 0.140959
C6    C     C_R   0.445453 0.572627 0.095149 0.143318
C7    C     C_R   0.390054 0.651405 0.957849 -0.195127
C8    C     C_R   0.595830 0.335422 0.042074 -0.204744
C9    C     C_R   0.391836 0.650010 0.050772 -0.229126
C10   C     C_R   0.593882 0.336704 0.949085 -0.216928
C11   C     C_R   0.805523 0.420407 0.533374 -0.135460
C12   C     C_R   0.194463 0.579300 0.466507 -0.105187
C13   C     C_R   0.791426 0.580511 0.466358 0.586091
C14   C     C_R   0.209072 0.421901 0.538054 0.571871
C15   C     C_R   0.891566 0.585139 0.471786 -0.194062
C16   C     C_R   0.108700 0.416511 0.533119 -0.243485
C17   C     C_R   0.949525 0.500827 0.501934 -0.086737
C18   C     C_R   0.050609 0.500018 0.501335 -0.082054
C19   C     C_R   0.906256 0.418003 0.534091 -0.109668
C20   C     C_R   0.093782 0.582698 0.468593 -0.091390
C21   C     C_R   0.935258 0.671441 0.448043 0.362590
C22   C     C_R   0.064861 0.331046 0.559817 0.381802
C23   C     C_R   0.516589 0.314311 0.500428 0.905737
C24   C     C_R   0.483457 0.685675 0.498355 0.887112
C25   C     C_R   0.035984 0.667135 0.438937 0.368843
C26   C     C_R   0.964433 0.334428 0.565920 0.393844
C27   C     C_1   0.471630 0.789010 0.490152 -0.183814
C28   C     C_1   0.528746 0.210673 0.500603 -0.172212
C29   C     C_2   0.461631 0.980256 0.478216 -0.158146
C30   C     C_2   0.540539 0.019044 0.498706 -0.165040
C31   C     C_1   0.537274 0.122899 0.500172 0.005307
C32   C     C_1   0.463645 0.876521 0.483188 0.003564
C33   C     C_R   0.546054 0.420198 0.811905 -0.347659
C34   C     C_R   0.447879 0.571852 0.187562 -0.355121
C35   C     C_R   0.496332 0.499886 0.768194 -0.165354
C36   C     C_R   0.503656 0.496459 0.231406 -0.162287
C37   C     C_R   0.445046 0.578359 0.814830 0.388431
C38   C     C_R   0.557961 0.419457 0.184881 0.399085
C39   C     C_R   0.442195 0.575373 0.908401 0.004639
C40   C     C_R   0.551019 0.415809 0.091488 0.006726
H1    H     H_    0.584694 0.360452 0.773408 0.154873
H2    H     H_    0.407234 0.630533 0.225855 0.160112
H3    H     H_    0.352086 0.709942 0.087937 0.152292
H4    H     H_    0.630769 0.275042 0.911975 0.142917
H5    H     H_    0.770808 0.357979 0.557943 0.183846
H6    H     H_    0.229188 0.641006 0.440321 0.191725
N1    N     N_R   0.750030 0.500040 0.500070 -0.163957
N2    N     N_R   0.249970 0.499960 0.499930 -0.150640
O1    O     O_R   0.580280 0.500020 0.367860 -0.645862
O2    O     O_R   0.419720 0.499980 0.632140 -0.594571
O3    O     O_R   0.419730 0.500030 0.367840 -0.620165
O4    O     O_R   0.580270 0.499970 0.632160 -0.632333
O5    O     O_R   0.591830 0.359650 0.500030 -0.641645
O6    O     O_R   0.408170 0.640350 0.499970 -0.621114
O7    O     O_R   0.431280 0.359660 0.500010 -0.561426
O8    O     O_R   0.568720 0.640340 0.499990 -0.576833
Zn1   Zn    Zn3+2 0.607200 0.499990 0.500020 0.936430
Zn2   Zn    Zn3+2 0.392800 0.500010 0.499980 0.978618
H7    H     H_    0.605688 0.973688 0.516943 0.161876
H8    H     H_    0.395975 0.025587 0.461157 0.152634
O9    O     O_3   0.397889 0.657431 0.768832 -0.645444
C41   C     C_3   0.460658 0.731190 0.756692 0.052873
H9    H     H_    0.515852 0.707706 0.704084 0.143105
H10   H     H_    0.497110 0.746096 0.820001 0.138435
C42   C     C_3   0.403535 0.827465 0.726910 -0.309783
H11   H     H_    0.369829 0.815740 0.661879 0.233741
H12   H     H_    0.345798 0.849273 0.777437 0.220960
C43   C     C_3   0.467290 0.911054 0.716845 -0.961296
H13   H     H_    0.496366 0.928139 0.782776 0.260110
H14   H     H_    0.424867 0.978685 0.691153 0.272180
H15   H     H_    0.527667 0.889752 0.669030 0.269675
O10   O     O_3   0.611215 0.345133 0.232129 -0.648660
C44   C     C_3   0.709504 0.359023 0.225406 0.078432
H16   H     H_    0.721710 0.438378 0.219098 0.119374
H17   H     H_    0.743088 0.319890 0.165647 0.138837
C45   C     C_3   0.759757 0.315157 0.308623 -0.297903
H18   H     H_    0.725025 0.350716 0.369466 0.257841
H19   H     H_    0.752839 0.234499 0.312559 0.224065
C46   C     C_3   0.865545 0.330814 0.306677 -0.987342
H20   H     H_    0.901959 0.296716 0.245769 0.266200
H21   H     H_    0.900192 0.295543 0.366690 0.273699
H22   H     H_    0.874001 0.411170 0.307340 0.259145
H23   H     H_    0.348583 0.712573 0.925000 0.182511
H24   H     H_    0.632279 0.271168 0.074664 0.173448
O11   O     O_3   0.735339 0.657815 0.426349 -0.609445
C47   C     C_3   0.719883 0.635066 0.335649 0.160028
H25   H     H_    0.643419 0.658288 0.322305 0.169726
H26   H     H_    0.734725 0.554901 0.320041 0.113856
C48   C     C_3   0.779854 0.692676 0.271282 -0.360800
H27   H     H_    0.769236 0.772733 0.288127 0.264037
H28   H     H_    0.856462 0.664795 0.277573 0.217104
C49   C     C_3   0.752096 0.679750 0.174132 -0.999973
H29   H     H_    0.764067 0.600452 0.154952 0.260470
H30   H     H_    0.796703 0.722419 0.129116 0.273314
H31   H     H_    0.675706 0.707454 0.165013 0.272426
O12   O     O_3   0.266687 0.349524 0.582521 -0.610989
C50   C     C_3   0.257245 0.367169 0.675878 0.136276
H32   H     H_    0.184841 0.353823 0.701455 0.138932
H33   H     H_    0.268432 0.444841 0.692323 0.148873
C51   C     C_3   0.331233 0.296473 0.724241 -0.311117
H34   H     H_    0.319812 0.218752 0.708890 0.227456
H35   H     H_    0.404193 0.309013 0.699848 0.217582
C52   C     C_3   0.323946 0.311470 0.825592 -0.957074
H36   H     H_    0.333564 0.389142 0.842560 0.274405
H37   H     H_    0.380557 0.261432 0.858440 0.271299
H38   H     H_    0.253100 0.294174 0.851924 0.262919
O13   O     O_3   0.879988 0.759868 0.430347 -0.636153
C53   C     C_3   0.881082 0.825349 0.503633 0.139861
H39   H     H_    0.877227 0.901780 0.475837 0.161556
H40   H     H_    0.947887 0.814208 0.542952 0.137296
C54   C     C_3   0.793733 0.817630 0.565671 -0.331095
H41   H     H_    0.727804 0.826725 0.525677 0.256327
H42   H     H_    0.799362 0.743339 0.598055 0.218508
C55   C     C_3   0.785808 0.896660 0.638390 -1.007665
H43   H     H_    0.850439 0.888287 0.680146 0.272564
H44   H     H_    0.722119 0.888645 0.682223 0.269513
H45   H     H_    0.777734 0.971818 0.607699 0.270940
O14   O     O_3   0.118996 0.244275 0.584663 -0.632147
C56   C     C_3   0.152127 0.189461 0.507532 0.156086
H46   H     H_    0.223723 0.150907 0.522662 0.171503
H47   H     H_    0.162287 0.236316 0.446874 0.115035
C57   C     C_3   0.084849 0.111591 0.487248 -0.348130
H48   H     H_    0.070861 0.069229 0.549406 0.245079
H49   H     H_    0.015777 0.148944 0.463619 0.238463
C58   C     C_3   0.127469 0.039625 0.415156 -0.974600
H50   H     H_    0.141117 0.080173 0.351969 0.262322
H51   H     H_    0.076432 0.985046 0.401775 0.279959
H52   H     H_    0.195498 0.999009 0.437901 0.271116
O15   O     O_3   0.078409 0.749194 0.408738 -0.656613
C59   C     C_3   0.067810 0.760918 0.314878 0.099521
H53   H     H_    0.079003 0.838532 0.297564 0.166448
H54   H     H_    0.994602 0.750763 0.292931 0.152722
C60   C     C_3   0.142596 0.691596 0.262511 -0.392905
H55   H     H_    0.215507 0.705087 0.282648 0.226112
H56   H     H_    0.132404 0.613235 0.277861 0.221643
C61   C     C_3   0.134134 0.708024 0.161600 -0.955889
H57   H     H_    0.061431 0.695772 0.139989 0.266020
H58   H     H_    0.187054 0.654844 0.125647 0.274662
H59   H     H_    0.148478 0.784539 0.143353 0.261276
O16   O     O_3   0.924176 0.251591 0.596905 -0.652362
C62   C     C_3   0.892763 0.265354 0.687398 0.063809
H60   H     H_    0.829047 0.224618 0.697681 0.161594
H61   H     H_    0.869208 0.344225 0.704812 0.119786
C63   C     C_3   0.970447 0.222371 0.751170 -0.293477
H62   H     H_    0.995034 0.144630 0.732091 0.238965
H63   H     H_    0.032375 0.266355 0.745985 0.227025
C64   C     C_3   0.933324 0.224466 0.848246 -1.000044
H64   H     H_    0.909349 0.301759 0.868977 0.267190
H65   H     H_    0.991361 0.193653 0.892814 0.269931
H66   H     H_    0.872612 0.179044 0.856074 0.265525

loop_
_geom_bond_atom_site_label_1
_geom_bond_atom_site_label_2
_ccdc_geom_bond_type
C2    C35   S    
C7    H23   S    
C44   H16   S    
C11   N1    A    
C54   H41   S    
C34   H2    S    
C24   C27   S    
C12   N2    A    
C25   O15   S    
C6    C9    A    
C55   H43   S    
C54   H42   S    
O11   C47   S    
O8    Zn1   S    
C11   C19   A    
C41   H9    S    
C35   C37   A    
C45   H19   S    
C29   C32   S    
C26   O16   S    
C62   H61   S    
C30   C31   S    
C47   H26   S    
C20   C25   A    
C24   O6    A    
C50   H32   S    
O1    Zn1   S    
C53   H39   S    
C22   O14   S    
C19   C26   A    
O14   C56   S    
C51   H34   S    
C41   H10   S    
C2    O2    A    
C64   H64   S    
C17   C19   A    
C4    C40   A    
C43   H13   S    
C42   H12   S    
C5    C33   A    
C58   H52   S    
O13   C53   S    
C45   C46   S    
C48   H28   S    
C18   C20   A    
C3    C39   A    
C30   H7    S    
C44   H17   S    
C63   C64   S    
C14   O12   S    
C50   H33   S    
C23   O5    A    
C56   H47   S    
C38   O10   S    
C9    H3    S    
C10   H4    S    
O2    Zn2   S    
C64   H66   S    
O16   C62   S    
C63   H63   S    
C62   C63   S    
C46   H21   S    
O5    Zn1   S    
C47   H25   S    
C61   H57   S    
C14   N2    A    
C51   C52   S    
C6    C34   A    
C61   H59   S    
C52   H38   S    
C59   H54   S    
C29   C30   D    
C58   H51   S    
N1    Zn1   S    
C55   H44   S    
C29   H8    S    
C42   C43   S    
O12   C50   S    
C12   C20   A    
C49   H30   S    
C17   C18   A    
C52   H37   S    
O3    Zn2   S    
C23   C28   S    
C45   H18   S    
C48   C49   S    
C23   O7    A    
C1    O3    A    
C21   O13   S    
C2    O4    A    
C60   C61   S    
C12   H6    S    
C51   H35   S    
C13   C15   A    
C60   H55   S    
C44   C45   S    
C14   C16   A    
C11   H5    S    
C4    C6    A    
C57   H49   S    
C3    C4    A    
C50   C51   S    
C61   H58   S    
C13   N1    A    
O15   C59   S    
O6    Zn2   S    
C56   C57   S    
C15   C17   A    
C21   C25   A    
C16   C22   A    
C41   C42   S    
C64   H65   S    
C27   C32   T    
C8    H24   S    
C28   C31   T    
O10   C44   S    
C3    C5    A    
C47   C48   S    
C46   H22   S    
C37   O9    S    
C56   H46   S    
N2    Zn2   S    
C24   O8    A    
C53   C54   S    
C63   H62   S    
C33   H1    S    
C16   C18   A    
C57   C58   S    
C36   C38   A    
C59   H53   S    
C48   H27   S    
C5    C10   A    
C37   C39   A    
C62   H60   S    
C38   C40   A    
C58   H50   S    
C43   H15   S    
C49   H29   S    
C33   C35   A    
C53   H40   S    
C54   C55   S    
C34   C36   A    
C49   H31   S    
O9    C41   S    
C55   H45   S    
O4    Zn1   S    
C46   H20   S    
C59   C60   S    
C7    C9    A    
C15   C21   A    
C8    C10   A    
C42   H11   S    
C22   C26   A    
O7    Zn2   S    
C13   O11   S    
C52   H36   S    
C60   H56   S    
C43   H14   S    
C7    C39   A    
C8    C40   A    
C57   H48   S    
C1    O1    A    
C1    C36   S    
