data_mof_unit_6437.cif
_audit_creation_date              2013-03-05T15:45:29-0500
_audit_creation_method            fapswitch 2.2
_symmetry_space_group_name_H-M    P1
_symmetry_Int_Tables_number       1
_space_group_crystal_system       triclinic
_cell_length_a                    26.656295
_cell_length_b                    10.688885
_cell_length_c                    10.104115
_cell_angle_alpha                 87.905297
_cell_angle_beta                  90.367395
_cell_angle_gamma                 89.983129
_cell_volume                      2876.94248253

loop_
_atom_site_label
_atom_site_type_symbol
_atom_site_description
_atom_site_fract_x
_atom_site_fract_y
_atom_site_fract_z
_atom_type_partial_charge
O1    O     O_R   0.499990 0.319060 0.613040 -0.624950
O2    O     O_R   0.500010 0.319100 0.386900 -0.619990
C1    C     C_R   0.496653 0.262400 0.502265 0.844450
O3    O     O_R   0.428750 0.500000 0.613050 -0.623420
O4    O     O_R   0.428760 0.500040 0.386920 -0.617162
C2    C     C_R   0.405382 0.500297 0.499450 0.899084
Zn1   Zn    Zn3+2 0.499990 0.499970 0.650990 0.930788
Zn2   Zn    Zn3+2 0.500010 0.500030 0.349010 0.912245
O5    O     O_R   0.499990 0.680900 0.613100 -0.610331
O6    O     O_R   0.500010 0.680940 0.386960 -0.617672
O7    O     O_R   0.571240 0.499960 0.613080 -0.628872
O8    O     O_R   0.571250 0.500000 0.386950 -0.627255
C3    C     C_R   0.501436 0.737107 0.497517 0.920927
C4    C     C_R   0.594930 0.499137 0.500766 0.874194
C5    C     C_R   0.190405 0.453704 0.743272 0.547305
O9    O     O_2   0.220566 0.362654 0.793589 -0.536867
N1    N     N_R   0.210327 0.548399 0.665648 -0.316062
C6    C     C_R   0.190976 0.665534 0.682983 0.589386
C7    C     C_R   0.272872 0.622857 0.492981 -0.004468
C8    C     C_R   0.324747 0.617127 0.466234 0.026686
C9    C     C_R   0.322640 0.393524 0.527755 0.041242
C10   C     C_R   0.270499 0.404335 0.551118 0.172454
C11   C     C_R   0.251624 0.525939 0.573794 0.168724
C12   C     C_R   0.112227 0.566614 0.736851 -0.071450
C13   C     C_R   0.138530 0.455033 0.770554 -0.050099
C14   C     C_R   0.111557 0.349400 0.820883 -0.071932
C15   C     C_R   0.139312 0.678265 0.709875 -0.091785
C16   C     C_R   0.350460 0.504002 0.498734 -0.112194
C17   C     C_R   0.650139 0.498781 0.505148 -0.106064
C18   C     C_R   0.985149 0.443592 0.685859 0.093434
C19   C     C_R   0.980351 0.672768 0.674249 0.023540
C20   C     C_R   0.957651 0.555059 0.657297 0.067604
C21   C     C_R   0.965031 0.328865 0.646710 -0.137204
C22   C     C_R   0.916944 0.322240 0.594583 -0.140786
C23   C     C_R   0.887447 0.430168 0.579412 -0.010688
C24   C     C_R   0.907578 0.548089 0.609882 -0.084610
C25   C     C_R   0.877809 0.657892 0.592875 -0.056834
C26   C     C_R   0.827092 0.642673 0.552394 0.493818
N2    N     N_R   0.808283 0.526165 0.530518 -0.349755
C27   C     C_R   0.837656 0.421912 0.537305 0.500899
C28   C     C_R   0.727255 0.481338 0.636993 0.195129
C29   C     C_R   0.674802 0.474984 0.626860 -0.203515
C30   C     C_R   0.678396 0.525434 0.391037 -0.209027
C31   C     C_R   0.730561 0.531665 0.399291 -0.100867
C32   C     C_R   0.754955 0.510927 0.521313 0.270668
O10   O     O_2   0.817906 0.309816 0.508254 -0.572743
C33   C     C_R   0.033889 0.450878 0.741700 0.031338
C34   C     C_R   0.059533 0.565859 0.728011 0.060719
C35   C     C_R   0.033007 0.678230 0.698025 0.031279
C36   C     C_R   0.058637 0.347738 0.807441 -0.106256
H1    H     H_    0.652691 0.452102 0.713537 0.177613
H2    H     H_    0.902745 0.231532 0.567934 0.181979
H3    H     H_    0.986854 0.243507 0.652039 0.142856
O11   O     O_2   0.221246 0.766144 0.673950 -0.613204
C37   C     C_R   0.112924 0.793345 0.696796 0.033313
C38   C     C_R   0.950223 0.780665 0.660719 -0.227983
C39   C     C_R   0.899637 0.775836 0.622288 0.178809
O12   O     O_2   0.795942 0.741404 0.537788 -0.571613
C40   C     C_R   0.060418 0.791307 0.688720 -0.189060
H4    H     H_    0.965124 0.871266 0.682664 0.137858
H5    H     H_    0.660189 0.544258 0.296286 0.182822
H6    H     H_    0.752108 0.554852 0.311286 0.150666
H7    H     H_    0.042072 0.879956 0.669711 0.169497
C41   C     C_2   0.480692 0.934291 0.395553 -0.140943
C42   C     C_2   0.505414 0.869161 0.490158 -0.243919
H8    H     H_    0.460733 0.888796 0.316433 0.158490
H9    H     H_    0.527785 0.913076 0.565673 0.131871
C43   C     C_2   0.481748 0.069394 0.395212 -0.200803
C44   C     C_2   0.483043 0.131973 0.508405 -0.159288
H10   H     H_    0.486319 0.116838 0.299119 0.169944
C45   C     C_2   0.536478 0.535612 0.931035 0.276132
N3    N     N_2   0.500520 0.501330 0.852150 -0.111605
C46   C     C_2   0.539098 0.488890 0.073119 0.014336
N4    N     N_2   0.500540 0.501360 0.147810 -0.262799
H11   H     H_    0.473502 0.562219 0.110548 0.167512
C47   C     C_3   0.348368 0.266518 0.533690 -0.387150
C48   C     C_3   0.360439 0.223088 0.394924 -0.837454
H12   H     H_    0.326305 0.223246 0.331502 0.262580
H13   H     H_    0.388973 0.284401 0.346680 0.272261
H14   H     H_    0.375629 0.126709 0.401761 0.261672
H15   H     H_    0.383400 0.270615 0.593383 0.211547
H16   H     H_    0.324734 0.194854 0.585543 0.228639
C49   C     C_2   0.240111 0.714365 0.418501 0.487910
H17   H     H_    0.254403 0.803762 0.381755 0.077506
O13   O     O_2   0.196403 0.688836 0.394505 -0.568332
C50   C     C_2   0.138213 0.917266 0.688789 0.429203
H18   H     H_    0.172051 0.933891 0.745442 0.122881
O14   O     O_2   0.120556 0.003837 0.621248 -0.598876
C51   C     C_3   0.871931 0.900395 0.613701 -0.352771
C52   C     C_3   0.869342 0.953141 0.471187 -0.736196
H19   H     H_    0.907720 0.975744 0.435377 0.237480
H20   H     H_    0.852110 0.885411 0.403871 0.284680
H21   H     H_    0.846669 0.040361 0.467311 0.272504
H22   H     H_    0.834391 0.893687 0.659744 0.252532
H23   H     H_    0.891572 0.971141 0.673263 0.180235
C53   C     C_3   0.234851 0.297640 0.516075 -0.418817
C54   C     C_3   0.191953 0.341903 0.424417 -0.752648
H24   H     H_    0.207161 0.391373 0.334754 0.279662
H25   H     H_    0.169927 0.259841 0.392954 0.271751
H26   H     H_    0.166193 0.405379 0.475709 0.257971
H27   H     H_    0.254832 0.224919 0.461659 0.221110
H28   H     H_    0.219323 0.247638 0.604135 0.255983
C55   C     C_2   0.467178 0.077189 0.639339 0.390754
H29   H     H_    0.487065 0.101903 0.728127 0.073469
O15   O     O_2   0.431429 0.006325 0.648846 -0.581082
C56   C     C_3   0.575778 0.627413 0.881407 -0.363740
C57   C     C_3   0.577954 0.742636 0.966267 -0.903182
H30   H     H_    0.540551 0.788379 0.968802 0.261918
H31   H     H_    0.590115 0.716333 0.068912 0.272857
H32   H     H_    0.605401 0.810689 0.923428 0.260445
H33   H     H_    0.613049 0.581846 0.881632 0.225354
H34   H     H_    0.567517 0.660434 0.778771 0.246282
C58   C     C_3   0.464395 0.404638 0.895961 -0.191508
C59   C     C_3   0.488662 0.277148 0.929638 -0.878777
H35   H     H_    0.460597 0.201935 0.915980 0.238557
H36   H     H_    0.521531 0.261279 0.865485 0.271578
H37   H     H_    0.500571 0.269295 0.034803 0.238376
H38   H     H_    0.440037 0.434914 0.976865 0.148598
H39   H     H_    0.437695 0.389097 0.814472 0.229222
C60   C     C_2   0.582326 0.412881 0.121015 0.408167
H40   H     H_    0.579364 0.355346 0.211065 0.120789
O16   O     O_2   0.621004 0.408954 0.057552 -0.632081
C61   C     C_2   0.137334 0.241820 0.888802 0.503521
H41   H     H_    0.130434 0.147344 0.857636 0.034113
O17   O     O_2   0.164663 0.257915 0.984108 -0.508488
C62   C     C_3   0.755161 0.458941 0.768063 -0.454566
C63   C     C_3   0.722646 0.437788 0.890763 -0.767910
H42   H     H_    0.698689 0.520896 0.905721 0.267472
H43   H     H_    0.699268 0.352516 0.881658 0.280812
H44   H     H_    0.747165 0.424042 0.979384 0.258615
H45   H     H_    0.779797 0.375804 0.760008 0.237005
H46   H     H_    0.779489 0.541112 0.785918 0.215717
C64   C     C_2   0.029393 0.247191 0.878398 0.395475
H47   H     H_    0.044609 0.153641 0.893106 0.048528
O18   O     O_2   0.988321 0.269381 0.925065 -0.539941
C65   C     C_3   0.351935 0.730773 0.406882 -0.496254
C66   C     C_3   0.355698 0.833556 0.506987 -0.725009
H48   H     H_    0.318034 0.864116 0.539040 0.263554
H49   H     H_    0.377511 0.799295 0.595087 0.293904
H50   H     H_    0.375188 0.915178 0.460648 0.264002
H51   H     H_    0.390448 0.708852 0.374870 0.230593
H52   H     H_    0.332593 0.766219 0.315475 0.201460

loop_
_geom_bond_atom_site_label_1
_geom_bond_atom_site_label_2
_geom_bond_distance
_ccdc_geom_bond_type
C62   C63   1.527346 S    
C53   H28   1.103977 S    
C17   C29   1.405687 A    
C46   N4    1.288766 D    
C7    C8    1.412408 A    
C12   C15   1.413872 A    
C59   H35   1.110024 S    
C61   H41   1.084157 S    
C56   H34   1.103999 S    
C48   H12   1.109520 S    
C31   C32   1.400606 A    
Zn1   O7    1.939910 S    
C66   H49   1.110863 S    
C9    C47   1.519837 S    
N1    C11   1.469714 S    
C39   C51   1.521759 S    
C49   H17   1.082668 S    
C20   C24   1.418140 A    
C24   C25   1.421148 A    
C1    C44   1.439893 S    
C37   C40   1.401702 A    
C14   C36   1.416465 A    
C26   N2    1.367535 A    
O7    C4    1.302540 A    
C15   C37   1.418354 A    
C61   O17   1.220982 D    
C56   C57   1.527101 S    
C5    O9    1.345425 S    
C38   C39   1.402321 A    
C5    N1    1.367239 A    
C22   C23   1.399131 A    
C28   C29   1.403135 A    
C51   H22   1.107476 S    
O5    C3    1.294463 A    
C65   H52   1.109316 S    
C22   H2    1.083432 S    
C58   H39   1.102105 S    
C2    C16   1.464489 S    
C23   C24   1.413531 A    
C43   C44   1.346151 D    
C42   H9    1.085658 S    
C57   H30   1.111188 S    
C19   C38   1.407230 A    
C29   H1    1.079483 S    
N2    C32   1.433701 S    
C48   H13   1.107856 S    
C46   C60   1.478393 S    
C26   O12   1.345916 S    
C9    C10   1.416662 A    
C17   C30   1.401837 A    
C57   H31   1.110905 S    
C19   C35   1.424068 A    
O3    Zn1   1.934888 S    
C7    C49   1.490957 S    
C54   H25   1.110623 S    
C60   O16   1.219158 D    
C54   H24   1.111091 S    
C33   C36   1.425572 A    
C56   H33   1.106296 S    
C44   C55   1.490877 S    
C21   H3    1.081405 S    
C66   H50   1.106269 S    
N4    H11   1.030874 S    
C12   C34   1.406931 A    
C18   C33   1.416411 A    
C12   C13   1.413076 A    
O3    C2    1.302344 A    
C47   H16   1.110560 S    
N2    C27   1.361149 A    
C45   C46   1.503867 S    
C50   H18   1.083420 S    
C3    C42   1.414797 S    
C8    C16   1.416802 A    
C31   H6    1.082829 S    
C13   C14   1.419029 A    
N3    C58   1.471063 S    
O6    C3    1.287734 A    
C38   H4    1.076841 S    
O1    C1    1.294529 A    
C41   H8    1.087092 S    
C51   H23   1.112469 S    
C7    C11   1.416032 A    
C30   C31   1.394267 A    
C63   H43   1.110540 S    
C25   C26   1.421050 A    
C52   H20   1.109017 S    
C33   C34   1.409330 A    
C62   H46   1.111282 S    
Zn2   O8    1.934891 S    
C53   C54   1.530761 S    
Zn2   N4    2.032619 S    
N1    C6    1.371568 A    
C55   O15   1.219567 D    
C8    C65   1.520959 S    
C43   H10   1.086417 S    
C34   C35   1.415848 A    
C49   O13   1.221503 D    
C9    C16   1.417193 A    
O8    C4    1.308039 A    
C64   H47   1.083793 S    
C57   H32   1.110457 S    
C14   C61   1.483642 S    
C27   O10   1.350204 S    
C4    C17   1.472057 S    
C63   H42   1.109297 S    
C41   C43   1.444261 S    
Zn1   N3    2.033086 S    
C54   H26   1.109263 S    
C60   H40   1.082753 S    
C30   H5    1.082814 S    
C52   H21   1.110248 S    
C58   C59   1.534270 S    
C48   H14   1.106432 S    
Zn1   O5    1.957695 S    
C18   C21   1.407491 A    
O1    Zn1   1.985079 S    
C10   C53   1.534536 S    
C28   C62   1.525990 S    
C19   C20   1.411881 A    
O2    Zn2   1.957696 S    
C6    C15   1.412932 A    
C65   C66   1.523192 S    
C36   C64   1.492684 S    
C47   H15   1.110159 S    
O4    Zn2   1.939907 S    
C59   H36   1.109887 S    
C66   H48   1.109635 S    
C40   H7    1.076638 S    
C35   C40   1.413040 A    
C41   C42   1.332545 D    
C37   C50   1.486224 S    
O2    C1    1.297616 A    
C63   H44   1.110571 S    
C45   N3    1.303870 D    
C18   C20   1.418380 A    
C47   C48   1.529122 S    
C52   H19   1.111009 S    
O4    C2    1.300181 A    
C62   H45   1.110481 S    
C65   H51   1.105936 S    
C21   C22   1.385501 A    
C23   C27   1.394991 A    
C50   O14   1.221874 D    
C59   H37   1.107286 S    
C5    C13   1.411903 A    
C6    O11   1.345424 S    
C58   H38   1.104796 S    
Zn2   O6    1.985078 S    
C45   C56   1.510998 S    
C55   H29   1.080254 S    
C64   O18   1.221433 D    
C28   C32   1.412658 A    
C10   C11   1.420565 A    
C51   C52   1.528248 S    
C53   H27   1.106765 S    
C25   C39   1.428923 A    
