data_mof_unit_8927.cif
_audit_creation_date              2012-12-10T19:44:56-0500
_audit_creation_method            fapswitch 2.2
_symmetry_space_group_name_H-M    P1
_symmetry_Int_Tables_number       1
_space_group_crystal_system       triclinic
_cell_length_a                    15.041138
_cell_length_b                    10.91317
_cell_length_c                    13.702142
_cell_angle_alpha                 90.118815
_cell_angle_beta                  90.143204
_cell_angle_gamma                 89.671621
_cell_volume                      2249.10986249

loop_
_atom_site_label
_atom_site_type_symbol
_atom_type_description
_atom_site_fract_x
_atom_site_fract_y
_atom_site_fract_z
_atom_type_partial_charge
C1    C     C_R   0.500735 0.262239 0.499762 0.825865
C2    C     C_R   0.499271 0.737763 0.500237 0.825533
C3    C     C_R   0.047332 0.382203 0.650824 -0.212775
C4    C     C_R   0.952669 0.617791 0.349157 -0.212777
C5    C     C_R   0.286826 0.237434 0.274016 -0.129125
C6    C     C_R   0.713199 0.762803 0.726156 -0.129263
C7    C     C_R   0.328680 0.176667 0.351443 -0.127193
C8    C     C_R   0.671363 0.823512 0.648686 -0.127639
C9    C     C_R   0.415167 0.129915 0.340014 0.140711
C10   C     C_R   0.584814 0.870081 0.660011 0.141153
C11   C     C_R   0.459680 0.146142 0.250989 -0.043258
C12   C     C_R   0.540216 0.853712 0.748968 -0.042386
C13   C     C_R   0.417396 0.206178 0.173653 -0.129764
C14   C     C_R   0.582485 0.793747 0.826350 -0.129606
C15   C     C_R   0.330946 0.251263 0.184997 -0.122763
C16   C     C_R   0.668999 0.748856 0.815115 -0.122787
C17   C     C_R   0.457507 0.936072 0.423216 -0.031993
C18   C     C_R   0.542554 0.063936 0.576765 -0.032243
C19   C     C_R   0.498373 0.871751 0.500976 -0.170677
C20   C     C_R   0.501655 0.128254 0.499021 -0.170621
C21   C     C_R   0.540059 0.935826 0.578387 -0.098729
C22   C     C_R   0.459960 0.064179 0.421618 -0.098696
C23   C     C_R   0.328620 0.499939 0.499882 0.832392
C24   C     C_R   0.671380 0.500068 0.500118 0.832663
C25   C     C_R   0.570848 0.451066 0.793099 0.035012
C26   C     C_R   0.429157 0.548947 0.206900 0.035018
C27   C     C_R   0.430019 0.549600 0.793380 0.022530
C28   C     C_R   0.569988 0.450412 0.206619 0.022735
C29   C     C_R   0.428328 0.549588 0.896067 -0.033278
C30   C     C_R   0.571689 0.450444 0.103932 -0.033252
C31   C     C_R   0.500636 0.499927 0.948204 0.042217
C32   C     C_R   0.499381 0.500105 0.051795 0.042277
C33   C     C_R   0.574129 0.450697 0.896609 -0.030721
C34   C     C_R   0.425891 0.549345 0.103389 -0.030774
C35   C     C_R   0.355351 0.597680 0.946883 -0.245094
C36   C     C_R   0.644683 0.402395 0.053115 -0.245078
C37   C     C_R   0.352370 0.597290 0.049720 0.152890
C38   C     C_R   0.647671 0.402806 0.950278 0.153038
C39   C     C_R   0.813692 0.557172 0.424083 -0.261086
C40   C     C_R   0.186309 0.442829 0.575910 -0.261077
C41   C     C_R   0.768001 0.500231 0.500339 -0.072673
C42   C     C_R   0.231999 0.499783 0.499664 -0.072672
C43   C     C_R   0.814585 0.443075 0.576460 -0.229529
C44   C     C_R   0.185415 0.556947 0.423546 -0.229658
C45   C     C_R   0.907273 0.441351 0.576272 0.103184
C46   C     C_R   0.092728 0.558662 0.423725 0.103220
C47   C     C_R   0.953381 0.500051 0.500077 0.061153
C48   C     C_R   0.046620 0.499958 0.499917 0.061151
C49   C     C_R   0.906329 0.558566 0.423896 0.112059
C50   C     C_R   0.093672 0.441435 0.576094 0.112065
C51   C     C_R   0.954633 0.381567 0.650570 -0.209246
C52   C     C_R   0.045367 0.618438 0.349418 -0.209197
Cu1   Cu    Cu3+1 0.500010 0.499980 0.597420 0.969273
Cu2   Cu    Cu3+1 0.499990 0.500020 0.402580 0.969351
H1    H     H_    0.777047 0.601892 0.365770 0.151767
H2    H     H_    0.222954 0.398100 0.634218 0.151735
H3    H     H_    0.624525 0.412354 0.750986 0.158030
H4    H     H_    0.375476 0.587652 0.249015 0.157909
H5    H     H_    0.375224 0.589410 0.752908 0.131009
H6    H     H_    0.624785 0.410605 0.247091 0.130990
H7    H     H_    0.299426 0.634058 0.905864 0.137911
H8    H     H_    0.700617 0.366040 0.094134 0.137903
H9    H     H_    0.778655 0.398324 0.634798 0.179009
H10   H     H_    0.221346 0.601711 0.365216 0.178936
H11   H     H_    0.920040 0.333698 0.708060 0.151044
H12   H     H_    0.079959 0.666311 0.291926 0.151078
H13   H     H_    0.082776 0.336045 0.709201 0.145105
H14   H     H_    0.917226 0.663938 0.290770 0.145117
H15   H     H_    0.298349 0.296917 0.124670 0.137726
H16   H     H_    0.701585 0.703267 0.875481 0.137756
H17   H     H_    0.220101 0.273356 0.282894 0.134231
H18   H     H_    0.779975 0.727030 0.717364 0.134273
H19   H     H_    0.293957 0.165908 0.420016 0.120068
H20   H     H_    0.706153 0.834384 0.580166 0.120152
H21   H     H_    0.526818 0.111775 0.241606 0.134027
H22   H     H_    0.473033 0.887943 0.758270 0.133657
H23   H     H_    0.451637 0.217819 0.104937 0.137304
H24   H     H_    0.548186 0.782023 0.895021 0.137248
N1    N     N_R   0.499960 0.499900 0.743810 -0.183707
N2    N     N_R   0.500040 0.500100 0.256190 -0.183635
O1    O     O_R   0.500000 0.319630 0.582270 -0.566794
O2    O     O_R   0.500000 0.680370 0.417730 -0.566733
O3    O     O_R   0.499990 0.319660 0.417730 -0.578598
O4    O     O_R   0.500010 0.680340 0.582270 -0.578682
O5    O     O_R   0.370260 0.499960 0.582280 -0.600253
O6    O     O_R   0.629740 0.500040 0.417720 -0.600255
O7    O     O_R   0.370250 0.499990 0.417740 -0.585465
O8    O     O_R   0.629750 0.500010 0.582260 -0.585352
C53   C     C_2   0.409050 0.870836 0.344228 0.861966
O9    O     O_2   0.341330 0.814106 0.362910 -0.635401
O10   O     O_R   0.441987 0.874055 0.248984 -0.771166
H25   H     H_    0.403396 0.827887 0.201004 0.314501
C54   C     C_2   0.591111 0.129181 0.655687 0.862051
O11   O     O_2   0.658563 0.186372 0.636843 -0.635449
O12   O     O_R   0.558584 0.125411 0.751071 -0.771293
H26   H     H_    0.597191 0.171667 0.798975 0.314536
C55   C     C_3   0.268367 0.645010 0.097998 -0.416074
C56   C     C_3   0.209095 0.539909 0.130723 -0.851349
H27   H     H_    0.198765 0.473975 0.069917 0.254398
H28   H     H_    0.239023 0.491639 0.193999 0.245124
H29   H     H_    0.143244 0.576500 0.152733 0.241213
H30   H     H_    0.283711 0.705751 0.160589 0.199070
H31   H     H_    0.229553 0.702359 0.045953 0.205693
C57   C     C_3   0.731699 0.355170 0.902001 -0.416108
C58   C     C_3   0.790901 0.460317 0.869229 -0.851605
H32   H     H_    0.760910 0.508590 0.805996 0.245203
H33   H     H_    0.801263 0.526236 0.930017 0.254441
H34   H     H_    0.856729 0.423772 0.847149 0.241265
H35   H     H_    0.770560 0.297884 0.954049 0.205695
H36   H     H_    0.716383 0.294396 0.839431 0.198923

loop_
_geom_bond_atom_site_label_1
_geom_bond_atom_site_label_2
_ccdc_geom_bond_type
C57   H36   S    
C54   O11   D    
C5    H17   S    
C27   C29   A    
C34   C37   A    
C2    O4    A    
O12   H26   S    
C37   C55   S    
C55   C56   S    
C43   H9    S    
C7    H19   S    
Cu1   Cu2   S    
C44   H10   S    
C6    H18   S    
C58   H33   S    
C23   C42   S    
C25   H3    S    
C4    C52   A    
Cu1   O4    S    
C35   C37   A    
C27   N1    A    
C57   H35   S    
C9    C22   S    
C45   C51   A    
C1    O1    A    
C18   C21   A    
C46   C52   A    
Cu1   O1    S    
C51   H11   S    
C57   C58   S    
C38   C57   S    
C26   C34   A    
C39   H1    S    
C47   C48   A    
C40   H2    S    
C31   C33   A    
C53   O10   S    
C55   H30   S    
C48   C50   A    
C54   O12   S    
C23   O7    A    
C24   C41   S    
C41   C43   A    
C42   C44   A    
C36   H8    S    
Cu2   O3    S    
C3    C50   A    
C44   C46   A    
Cu2   N2    S    
C45   C47   A    
C10   C21   S    
C15   H15   S    
C58   H34   S    
C13   H23   S    
C16   H16   S    
C47   C49   A    
O10   H25   S    
Cu2   O6    S    
C3    C51   A    
C6    C8    A    
C4    H14   S    
C26   N2    A    
C32   C34   A    
C9    C11   A    
C31   C32   A    
C29   C31   A    
C8    H20   S    
C17   C53   S    
C35   H7    S    
C26   H4    S    
C55   H31   S    
C28   H6    S    
C10   C12   A    
C39   C49   A    
C12   C14   A    
C56   H28   S    
C13   C15   A    
C14   C16   A    
C2    O2    A    
C36   C38   A    
Cu2   O2    S    
C52   H12   S    
C5    C7    A    
C7    C9    A    
C1    C20   S    
Cu1   N1    S    
C2    C19   S    
C25   N1    A    
C24   O8    A    
C3    H13   S    
C17   C22   A    
C20   C22   A    
Cu1   O5    S    
C1    O3    A    
C56   H29   S    
C58   H32   S    
C29   C35   A    
C33   C38   A    
C30   C36   A    
C4    C49   A    
C12   H22   S    
C28   C30   A    
C43   C45   A    
C11   H21   S    
C30   C32   A    
C11   C13   A    
Cu2   O7    S    
C40   C50   A    
C40   C42   A    
C17   C19   A    
Cu1   O8    S    
C18   C20   A    
C14   H24   S    
C28   N2    A    
C5    C15   A    
C6    C16   A    
C46   C48   A    
C39   C41   A    
C8    C10   A    
C56   H27   S    
C23   O5    A    
C18   C54   S    
C27   H5    S    
C53   O9    D    
C24   O6    A    
C25   C33   A    
C19   C21   A    
