data_mof_unit_22663.cif
_audit_creation_date              2012-10-26T19:18:50-0400
_audit_creation_method            fapswitch 2.2
_symmetry_space_group_name_H-M    P1
_symmetry_Int_Tables_number       1
_space_group_crystal_system       triclinic
_cell_length_a                    9.715537
_cell_length_b                    10.93549
_cell_length_c                    15.571314
_cell_angle_alpha                 89.71832
_cell_angle_beta                  73.578642
_cell_angle_gamma                 90.277597
_cell_volume                      1586.8248333

loop_
_atom_site_label
_atom_site_type_symbol
_atom_type_description
_atom_site_fract_x
_atom_site_fract_y
_atom_site_fract_z
_atom_type_partial_charge
C1    C     C_R   0.000356 0.265454 0.498855 0.556187
C2    C     C_R   0.234535 0.569625 0.047364 0.049926
C3    C     C_R   0.331501 0.529945 0.094624 0.033791
C4    C     C_R   0.916713 0.500020 0.671999 0.546118
C5    C     C_R   0.088362 0.584033 0.092017 -0.143359
C6    C     C_R   0.036564 0.558364 0.183195 -0.139541
C7    C     C_R   0.275282 0.499673 0.185634 -0.139518
C8    C     C_2   0.888463 0.932496 0.497469 -0.158670
C9    C     C_2   0.000600 0.866575 0.504903 -0.118527
C10   C     C_2   0.886176 0.066421 0.501504 -0.159292
C11   C     C_2   0.004665 0.133550 0.494127 -0.115995
C12   C     C_R   0.675299 0.519090 0.908623 0.033051
C13   C     C_2   0.399317 0.429394 0.551507 0.074595
C14   C     C_2   0.549258 0.445245 0.561138 0.017169
C15   C     C_R   0.999949 0.734578 0.500829 0.549325
C16   C     C_R   0.083330 0.502380 0.328089 0.539196
C17   C     C_R   0.870654 0.500330 0.770265 -0.001057
C18   C     C_R   0.130377 0.516928 0.230465 -0.000968
C19   C     C_R   0.919914 0.473166 0.912808 -0.140899
C20   C     C_R   0.967977 0.478445 0.819788 -0.136354
C21   C     C_R   0.725962 0.520329 0.814678 -0.133836
C22   C     C_3   0.433135 0.634700 0.390449 0.046757
C23   C     C_R   0.774605 0.492154 0.957481 0.051022
C24   C     C_3   0.547466 0.733991 0.360444 -0.415598
C25   C     C_R   0.528315 0.539587 0.955031 0.032195
C26   C     C_R   0.480645 0.520968 0.049390 0.034372
C27   C     C_R   0.583990 0.496839 0.095636 -0.138911
C28   C     C_R   0.728005 0.483397 0.050349 -0.137956
C29   C     C_R   0.427953 0.579865 0.910564 -0.139996
C30   C     C_R   0.284320 0.595454 0.956241 -0.138289
Cu1   Cu    Cu3+1 0.138640 0.500020 0.499980 0.974307
Cu2   Cu    Cu3+1 0.861360 0.499980 0.500020 0.932482
H1    H     H_    0.803166 0.464162 0.088454 0.107492
H2    H     H_    0.341829 0.461307 0.223509 0.112626
H3    H     H_    0.924211 0.573513 0.216945 0.121462
H4    H     H_    0.211394 0.627227 0.919652 0.112143
H5    H     H_    0.996148 0.452351 0.949779 0.111361
H6    H     H_    0.080371 0.462439 0.786688 0.128222
H7    H     H_    0.654022 0.533093 0.774137 0.121778
H8    H     H_    0.558061 0.490960 0.167499 0.092283
H9    H     H_    0.457376 0.604128 0.840605 0.108626
H10   H     H_    0.334183 0.671088 0.378517 0.188355
H11   H     H_    0.468985 0.552394 0.348186 0.105534
H12   H     H_    0.014549 0.617318 0.056663 0.108354
H13   H     H_    0.651574 0.703069 0.368762 0.152159
H14   H     H_    0.562468 0.756187 0.288683 0.098257
H15   H     H_    0.513687 0.817959 0.400571 0.159517
H16   H     H_    0.792925 0.887363 0.489600 0.155423
H17   H     H_    0.095334 0.907858 0.516170 0.106100
H18   H     H_    0.783334 0.110456 0.509551 0.147876
H19   H     H_    0.109707 0.093203 0.482556 0.099600
H20   H     H_    0.333085 0.356260 0.589290 0.074832
H21   H     H_    0.571652 0.405919 0.619782 0.116243
H22   H     H_    0.636220 0.513133 0.439534 0.237765
N1    N     N_2   0.346430 0.498660 0.500980 -0.055925
N2    N     N_2   0.652550 0.498630 0.501000 -0.325940
O1    O     O_R   0.117050 0.321960 0.499980 -0.514333
O2    O     O_R   0.882890 0.321920 0.500020 -0.497231
O3    O     O_R   0.052910 0.500040 0.629810 -0.497866
O4    O     O_R   0.818750 0.499990 0.629840 -0.505757
O5    O     O_R   0.117110 0.678080 0.499980 -0.481259
O6    O     O_R   0.882950 0.678040 0.500020 -0.488391
O7    O     O_R   0.181250 0.500010 0.370160 -0.533548
O8    O     O_R   0.947090 0.499960 0.370190 -0.509391
O9    O     O_3   0.411966 0.609029 0.482268 -0.468095

loop_
_geom_bond_atom_site_label_1
_geom_bond_atom_site_label_2
_ccdc_geom_bond_type
C19   C20   A    
C14   N2    D    
C8    H16   S    
C22   O9    S    
C29   C30   A    
C16   O7    A    
Cu2   O2    S    
C13   H20   S    
C20   H6    S    
Cu1   O5    S    
C19   C23   A    
Cu1   Cu2   S    
C21   H7    S    
C30   H4    S    
C12   C25   A    
C2    C30   A    
C7    C18   A    
C24   H14   S    
C4    O4    A    
C22   C24   S    
C2    C3    A    
C15   O5    A    
Cu2   O6    S    
C13   C14   S    
C1    O1    A    
C12   C23   A    
Cu1   O1    S    
C26   C27   A    
C22   H10   S    
C1    O2    A    
C16   O8    A    
Cu1   N1    S    
C24   H13   S    
C12   C21   A    
C4    O3    A    
C8    C10   S    
N1    O9    S    
C5    H12   S    
C28   H1    S    
C3    C7    A    
C25   C29   A    
C5    C6    A    
C6    C18   A    
C7    H2    S    
H22   N2    S    
C2    C5    A    
C11   H19   S    
C10   C11   D    
C4    C17   S    
C10   H18   S    
Cu1   O7    S    
C14   H21   S    
C9    H17   S    
C6    H3    S    
Cu2   O8    S    
C16   C18   S    
Cu1   O3    S    
C27   C28   A    
Cu2   O4    S    
C15   O6    A    
C19   H5    S    
C27   H8    S    
C29   H9    S    
C25   C26   A    
C23   C28   A    
C24   H15   S    
C17   C20   A    
Cu2   N2    S    
C3    C26   A    
C17   C21   A    
C22   H11   S    
C9    C15   S    
C8    C9    D    
C13   N1    D    
C1    C11   S    
