data_mof_unit_49576.cif
_audit_creation_date              2012-12-11T14:07:20-0500
_audit_creation_method            fapswitch 2.2
_symmetry_space_group_name_H-M    P1
_symmetry_Int_Tables_number       1
_space_group_crystal_system       triclinic
_cell_length_a                    19.683249
_cell_length_b                    16.913022
_cell_length_c                    15.481546
_cell_angle_alpha                 89.918274
_cell_angle_beta                  53.757489
_cell_angle_gamma                 89.958145
_cell_volume                      4156.69384923

loop_
_atom_site_label
_atom_site_type_symbol
_atom_type_description
_atom_site_fract_x
_atom_site_fract_y
_atom_site_fract_z
_atom_type_partial_charge
C1    C     C_R   0.339255 0.173662 0.051333 -0.060652
C2    C     C_R   0.713781 0.856701 0.974568 -0.059718
C3    C     C_R   0.213940 0.643204 0.973508 -0.061383
C4    C     C_R   0.148224 0.314304 0.076283 -0.068314
C5    C     C_R   0.599078 0.810189 0.707097 -0.137506
C6    C     C_R   0.685967 0.144308 0.677290 -0.092745
C7    C     C_R   0.186486 0.356638 0.677646 -0.046519
C8    C     C_R   0.096405 0.689381 0.707284 -0.148636
C9    C     C_3   0.389945 0.250551 0.446115 -0.604099
C10   C     C_3   0.237408 0.859210 0.519935 -0.586767
C11   C     C_3   0.741212 0.640905 0.520516 -0.577880
C12   C     C_R   0.371790 0.802984 0.998442 -0.065918
C13   C     C_3   0.755139 0.287362 0.448330 -0.549345
C14   C     C_3   0.333604 0.297828 0.552673 0.671686
C15   C     C_3   0.166304 0.822885 0.627650 0.714758
C16   C     C_3   0.673080 0.677444 0.629837 0.714151
C17   C     C_3   0.696354 0.251320 0.560340 0.669038
C18   C     C_3   0.318395 0.317348 0.375845 -0.433797
C19   C     C_3   0.302438 0.726273 0.438701 -0.425407
C20   C     C_3   0.789414 0.773023 0.426652 -0.438088
C21   C     C_3   0.870201 0.279884 0.474671 -0.440614
C22   C     C_3   0.666636 0.699062 0.448744 -0.278433
C23   C     C_R   0.876626 0.698560 0.993080 -0.050035
C24   C     C_3   0.855505 0.171549 0.373213 -0.282183
C25   C     C_3   0.259339 0.187559 0.478911 -0.270678
C26   C     C_3   0.185051 0.783160 0.431326 -0.268085
C27   C     C_3   0.341489 0.235707 0.397068 0.217777
C28   C     C_3   0.265845 0.802027 0.424921 0.212287
C29   C     C_3   0.755291 0.691043 0.425966 0.206868
C30   C     C_3   0.847888 0.262305 0.395316 0.196335
C31   C     C_3   0.651055 0.761770 0.609504 -0.061805
C32   C     C_3   0.745984 0.186228 0.575354 -0.010997
C33   C     C_3   0.245265 0.313366 0.576328 0.020247
C34   C     C_R   0.838412 0.327296 0.052686 -0.079350
C35   C     C_3   0.153567 0.734567 0.607649 -0.045253
C36   C     C_3   0.735468 0.808398 0.537355 -0.285521
C37   C     C_3   0.817142 0.227269 0.574830 -0.269463
C38   C     C_3   0.260332 0.361628 0.480401 -0.317641
C39   C     C_3   0.240598 0.692218 0.549767 -0.308820
C40   C     C_R   0.371571 0.810765 0.219364 0.030136
C41   C     C_R   0.402991 0.201257 0.203294 0.023481
C42   C     C_R   0.905540 0.298550 0.203595 0.027053
C43   C     C_R   0.861479 0.682985 0.218232 0.042821
C44   C     C_3   0.609086 0.751836 0.550216 0.560764
C45   C     C_R   0.671527 0.919577 0.046077 -0.045233
C46   C     C_3   0.791204 0.127053 0.478975 0.550299
C47   C     C_3   0.201693 0.234564 0.582983 0.496861
C48   C     C_3   0.123819 0.733004 0.533419 0.554109
C49   C     C_2   0.291197 0.679687 0.946155 0.729001
C50   C     C_2   0.183878 0.255259 0.107525 0.713870
C51   C     C_2   0.683853 0.244795 0.107202 0.719467
C52   C     C_2   0.791576 0.821220 0.947022 0.726241
C53   C     C_2   0.709787 0.314777 0.055132 -0.389236
C54   C     C_2   0.814611 0.749740 0.899894 -0.406982
C55   C     C_2   0.310845 0.752763 0.903677 -0.406698
C56   C     C_R   0.631927 0.106419 0.106841 -0.057565
C57   C     C_2   0.209888 0.185464 0.055338 -0.396265
C58   C     C_R   0.365800 0.888546 0.896401 -0.148185
C59   C     C_R   0.328462 0.085997 0.953979 -0.150452
C60   C     C_R   0.828472 0.414281 0.953877 -0.122600
C61   C     C_R   0.866657 0.612286 0.895442 -0.151214
C62   C     C_R   0.409851 0.109465 0.300834 -0.154691
C63   C     C_R   0.371548 0.910273 0.315435 -0.179829
C64   C     C_R   0.863949 0.584708 0.314553 -0.171772
C65   C     C_R   0.911922 0.390393 0.299938 -0.182891
C66   C     C_R   0.285853 0.146403 0.028395 0.184971
C67   C     C_R   0.131924 0.393581 0.106924 -0.056104
C68   C     C_R   0.346632 0.812104 0.933351 0.174297
C69   C     C_R   0.849968 0.689558 0.929682 0.160728
C70   C     C_R   0.785389 0.354272 0.028938 0.188655
C71   C     C_R   0.332584 0.839830 0.323071 0.086201
C72   C     C_R   0.392754 0.188096 0.298668 0.069784
C73   C     C_R   0.899012 0.310656 0.296847 0.085365
C74   C     C_R   0.820221 0.652545 0.322489 0.071295
C75   C     C_R   0.622242 0.200799 0.012669 -0.116392
C76   C     C_R   0.662102 0.824432 0.950359 -0.183687
C77   C     C_R   0.162165 0.675144 0.949238 -0.183372
C78   C     C_R   0.171780 0.580374 0.045499 -0.044235
C79   C     C_R   0.122170 0.299240 0.013048 -0.114186
C80   C     C_R   0.594237 0.799084 0.798508 0.772907
C81   C     C_R   0.645690 0.176311 0.779508 0.776479
C82   C     C_R   0.146984 0.325165 0.780069 0.702325
C83   C     C_R   0.092411 0.700916 0.798382 0.774348
C84   C     C_R   0.638763 0.079913 0.685497 -0.248078
C85   C     C_R   0.584011 0.889849 0.703691 -0.190525
C86   C     C_R   0.082559 0.609567 0.704436 -0.213443
C87   C     C_R   0.139481 0.421377 0.686157 -0.145232
C88   C     C_R   0.648341 0.185725 0.075897 -0.077884
F1    F     F_    0.371642 0.370248 0.540421 -0.679948
F2    F     F_    0.202177 0.277949 0.175825 -0.732207
F3    F     F_    0.701729 0.222012 0.175940 -0.723278
F4    F     F_    0.827970 0.854454 0.990242 -0.713847
F5    F     F_    0.577378 0.730024 0.852234 -0.694524
F6    F     F_    0.661818 0.246313 0.806141 -0.703254
F7    F     F_    0.164677 0.256133 0.807017 -0.757505
F8    F     F_    0.070600 0.769717 0.853674 -0.681187
F9    F     F_    0.193779 0.826800 0.692013 -0.655389
F10   F     F_    0.708565 0.682863 0.684945 -0.657440
F11   F     F_    0.672242 0.311328 0.634514 -0.638357
F12   F     F_    0.594641 0.824962 0.523416 -0.715493
F13   F     F_    0.829001 0.066453 0.497218 -0.699372
F14   F     F_    0.123779 0.249753 0.604017 -0.690243
F15   F     F_    0.120525 0.656357 0.504609 -0.718352
F16   F     F_    0.330861 0.645183 0.984412 -0.710120
H1    H     H_    0.330399 0.222257 0.101360 0.178085
H2    H     H_    0.363505 0.738744 0.425489 0.173362
H3    H     H_    0.855901 0.769298 0.399356 0.175552
H4    H     H_    0.855747 0.342540 0.501293 0.204536
H5    H     H_    0.770468 0.807257 0.573392 0.200030
H6    H     H_    0.792343 0.265027 0.645948 0.252713
H7    H     H_    0.288032 0.420549 0.474534 0.202283
H8    H     H_    0.266415 0.698898 0.596840 0.192183
H9    H     H_    0.638618 0.638700 0.467407 0.112614
H10   H     H_    0.837015 0.158611 0.319401 0.137270
H11   H     H_    0.277618 0.132757 0.500626 0.100965
H12   H     H_    0.374324 0.748861 0.031892 0.191364
H13   H     H_    0.153558 0.840384 0.439788 0.105742
H14   H     H_    0.546463 0.723118 0.604215 0.018291
H15   H     H_    0.745333 0.098531 0.469436 0.008797
H16   H     H_    0.189056 0.197196 0.649969 0.101144
H17   H     H_    0.059024 0.757403 0.576758 0.021637
H18   H     H_    0.285764 0.310901 0.337363 0.185547
H19   H     H_    0.313383 0.680201 0.381102 0.186115
H20   H     H_    0.786486 0.814484 0.373639 0.186004
H21   H     H_    0.938484 0.270936 0.435894 0.178635
H22   H     H_    0.726014 0.871924 0.528237 0.203525
H23   H     H_    0.888904 0.753503 0.015742 0.214617
H24   H     H_    0.858065 0.182251 0.575498 0.195813
H25   H     H_    0.199928 0.371898 0.490971 0.205361
H26   H     H_    0.235710 0.627471 0.541411 0.195105
H27   H     H_    0.688690 0.335268 0.008398 0.126988
H28   H     H_    0.791257 0.727672 0.856369 0.143160
H29   H     H_    0.285708 0.776132 0.862803 0.138190
H30   H     H_    0.188424 0.164803 0.009148 0.125057
H31   H     H_    0.363325 0.914039 0.834176 0.128766
H32   H     H_    0.306867 0.051825 0.915534 0.122979
H33   H     H_    0.807236 0.448378 0.914854 0.123228
H34   H     H_    0.828022 0.279813 0.105146 0.186531
H35   H     H_    0.863414 0.586655 0.833980 0.132683
H36   H     H_    0.414061 0.079946 0.359516 0.102042
H37   H     H_    0.363669 0.947415 0.377379 0.115994
H38   H     H_    0.854574 0.546659 0.376720 0.122202
H39   H     H_    0.917490 0.420849 0.356748 0.114091
H40   H     H_    0.612398 0.257707 0.990315 0.173332
H41   H     H_    0.673972 0.775230 0.899005 0.188000
H42   H     H_    0.173819 0.723731 0.896938 0.177580
H43   H     H_    0.112518 0.242350 0.990685 0.161759
H44   H     H_    0.647710 0.043167 0.622663 0.157890
H45   H     H_    0.410180 0.193321 0.459671 0.138736
H46   H     H_    0.578867 0.919746 0.646136 0.207373
H47   H     H_    0.074884 0.578922 0.649763 0.221781
H48   H     H_    0.149278 0.459753 0.623990 0.129224
H49   H     H_    0.694032 0.954699 0.082628 0.141807
H50   H     H_    0.634702 0.079703 0.168206 0.133987
H51   H     H_    0.134758 0.420292 0.168161 0.134482
H52   H     H_    0.194415 0.545423 0.082135 0.142072
H53   H     H_    0.448790 0.284102 0.388132 0.238217
H54   H     H_    0.292027 0.871150 0.522151 0.229387
H55   H     H_    0.801476 0.637922 0.512060 0.231083
H56   H     H_    0.217258 0.917225 0.507832 0.152783
H57   H     H_    0.748279 0.352923 0.454795 0.228540
H58   H     H_    0.545841 0.656046 0.750908 0.168677
H59   H     H_    0.583704 0.601724 0.641739 0.034577
H60   H     H_    0.572739 0.211172 0.655777 0.139249
H61   H     H_    0.631697 0.170088 0.531812 0.034601
H62   H     H_    0.309555 0.196533 0.642435 0.073646
H63   H     H_    0.385586 0.254639 0.625712 0.149820
H64   H     H_    0.037844 0.840017 0.742966 0.172322
H65   H     H_    0.074432 0.881331 0.624258 0.014457
H66   H     H_    0.678068 0.788266 0.348363 0.194632
H67   H     H_    0.723592 0.579018 0.517215 0.162801
H68   H     H_    0.612012 0.715461 0.371097 0.140290
H69   H     H_    0.957367 0.142167 0.375173 0.187356
H70   H     H_    0.946813 0.085758 0.294265 0.164698
H71   H     H_    0.189573 0.211251 0.420302 0.203351
H72   H     H_    0.166625 0.124417 0.485970 0.164150
H73   H     H_    0.227680 0.688574 0.325288 0.204112
H74   H     H_    0.147111 0.739610 0.342043 0.153840
H75   H     H_    0.433555 0.725879 0.106792 0.150281
H76   H     H_    0.418740 0.705638 0.218527 0.100061
H77   H     H_    0.471523 0.303029 0.159418 0.097361
H78   H     H_    0.736267 0.268465 0.396330 0.164165
H79   H     H_    0.383454 0.309412 0.162871 0.126102
H80   H     H_    0.950701 0.234685 0.068648 0.120198
H81   H     H_    0.976385 0.199784 0.145381 0.105903
H82   H     H_    0.898491 0.797073 0.207960 0.120624
H83   H     H_    0.808217 0.786671 0.214905 0.121088
H84   H     H_    0.375957 0.353637 0.322803 0.182713
N1    N     N_R   0.408680 0.130160 0.995800 -0.064735
N2    N     N_R   0.403730 0.078230 0.935950 -0.049563
N3    N     N_R   0.903730 0.421770 0.935950 -0.044666
N4    N     N_R   0.903730 0.578230 0.935950 -0.053871
N5    N     N_R   0.426630 0.075970 0.212960 -0.046235
N6    N     N_R   0.426630 0.924030 0.212960 -0.047125
N7    N     N_R   0.926630 0.575970 0.212960 -0.049759
N8    N     N_R   0.926630 0.424030 0.212960 -0.044806
N9    N     N_R   0.591320 0.134600 0.004200 -0.042580
N10   N     N_R   0.591320 0.865400 0.004200 -0.036024
N11   N     N_R   0.091320 0.634600 0.004200 -0.032086
N12   N     N_R   0.408680 0.869840 0.995800 -0.069087
N13   N     N_R   0.091320 0.365400 0.004200 -0.043864
N14   N     N_R   0.578320 0.867660 0.846880 -0.115001
N15   N     N_R   0.578320 0.132340 0.846880 -0.113859
N16   N     N_R   0.078320 0.367660 0.846880 -0.101358
N17   N     N_R   0.078320 0.632340 0.846880 -0.119133
N18   N     N_R   0.573370 0.074390 0.787040 -0.078038
N19   N     N_R   0.573370 0.925610 0.787040 -0.078032
N20   N     N_R   0.073370 0.574390 0.787040 -0.089166
N21   N     N_R   0.073370 0.425610 0.787040 -0.071596
N22   N     N_R   0.596270 0.927870 0.064040 -0.058278
N23   N     N_R   0.908680 0.630160 0.995800 -0.068184
N24   N     N_R   0.596270 0.072130 0.064040 -0.059787
N25   N     N_R   0.096270 0.427870 0.064040 -0.059147
N26   N     N_R   0.096270 0.572130 0.064040 -0.059282
N27   N     N_3   0.598991 0.624839 0.690787 -0.145421
N28   N     N_3   0.619847 0.222126 0.574726 -0.197642
N29   N     N_3   0.326377 0.255475 0.640563 -0.173410
N30   N     N_3   0.088939 0.870461 0.678107 -0.164590
N31   N     N_3   0.670197 0.727057 0.356430 -0.197469
N32   N     N_3   0.942327 0.143678 0.320786 -0.200020
N33   N     N_3   0.215882 0.162568 0.432202 -0.181142
N34   N     N_R   0.908680 0.369840 0.995800 -0.069019
N35   N     N_3   0.203422 0.745362 0.334237 -0.184756
N36   N     N_3   0.386947 0.729026 0.189186 -0.214167
N37   N     N_3   0.433815 0.273387 0.142943 -0.213531
N38   N     N_3   0.926241 0.224301 0.148644 -0.211362
N39   N     N_3   0.866772 0.763247 0.185745 -0.206987
N40   N     N_R   0.421680 0.867580 0.153120 -0.059945
N41   N     N_R   0.421680 0.132420 0.153120 -0.049695
N42   N     N_R   0.921680 0.367580 0.153120 -0.061984
N43   N     N_R   0.921680 0.632420 0.153120 -0.048220
N44   N     N_R   0.403730 0.921770 0.935950 -0.051293
Ni1   Ni    Ni4+2 0.500000 0.131190 0.000000 0.253384
Ni2   Ni    Ni4+2 0.500000 0.868810 0.000000 0.259193
Ni3   Ni    Ni4+2 1.000000 0.631190 0.000000 0.274959
Ni4   Ni    Ni4+2 1.000000 0.368810 0.000000 0.236667
Ni5   Ni    Ni4+2 0.488650 0.000000 0.862740 0.205275
Ni6   Ni    Ni4+2 0.988650 0.500000 0.862740 0.220289
Ni7   Ni    Ni4+2 0.511350 0.000000 0.137260 0.207720
Ni8   Ni    Ni4+2 0.011350 0.500000 0.137260 0.208426

loop_
_geom_bond_atom_site_label_1
_geom_bond_atom_site_label_2
_ccdc_geom_bond_type
C6    C32   S    
C22   N31   S    
C77   N11   A    
C24   H10   S    
C40   C71   A    
C10   H56   S    
C8    C83   A    
C87   N21   A    
C23   C69   A    
N26   Ni8   S    
C26   H13   S    
H80   N38   S    
C57   C66   S    
N25   Ni8   S    
C78   H52   S    
H79   N37   S    
C14   C33   S    
C55   C68   S    
C3    C49   S    
C11   H55   S    
C81   N15   A    
H60   N28   S    
C16   C31   S    
C11   H67   S    
C12   C68   A    
C19   H19   S    
C23   N23   A    
C40   N36   S    
C19   C39   S    
C22   C29   S    
N12   Ni2   S    
C56   N24   A    
C10   C15   S    
C25   H11   S    
C59   C66   A    
C65   H39   S    
C43   N43   A    
C56   C88   A    
C53   C70   S    
C61   C69   A    
N11   N26   A    
C64   N7    A    
C59   H32   S    
C65   C73   A    
C21   C37   S    
C67   H51   S    
N6    N40   A    
H69   N32   S    
C85   H46   S    
N5    Ni7   S    
C5    C31   S    
C51   F3    S    
N8    N42   A    
H59   N27   S    
C50   F2    S    
C22   H9    S    
C80   N14   A    
H82   N39   S    
C52   C54   D    
C79   N13   A    
N16   N21   A    
C61   N4    A    
C14   N29   S    
C25   N33   S    
C53   H27   S    
N5    N41   A    
N6    Ni7   S    
C17   N28   S    
N1    Ni1   S    
C10   H54   S    
N40   Ni2   S    
C26   C48   S    
C60   H33   S    
C20   C29   S    
C65   N8    A    
C5    C85   A    
N3    Ni6   S    
C84   H44   S    
H65   N30   S    
C6    C81   A    
C7    C33   S    
C78   N26   A    
N2    Ni5   S    
C49   F16   S    
C83   F8    S    
C35   C48   S    
C15   C35   S    
N15   N18   A    
C43   N39   S    
C15   F9    S    
H58   N27   S    
C42   N38   S    
C2    C45   A    
C63   H37   S    
C46   F13   S    
C41   N37   S    
C6    C84   A    
C31   C44   S    
N7    N43   A    
C21   H4    S    
C38   H25   S    
C13   C30   S    
N17   Ni3   S    
C58   N44   A    
N21   Ni6   S    
C4    C79   A    
C56   H50   S    
H72   N33   S    
N20   Ni6   S    
C48   H17   S    
C30   C73   S    
N9    Ni1   S    
C61   H35   S    
N13   Ni4   S    
C79   H43   S    
C29   C74   S    
H77   N37   S    
C55   H29   S    
C48   F15   S    
C34   H34   S    
C4    C50   S    
C15   N30   S    
C8    C35   S    
C1    C66   A    
C40   N40   A    
C16   N27   S    
C35   C39   S    
C9    C14   S    
C14   F1    S    
N11   Ni3   S    
N14   Ni2   S    
H83   N39   S    
C11   C16   S    
N7    Ni8   S    
H61   N28   S    
N4    Ni6   S    
H62   N29   S    
C60   C70   A    
C57   H30   S    
C9    H45   S    
C9    H53   S    
H71   N33   S    
C63   N6    A    
C62   C72   A    
C32   C37   S    
H73   N35   S    
C5    C80   A    
N42   Ni4   S    
C19   C28   S    
C17   F11   S    
N3    N34   A    
N13   N25   A    
C37   H6    S    
H68   N31   S    
C2    C52   S    
C18   H18   S    
C41   C72   A    
C42   N42   A    
C80   F5    S    
C58   C68   A    
C39   H8    S    
C12   N12   A    
C63   C71   A    
C76   H41   S    
N14   N19   A    
N10   Ni2   S    
N44   Ni5   S    
C33   C47   S    
H74   N35   S    
C52   F4    S    
C28   C71   S    
H70   N32   S    
C44   H14   S    
N4    N23   A    
C86   N20   A    
C13   H57   S    
C3    C77   A    
C24   N32   S    
C26   N35   S    
C2    C76   A    
C9    C27   S    
C23   H23   S    
H66   N31   S    
N8    Ni8   S    
N17   N20   A    
C10   C28   S    
C34   C70   A    
C25   C47   S    
C47   H16   S    
C42   C73   A    
C22   C44   S    
C82   F7    S    
C85   N19   A    
C50   C57   D    
C32   C46   S    
C45   H49   S    
C36   H22   S    
C18   C27   S    
C45   N22   A    
C41   N41   A    
C4    C67   A    
C51   C88   S    
C75   N9    A    
N15   Ni1   S    
N34   Ni4   S    
C39   H26   S    
C58   H31   S    
C25   C27   S    
C54   H28   S    
C21   C30   S    
C26   C28   S    
C33   C38   S    
C13   C17   S    
H75   N36   S    
C87   H48   S    
C24   C46   S    
N22   Ni7   S    
C20   H3    S    
C18   C38   S    
N16   Ni4   S    
N9    N24   A    
C76   N10   A    
C86   H47   S    
C82   N16   A    
C81   F6    S    
C44   F12   S    
C16   F10   S    
C54   C69   S    
C64   H38   S    
C43   C74   A    
C60   N3    A    
H81   N38   S    
C77   H42   S    
C18   H84   S    
N23   Ni3   S    
C46   H15   S    
H76   N36   S    
N18   Ni5   S    
C8    C86   A    
C49   C55   D    
N41   Ni1   S    
N1    N2    A    
N10   N22   A    
C24   C30   S    
C20   H20   S    
N24   Ni7   S    
C67   N25   A    
C75   H40   S    
N19   Ni5   S    
C51   C53   D    
C20   C36   S    
C19   H2    S    
C84   N18   A    
C75   C88   A    
C7    C82   A    
C7    C87   A    
C37   H24   S    
C11   C29   S    
C83   N17   A    
C13   H78   S    
C36   H5    S    
C47   F14   S    
C17   C32   S    
C64   C74   A    
C31   C36   S    
C59   N2    A    
N43   Ni3   S    
N12   N44   A    
C62   N5    A    
C62   H36   S    
C38   H7    S    
C3    C78   A    
C21   H21   S    
H64   N30   S    
H63   N29   S    
C27   C72   S    
C34   N34   A    
C1    H1    S    
C12   H12   S    
C1    N1    A    
