data_mof_unit_33993.cif
_audit_creation_date              2012-12-10T20:31:55-0500
_audit_creation_method            fapswitch 2.2
_symmetry_space_group_name_H-M    P1
_symmetry_Int_Tables_number       1
_space_group_crystal_system       triclinic
_cell_length_a                    9.91202
_cell_length_b                    10.77737
_cell_length_c                    15.38258
_cell_angle_alpha                 91.003771
_cell_angle_beta                  68.394204
_cell_angle_gamma                 88.169318
_cell_volume                      1526.25772024

loop_
_atom_site_label
_atom_site_type_symbol
_atom_type_description
_atom_site_fract_x
_atom_site_fract_y
_atom_site_fract_z
_atom_type_partial_charge
C1    C     C_R   0.499985 0.739945 0.497376 0.943945
C2    C     C_R   0.392733 0.422074 0.920150 -0.117461
C3    C     C_R   0.247155 0.462165 0.973252 0.078033
C4    C     C_R   0.482717 0.377316 0.967349 -0.065155
C5    C     C_R   0.447772 0.418766 0.060655 0.038879
C6    C     C_R   0.303365 0.460478 0.113127 -0.177809
C7    C     C_R   0.202281 0.474494 0.070606 -0.131867
C8    C     C_R   0.607916 0.296447 0.924991 0.450526
C9    C     C_R   0.711551 0.285113 0.966288 -0.220311
C10   C     C_R   0.690341 0.347556 0.050856 0.047254
C11   C     C_R   0.558148 0.415601 0.098149 0.085672
C12   C     C_R   0.409788 0.495677 0.676246 0.943448
C13   C     C_R   0.797058 0.339629 0.090717 -0.085724
C14   C     C_R   0.772054 0.397310 0.177660 -0.153289
C15   C     C_R   0.541411 0.481460 0.180524 -0.177847
C16   C     C_R   0.391339 0.941757 0.478340 -0.075976
C17   C     C_R   0.507970 0.870921 0.483319 -0.151435
C18   C     C_R   0.639001 0.928508 0.470606 -0.225231
C19   C     C_R   0.642745 0.056849 0.473507 0.438157
C20   C     C_R   0.514583 0.127961 0.484902 -0.230698
C21   C     C_R   0.395308 0.068830 0.478947 -0.098753
C22   C     C_3   0.236107 0.087557 0.536098 0.723638
C23   C     C_R   0.503753 0.260054 0.497501 0.912147
C24   C     C_3   0.231085 0.945908 0.535674 0.663185
C25   C     C_R   0.883315 0.541298 0.576917 0.118979
C26   C     C_R   0.970953 0.443676 0.428820 0.418602
C27   C     C_R   0.113950 0.444102 0.428522 0.455957
C28   C     C_R   0.024879 0.537352 0.578255 0.079852
C29   C     C_3   0.000449 0.660788 0.626774 0.221179
C30   C     C_3   0.850575 0.668732 0.620615 0.194173
C31   C     C_R   0.590413 0.496758 0.323821 0.849343
C32   C     C_R   0.353737 0.478284 0.777958 -0.170702
C33   C     C_R   0.642045 0.466278 0.223641 -0.067997
C34   C     C_R   0.151682 0.495397 0.928070 0.432932
C35   C     C_R   0.205280 0.498086 0.830192 -0.352129
C36   C     C_R   0.448781 0.442804 0.823076 0.372444
H1    H     H_    0.735946 0.875214 0.466297 0.194583
H2    H     H_    0.264974 0.478777 0.187672 0.200754
N1    N     N_R   0.856900 0.500860 0.500610 -0.230593
N2    N     N_R   0.142540 0.500820 0.500610 -0.220745
O1    O     O_R   0.385310 0.683210 0.499990 -0.579068
O2    O     O_R   0.614650 0.683240 0.500000 -0.655493
O3    O     O_R   0.319830 0.499970 0.632240 -0.583068
O4    O     O_R   0.549170 0.500000 0.632250 -0.548372
O5    O     O_R   0.385350 0.316760 0.500000 -0.582012
O6    O     O_R   0.614690 0.316790 0.500010 -0.627498
O7    O     O_R   0.450830 0.500000 0.367750 -0.621219
O8    O     O_R   0.680170 0.500030 0.367760 -0.621025
Zn1   Zn    Zn3+2 0.346870 0.499980 0.499990 1.014384
Zn2   Zn    Zn3+2 0.653130 0.500020 0.500010 0.978767
H3    H     H_    0.091972 0.504450 0.113469 0.200671
H4    H     H_    0.897576 0.285793 0.056081 0.152822
O9    O     O_3   0.768927 0.108521 0.471276 -0.727329
H5    H     H_    0.746916 0.147105 0.534257 0.351081
O10   O     O_3   0.203939 0.145693 0.624881 -0.751682
H6    H     H_    0.272863 0.111752 0.652601 0.323686
O11   O     O_3   0.160921 0.145349 0.485408 -0.728840
H7    H     H_    0.056318 0.144428 0.525409 0.368982
O12   O     O_3   0.199942 0.895733 0.624178 -0.786961
H8    H     H_    0.097486 0.921455 0.661505 0.344228
O13   O     O_3   0.146213 0.897481 0.487908 -0.801597
H9    H     H_    0.189785 0.919237 0.421061 0.350091
O14   O     O_3   0.950070 0.380793 0.356648 -0.716040
H10   H     H_    0.850287 0.351455 0.380885 0.385313
O15   O     O_3   0.220869 0.381736 0.355614 -0.713115
H11   H     H_    0.288530 0.341986 0.381136 0.393976
O16   O     O_3   0.996346 0.650647 0.718318 -0.703213
H12   H     H_    0.978804 0.736343 0.745750 0.360878
H13   H     H_    0.446888 0.542148 0.214557 0.160230
H14   H     H_    0.078146 0.726588 0.584870 0.182967
O17   O     O_3   0.737718 0.671109 0.708510 -0.683905
H15   H     H_    0.648076 0.695911 0.697693 0.350079
H16   H     H_    0.838811 0.741424 0.572921 0.076854
H17   H     H_    0.850506 0.382945 0.210599 0.184831
H18   H     H_    0.808586 0.226649 0.932174 0.184506
O18   O     O_3   0.008579 0.529219 0.980534 -0.776458
H19   H     H_    0.956844 0.549325 0.937968 0.357874
H20   H     H_    0.132081 0.522568 0.795266 0.244418
O19   O     O_3   0.596532 0.437954 0.772532 -0.679420
H21   H     H_    0.645380 0.474512 0.812153 0.376959
O20   O     O_3   0.629249 0.222518 0.846492 -0.713006
H22   H     H_    0.534319 0.212827 0.839976 0.345762

loop_
_geom_bond_atom_site_label_1
_geom_bond_atom_site_label_2
_ccdc_geom_bond_type
C8    C9    A    
O10   H6    S    
C16   C21   A    
C23   O5    A    
C19   C20   A    
C4    C8    A    
C22   O11   S    
C30   O17   S    
O7    Zn1   S    
O9    H5    S    
C25   C28   A    
C26   C27   A    
C24   O13   S    
C14   H17   S    
C28   C29   S    
C18   H1    S    
C5    C11   A    
C12   O3    A    
C3    C7    A    
C5    C6    A    
C26   N1    A    
C28   N2    A    
O4    Zn2   S    
N2    Zn1   S    
C18   C19   A    
C34   C35   A    
C29   O16   S    
C11   C15   A    
C16   C17   A    
C6    H2    S    
C9    C10   A    
C19   O9    S    
O8    Zn2   S    
O12   H8    S    
C16   C24   S    
C23   O6    A    
C31   O7    A    
C13   C14   A    
C12   C32   S    
C14   C33   A    
O1    Zn1   S    
O20   H22   S    
C15   H13   S    
O16   H12   S    
C32   C35   A    
O18   H19   S    
C30   H16   S    
O3    Zn1   S    
C3    C34   A    
C36   O19   S    
C8    O20   S    
C2    C4    A    
C26   O14   S    
C29   C30   S    
C27   O15   S    
C13   H4    S    
C20   C23   S    
O5    Zn1   S    
C27   N2    A    
C31   C33   S    
C17   C18   A    
C22   O10   S    
O2    Zn2   S    
C1    O1    A    
C31   O8    A    
C22   C24   S    
O19   H21   S    
C32   C36   A    
C29   H14   S    
C2    C36   A    
C25   C30   S    
C4    C5    A    
C10   C13   A    
C6    C7    A    
O6    Zn2   S    
C35   H20   S    
C1    C17   S    
C2    C3    A    
C7    H3    S    
O17   H15   S    
C12   O4    A    
C25   N1    A    
O11   H7    S    
C24   O12   S    
O13   H9    S    
C10   C11   A    
O14   H10   S    
C1    O2    A    
N1    Zn2   S    
C20   C21   A    
O15   H11   S    
C9    H18   S    
C21   C22   S    
C15   C33   A    
C34   O18   S    
