data_mof_unit_9697.cif
_audit_creation_date              2012-12-10T17:12:35-0500
_audit_creation_method            fapswitch 2.2
_symmetry_space_group_name_H-M    P1
_symmetry_Int_Tables_number       1
_space_group_crystal_system       triclinic
_cell_length_a                    23.221357
_cell_length_b                    10.615859
_cell_length_c                    10.15864
_cell_angle_alpha                 88.572974
_cell_angle_beta                  92.222698
_cell_angle_gamma                 91.564283
_cell_volume                      2500.72406868

loop_
_atom_site_label
_atom_site_type_symbol
_atom_type_description
_atom_site_fract_x
_atom_site_fract_y
_atom_site_fract_z
_atom_type_partial_charge
C1    C     C_R   0.496578 0.262712 0.501503 0.946897
C2    C     C_R   0.121691 0.668441 0.422487 0.483272
C3    C     C_R   0.248470 0.633723 0.577952 -0.146860
C4    C     C_R   0.389632 0.502871 0.497810 0.846860
C5    C     C_R   0.306822 0.610391 0.580669 -0.219867
C6    C     C_R   0.328320 0.524998 0.493381 -0.045185
C7    C     C_R   0.291463 0.464821 0.401366 -0.285596
C8    C     C_R   0.232342 0.486651 0.398360 0.157303
C9    C     C_R   0.211080 0.571099 0.489047 0.312810
C10   C     C_R   0.767471 0.469305 0.426574 0.097321
C11   C     C_R   0.707269 0.447994 0.425555 -0.064797
C12   C     C_R   0.977814 0.433839 0.705941 -0.009679
C13   C     C_R   0.673220 0.519588 0.506847 -0.166140
C14   C     C_R   0.699234 0.612710 0.588139 -0.057115
C15   C     C_R   0.758541 0.631147 0.590796 -0.165555
C16   C     C_R   0.497956 0.736915 0.497949 0.906455
C17   C     C_R   0.792409 0.560385 0.511954 0.275995
C18   C     C_2   0.457893 0.932170 0.411239 0.139294
C19   C     C_2   0.495802 0.869859 0.491170 -0.346953
C20   C     C_2   0.465788 0.068276 0.401246 -0.191400
C21   C     C_2   0.483786 0.131019 0.507788 -0.372580
C22   C     C_2   0.515710 0.595663 0.924116 -0.183297
C23   C     C_R   0.037458 0.436883 0.698642 -0.219795
C24   C     C_2   0.528098 0.581879 0.070859 0.160319
C25   C     C_R   0.610509 0.502713 0.502154 0.888767
C26   C     C_R   0.879716 0.664347 0.442924 0.514275
C27   C     C_R   0.883455 0.505116 0.613111 0.489592
C28   C     C_R   0.944182 0.510482 0.618082 -0.060185
C29   C     C_R   0.972312 0.594035 0.528237 -0.034241
C30   C     C_R   0.939817 0.673349 0.442884 -0.035961
C31   C     C_1   0.953538 0.348886 0.803870 0.258589
C32   C     C_1   0.680713 0.349949 0.344750 0.173840
C33   C     C_1   0.665971 0.694415 0.666015 0.191447
C34   C     C_R   0.064955 0.514770 0.605949 -0.016106
C35   C     C_3   0.408746 0.870700 0.330192 -0.389743
C36   C     C_3   0.350220 0.918097 0.370264 -0.385355
C37   C     C_3   0.300596 0.855439 0.290995 -0.818203
C38   C     C_3   0.573409 0.671957 0.127427 -0.379031
C39   C     C_3   0.633764 0.632536 0.091404 -0.379060
C40   C     C_3   0.680547 0.716888 0.155695 -0.812368
C41   C     C_3   0.457426 0.411590 0.087275 -0.249399
C42   C     C_3   0.404772 0.369695 0.164869 -0.318441
C43   C     C_3   0.366677 0.274996 0.087632 -1.007590
C44   C     C_3   0.052460 0.864166 0.257305 -0.351220
C45   C     C_R   0.032885 0.596559 0.521861 -0.046649
C46   C     C_3   0.079049 0.975680 0.334071 -0.287038
C47   C     C_3   0.107326 0.072675 0.242057 -0.879135
C48   C     C_3   0.193169 0.415099 0.302291 -0.427434
C49   C     C_3   0.200398 0.465478 0.160956 -0.343920
C50   C     C_3   0.160394 0.394715 0.063772 -0.841972
C51   C     C_3   0.804864 0.396275 0.336971 -0.403062
C52   C     C_3   0.801051 0.450526 0.195573 -0.374620
C53   C     C_3   0.839507 0.380230 0.105455 -0.789172
C54   C     C_R   0.061217 0.678581 0.430349 -0.043496
C55   C     C_R   0.027609 0.763977 0.350224 0.092950
C56   C     C_R   0.967501 0.758462 0.357582 -0.196579
C57   C     C_R   0.124259 0.510301 0.594084 0.493924
H1    H     H_    0.778984 0.701268 0.654303 0.151830
H2    H     H_    0.335245 0.659187 0.650769 0.157472
H3    H     H_    0.308274 0.397469 0.335557 0.148106
H4    H     H_    0.304454 0.877968 0.184270 0.252794
H5    H     H_    0.300635 0.751547 0.306913 0.271952
H6    H     H_    0.258945 0.890833 0.323122 0.277911
H7    H     H_    0.344563 0.896792 0.476778 0.230601
H8    H     H_    0.348371 0.021826 0.353545 0.229951
H9    H     H_    0.414935 0.893678 0.224242 0.193093
H10   H     H_    0.407355 0.766741 0.342056 0.225061
H11   H     H_    0.674698 0.816703 0.123778 0.267507
H12   H     H_    0.530006 0.917765 0.547941 0.140406
H13   H     H_    0.679027 0.708846 0.264771 0.266242
H14   H     H_    0.723560 0.687359 0.125982 0.254782
H15   H     H_    0.640748 0.533465 0.125066 0.238905
H16   H     H_    0.637735 0.638154 0.982752 0.240508
H17   H     H_    0.565174 0.769024 0.088923 0.175652
H18   H     H_    0.572164 0.675024 0.235129 0.262381
H19   H     H_    0.350955 0.317446 0.992278 0.284039
H20   H     H_    0.391071 0.189125 0.068605 0.271587
H21   H     H_    0.328693 0.246752 0.145787 0.262114
H22   H     H_    0.416729 0.320919 0.257990 0.267816
H23   H     H_    0.457336 0.115682 0.306760 0.170151
H24   H     H_    0.377988 0.452935 0.179452 0.236789
H25   H     H_    0.434235 0.456276 0.002160 0.189258
H26   H     H_    0.479766 0.324805 0.061362 0.168415
H27   H     H_    0.143427 0.030065 0.191739 0.273437
H28   H     H_    0.075315 0.108427 0.167064 0.261759
H29   H     H_    0.124630 0.153351 0.300137 0.247947
H30   H     H_    0.044609 0.021983 0.386857 0.211551
H31   H     H_    0.111798 0.943267 0.408978 0.250837
H32   H     H_    0.083109 0.823381 0.190194 0.245270
H33   H     H_    0.017982 0.902070 0.189517 0.173347
H34   H     H_    0.486195 0.085478 0.604858 0.159587
H35   H     H_    0.170371 0.292913 0.065931 0.264908
H36   H     H_    0.114667 0.405783 0.088664 0.257927
H37   H     H_    0.166435 0.433369 0.962530 0.282485
H38   H     H_    0.190355 0.567296 0.154977 0.258750
H39   H     H_    0.245677 0.454797 0.132088 0.224769
H40   H     H_    0.203909 0.313658 0.308728 0.199196
H41   H     H_    0.147242 0.421219 0.327409 0.205809
H42   H     H_    0.885281 0.388760 0.140881 0.257094
H43   H     H_    0.826198 0.279012 0.102488 0.268699
H44   H     H_    0.835647 0.421397 0.004017 0.278225
H45   H     H_    0.521011 0.687917 0.877152 0.179604
H46   H     H_    0.755898 0.443767 0.155549 0.231936
H47   H     H_    0.814825 0.551560 0.195086 0.258745
H48   H     H_    0.850684 0.398584 0.372298 0.203967
H49   H     H_    0.791304 0.295049 0.338426 0.213721
H50   H     H_    0.513421 0.414903 0.888188 0.176510
H51   H     H_    0.062477 0.375948 0.764931 0.187012
H52   H     H_    0.941891 0.821671 0.295374 0.188520
H53   H     H_    0.231810 0.697794 0.647636 0.140165
N1    N     N_R   0.853370 0.578406 0.523839 -0.346931
N2    N     N_R   0.150722 0.584116 0.501917 -0.352340
N3    N     N_2   0.500610 0.501330 0.852150 -0.218562
N4    N     N_2   0.500630 0.501360 0.147810 -0.089984
N5    N     N_1   0.934444 0.280580 0.882384 -0.196533
N6    N     N_1   0.659496 0.271799 0.280286 -0.200001
N7    N     N_1   0.639356 0.759999 0.728059 -0.221143
O1    O     O_R   0.499990 0.319060 0.613040 -0.616185
O2    O     O_R   0.583840 0.500020 0.613040 -0.595038
O3    O     O_R   0.583850 0.500060 0.386900 -0.613915
O4    O     O_2   0.847621 0.739054 0.361349 -0.582001
O5    O     O_2   0.854167 0.425883 0.693820 -0.560616
O6    O     O_2   0.155557 0.430992 0.672421 -0.580443
O7    O     O_2   0.151783 0.739253 0.335993 -0.609810
O8    O     O_R   0.500010 0.319100 0.386900 -0.613318
O9    O     O_R   0.416150 0.499940 0.613100 -0.599125
O10   O     O_R   0.416160 0.499980 0.386960 -0.654312
O11   O     O_R   0.499990 0.680900 0.613100 -0.603424
O12   O     O_R   0.500010 0.680940 0.386960 -0.639649
Zn1   Zn    Zn3+2 0.499990 0.499970 0.650990 0.947334
Zn2   Zn    Zn3+2 0.500010 0.500030 0.349010 0.923782

loop_
_geom_bond_atom_site_label_1
_geom_bond_atom_site_label_2
_ccdc_geom_bond_type
C55   C56   A    
C52   H46   S    
C1    C21   S    
C40   H14   S    
O3    Zn2   S    
C41   C42   S    
C56   H52   S    
C35   C36   S    
C41   N4    S    
C14   C33   S    
C37   H5    S    
C7    C8    A    
C53   H42   S    
C43   H21   S    
C33   N7    T    
C48   H40   S    
C12   C23   A    
C2    N2    A    
C40   H13   S    
C12   C28   A    
C3    C9    A    
C47   H28   S    
C36   C37   S    
C1    O8    A    
C51   H49   S    
C38   H17   S    
C38   C39   S    
C57   N2    A    
O9    Zn1   S    
C10   C17   A    
C41   H26   S    
C25   O2    A    
O2    Zn1   S    
C18   C19   D    
N4    Zn2   S    
H50   N3    S    
C54   C55   A    
C22   N3    D    
C52   H47   S    
C53   H44   S    
C8    C9    A    
C34   C57   A    
C24   C38   S    
C39   H15   S    
C26   O4    S    
C18   C35   S    
C9    N2    S    
C27   N1    A    
C42   H22   S    
C13   C14   A    
C13   C25   S    
C42   H24   S    
C10   C51   S    
C17   N1    S    
C31   N5    T    
C37   H6    S    
C27   O5    S    
C44   C46   S    
C46   H31   S    
C38   H18   S    
C53   H43   S    
N3    Zn1   S    
C5    H2    S    
C51   C52   S    
C47   H29   S    
C4    C6    S    
C2    C54   A    
C39   C40   S    
C20   H23   S    
C36   H8    S    
C50   H37   S    
C35   H9    S    
C30   C56   A    
C49   H38   S    
C29   C45   A    
C8    C48   S    
C29   C30   A    
O1    Zn1   S    
C57   O6    S    
O8    Zn2   S    
C35   H10   S    
C51   H48   S    
C23   C34   A    
C34   C45   A    
C47   H27   S    
C32   N6    T    
C16   O12   A    
C16   O11   A    
C50   H35   S    
C48   C49   S    
C45   C54   A    
C26   C30   A    
C23   H51   S    
C12   C31   S    
C15   H1    S    
C22   C24   S    
C19   H12   S    
C42   C43   S    
C25   O3    A    
C7    H3    S    
C44   H33   S    
C52   C53   S    
C46   H30   S    
C21   H34   S    
C43   H19   S    
C15   C17   A    
C46   C47   S    
C28   C29   A    
C4    O10   A    
C14   C15   A    
C3    C5    A    
O11   Zn1   S    
C11   C32   S    
C37   H4    S    
C50   H36   S    
C6    C7    A    
C2    O7    S    
C43   H20   S    
C48   H41   S    
C22   H45   S    
C4    O9    A    
C11   C13   A    
C44   C55   S    
C5    C6    A    
C16   C19   S    
C41   H25   S    
C18   C20   S    
C1    O1    A    
C39   H16   S    
C49   H39   S    
O10   Zn2   S    
C10   C11   A    
C20   C21   D    
C49   C50   S    
C40   H11   S    
C27   C28   A    
C24   N4    D    
C3    H53   S    
C36   H7    S    
C26   N1    A    
C44   H32   S    
O12   Zn2   S    
