data_mof_unit_5916.cif
_audit_creation_date              2013-03-05T16:48:29-0500
_audit_creation_method            fapswitch 2.2
_symmetry_space_group_name_H-M    P1
_symmetry_Int_Tables_number       1
_space_group_crystal_system       triclinic
_cell_length_a                    10.814311
_cell_length_b                    14.697099
_cell_length_c                    14.806208
_cell_angle_alpha                 64.925811
_cell_angle_beta                  103.760908
_cell_angle_gamma                 102.969911
_cell_volume                      2049.78411728

loop_
_atom_site_label
_atom_site_type_symbol
_atom_site_description
_atom_site_fract_x
_atom_site_fract_y
_atom_site_fract_z
_atom_type_partial_charge
O1    O     O_R   0.455540 0.022090 0.338120 -0.588932
O2    O     O_R   0.544460 0.977910 0.661880 -0.588932
O3    O     O_R   0.512510 0.160150 0.379180 -0.591498
O4    O     O_R   0.487490 0.839850 0.620820 -0.591516
C1    C     C_R   0.476927 0.119581 0.312619 0.789753
C2    C     C_R   0.523071 0.880419 0.687381 0.789750
O5    O     O_R   0.291160 0.930970 0.479480 -0.585249
O6    O     O_R   0.708840 0.069030 0.520520 -0.585248
O7    O     O_R   0.348130 0.069020 0.520540 -0.571978
O8    O     O_R   0.651870 0.930980 0.479460 -0.571982
C3    C     C_R   0.262802 0.999118 0.501970 0.794656
C4    C     C_R   0.737199 0.000882 0.498030 0.794650
Cu1   Cu    Cu3+1 0.466270 0.918260 0.475690 0.943770
Cu2   Cu    Cu3+1 0.533730 0.081740 0.524310 0.943784
H1    H     H_    0.458459 0.185614 0.803030 0.150785
H2    H     H_    0.541486 0.814407 0.196991 0.150772
C5    C     C_R   0.358072 0.051371 0.779314 -0.136971
C6    C     C_R   0.641923 0.948650 0.220685 -0.136980
H3    H     H_    0.414212 0.000448 0.844401 0.133191
H4    H     H_    0.585794 0.999577 0.155593 0.133189
C7    C     C_R   0.261557 0.012845 0.717937 -0.109464
C8    C     C_R   0.738457 0.987173 0.282053 -0.109505
H5    H     H_    0.244340 0.932051 0.735666 0.110283
H6    H     H_    0.755697 0.067969 0.264315 0.110288
C9    C     C_R   0.189575 0.078874 0.632658 0.117308
C10   C     C_R   0.810424 0.921138 0.367338 0.117306
C11   C     C_R   0.214356 0.183464 0.610167 -0.150813
C12   C     C_R   0.785611 0.816546 0.389844 -0.150806
H7    H     H_    0.160827 0.235452 0.543975 0.127330
H8    H     H_    0.839127 0.764554 0.456042 0.127329
C13   C     C_R   0.311403 0.221637 0.671374 -0.041848
C14   C     C_R   0.688544 0.778376 0.328647 -0.041782
H9    H     H_    0.331705 0.302528 0.652721 0.168326
H10   H     H_    0.668215 0.697484 0.347311 0.168317
C15   C     C_R   0.383126 0.155724 0.755935 -0.067920
C16   C     C_R   0.616835 0.844295 0.244079 -0.067839
C17   C     C_R   0.964972 0.041544 0.557861 -0.231561
C18   C     C_R   0.035029 0.958462 0.442136 -0.231549
H11   H     H_    0.937826 0.071847 0.604498 0.161286
H12   H     H_    0.062174 0.928158 0.395499 0.161282
C19   C     C_R   0.870831 0.001589 0.496162 -0.084341
C20   C     C_R   0.129170 0.998414 0.503837 -0.084334
C21   C     C_R   0.905887 0.960446 0.436826 -0.001238
C22   C     C_R   0.094115 0.039562 0.563170 -0.001236
C23   C     C_R   0.452987 0.186740 0.205794 -0.051499
C24   C     C_R   0.546995 0.813261 0.794206 -0.051492
C25   C     C_R   0.329510 0.221405 0.039133 -0.145824
C26   C     C_R   0.670406 0.778614 0.960886 -0.145826
C27   C     C_R   0.367676 0.152661 0.136142 -0.226040
C28   C     C_R   0.632260 0.847351 0.863869 -0.226062
C29   C     C_R   0.506210 0.288542 0.176115 -0.226491
C30   C     C_R   0.493795 0.711453 0.823882 -0.226551
C31   C     C_R   0.472667 0.359805 0.077537 0.075076
C32   C     C_R   0.527290 0.640204 0.922476 0.075072
C33   C     C_R   0.379262 0.325433 0.008775 0.036864
C34   C     C_R   0.620664 0.674585 0.991244 0.036883
C35   C     C_R   0.524465 0.464650 0.047861 0.009732
C36   C     C_R   0.475479 0.535363 0.952160 0.009733
C37   C     C_R   0.376295 0.499219 0.888771 -0.278445
C38   C     C_R   0.623621 0.500803 0.111261 -0.278487
C39   C     C_R   0.331940 0.396306 0.913875 0.320580
C40   C     C_R   0.667965 0.603718 0.086155 0.320641
H13   H     H_    0.431182 0.689578 0.766106 0.148467
H14   H     H_    0.568890 0.310395 0.233880 0.148440
H15   H     H_    0.675508 0.926096 0.841645 0.148174
H16   H     H_    0.324412 0.073919 0.158369 0.148166
H17   H     H_    0.256419 0.192295 0.990469 0.192448
H18   H     H_    0.743472 0.807733 0.009557 0.192461
H19   H     H_    0.329928 0.549105 0.817815 0.176878
H20   H     H_    0.669964 0.450929 0.182234 0.176858
N1    N     N_R   0.584450 0.204570 0.560790 -0.175552
N2    N     N_R   0.415550 0.795430 0.439210 -0.175548
C41   C     C_R   0.692648 0.273570 0.682913 -0.274121
C42   C     C_R   0.307327 0.726418 0.317100 -0.274398
C43   C     C_R   0.668334 0.196748 0.647054 0.065556
C44   C     C_R   0.331661 0.803250 0.352949 0.065678
C45   C     C_R   0.526241 0.289149 0.504747 0.051055
C46   C     C_R   0.473748 0.710846 0.495260 0.051048
C47   C     C_R   0.549909 0.371910 0.535491 -0.060759
C48   C     C_R   0.450057 0.628076 0.464528 -0.060686
C49   C     C_R   0.631427 0.360596 0.629019 0.056714
C50   C     C_R   0.368530 0.639385 0.371004 0.056511
C51   C     C_R   0.491171 0.462480 0.479398 0.005825
C52   C     C_R   0.508785 0.537499 0.520627 0.005933
C53   C     C_R   0.583300 0.519160 0.617131 -0.296473
C54   C     C_R   0.416621 0.480804 0.382908 -0.296208
C55   C     C_R   0.648133 0.434507 0.669130 0.432491
C56   C     C_R   0.351798 0.565456 0.330915 0.432389
H21   H     H_    0.542896 0.712154 0.560458 0.121193
H22   H     H_    0.457106 0.287841 0.439544 0.121227
H23   H     H_    0.286880 0.871212 0.309741 0.124171
H24   H     H_    0.713123 0.128789 0.690257 0.124181
H25   H     H_    0.757044 0.263524 0.753706 0.189973
H26   H     H_    0.242930 0.736462 0.246308 0.189898
H27   H     H_    0.590968 0.568377 0.655833 0.147496
H28   H     H_    0.408860 0.431561 0.344217 0.147652
O9    O     O_3   0.715344 0.417509 0.765710 -0.587687
C57   C     C_3   0.830463 0.486440 0.759828 0.064444
H29   H     H_    0.810603 0.566252 0.727656 0.130438
H30   H     H_    0.890514 0.478147 0.712845 0.184446
C58   C     C_3   0.906628 0.464247 0.865724 -0.700210
H31   H     H_    0.929989 0.385467 0.899881 0.260476
H32   H     H_    0.997609 0.517893 0.862295 0.209943
H33   H     H_    0.849534 0.473105 0.914037 0.234663
O10   O     O_3   0.284516 0.582381 0.234372 -0.587687
C59   C     C_3   0.169152 0.513721 0.240414 0.064431
H34   H     H_    0.109147 0.522700 0.286990 0.184861
H35   H     H_    0.188619 0.433769 0.273143 0.130366
C60   C     C_3   0.093189 0.535457 0.134516 -0.700357
H36   H     H_    0.150236 0.525876 0.086630 0.234656
H37   H     H_    0.001988 0.482049 0.138081 0.210120
H38   H     H_    0.070246 0.614374 0.099797 0.260249
N3    N     N_R   0.235932 0.365990 0.842298 0.109412
O11   O     O_R   0.143082 0.419540 0.790466 -0.402631
O12   O     O_R   0.254171 0.297299 0.815229 -0.405699
N4    N     N_R   0.763944 0.634043 0.157739 0.109456
O13   O     O_R   0.856793 0.580499 0.209592 -0.402791
O14   O     O_R   0.745683 0.702741 0.184787 -0.405734

loop_
_geom_bond_atom_site_label_1
_geom_bond_atom_site_label_2
_geom_bond_distance
_ccdc_geom_bond_type
C47   C51   1.434122 A    
C58   H31   1.111031 S    
C11   H7    1.083220 S    
C41   C43   1.390766 A    
Cu2   N1    2.023002 S    
C42   H26   1.083128 S    
C41   H25   1.083129 S    
C48   C52   1.434143 A    
O9    C57   1.412240 S    
C25   C27   1.389009 A    
O5    C3    1.295082 A    
C42   C44   1.390767 A    
O1    C1    1.297422 A    
C14   C16   1.398178 A    
C8    H6    1.083238 S    
C18   H12   1.084965 S    
C18   C20   1.399890 A    
C60   H37   1.110767 S    
C46   C48   1.423487 A    
C59   H34   1.114691 S    
C23   C29   1.392652 A    
C24   C30   1.392659 A    
C54   C56   1.398177 A    
N4    O13   1.301073 A    
C3    C20   1.449599 S    
C38   C40   1.392352 A    
C41   C49   1.405243 A    
O4    Cu1   1.945089 S    
N2    C46   1.363275 A    
C54   H28   1.077161 S    
C13   H9    1.082247 S    
C38   H20   1.074345 S    
N2    C44   1.355958 A    
C31   C33   1.424663 A    
C58   H32   1.110804 S    
Cu1   Cu2   2.693081 S    
C19   C21   1.411669 A    
O2    C2    1.297423 A    
C20   C22   1.411680 A    
C42   C50   1.405230 A    
C9    C22   1.479492 S    
H1    C15   1.082426 S    
C30   C32   1.407773 A    
C10   C21   1.479478 S    
C45   C47   1.423495 A    
C46   H21   1.075774 S    
C32   C34   1.424640 A    
C45   H22   1.075761 S    
C37   C39   1.392347 A    
C27   H16   1.083458 S    
C53   C55   1.398266 A    
C11   C13   1.397012 A    
C12   C14   1.397004 A    
C52   C53   1.409583 A    
C48   C50   1.418556 A    
C60   H38   1.110951 S    
C47   C49   1.418559 A    
C31   C35   1.427246 A    
C35   C38   1.414729 A    
C36   C37   1.414715 A    
C1    C23   1.462750 S    
C30   H13   1.073987 S    
C5    C7    1.398371 A    
C29   C31   1.407785 A    
C14   H10   1.082243 S    
O7    Cu2   1.963103 S    
C40   N4    1.438296 S    
C4    C19   1.449602 S    
C51   C52   1.430184 A    
C23   C27   1.394026 A    
O6    C4    1.295075 A    
C25   H17   1.079599 S    
C26   H18   1.079594 S    
O7    C3    1.294502 A    
C49   C55   1.404633 A    
O3    Cu2   1.945090 S    
O8    C4    1.294509 A    
C43   H24   1.081497 S    
C37   H19   1.074367 S    
O4    C2    1.299798 A    
C58   H33   1.111301 S    
C57   H30   1.114809 S    
C7    H5    1.083237 S    
C39   N3    1.438309 S    
C34   C40   1.406358 A    
O1    Cu1   1.955393 S    
N1    C45   1.363264 A    
C25   C33   1.411526 A    
N3    O11   1.301082 A    
C32   C36   1.427229 A    
C26   C34   1.411522 A    
C7    C9    1.405323 A    
O6    Cu2   1.960192 S    
C2    C24   1.462740 S    
C6    C8    1.398366 A    
C29   H14   1.073977 S    
O3    C1    1.299804 A    
O8    Cu1   1.963103 S    
Cu1   N2    2.023002 S    
C9    C11   1.403299 A    
C57   C58   1.521826 S    
O10   C59   1.412181 S    
C24   C28   1.394026 A    
C10   C12   1.403291 A    
C17   C22   1.386214 A    
C12   H8    1.083218 S    
C18   C21   1.386210 A    
C17   H11   1.084965 S    
C60   H36   1.111215 S    
H2    C16   1.082425 S    
N1    C43   1.355954 A    
C56   O10   1.385501 S    
C53   H27   1.077155 S    
C35   C36   1.417883 A    
C59   H35   1.113447 S    
C50   C56   1.404619 A    
C33   C39   1.406373 A    
C13   C15   1.398178 A    
C26   C28   1.389002 A    
C5    H3    1.082460 S    
N4    O14   1.299478 A    
C6    H4    1.082459 S    
C17   C19   1.399889 A    
O2    Cu2   1.955393 S    
C28   H15   1.083456 S    
C44   H23   1.081498 S    
O5    Cu1   1.960191 S    
C51   C54   1.409578 A    
C57   H29   1.113470 S    
C8    C10   1.405320 A    
C5    C15   1.397694 A    
N3    O12   1.299487 A    
C6    C16   1.397689 A    
C55   O9    1.385572 S    
C59   C60   1.521791 S    
