data_mof_unit_13042.cif
_audit_creation_date              2012-12-10T19:04:57-0500
_audit_creation_method            fapswitch 2.2
_symmetry_space_group_name_H-M    P1
_symmetry_Int_Tables_number       1
_space_group_crystal_system       triclinic
_cell_length_a                    13.055172
_cell_length_b                    13.655615
_cell_length_c                    15.729892
_cell_angle_alpha                 91.045391
_cell_angle_beta                  92.68948
_cell_angle_gamma                 85.637192
_cell_volume                      2792.75963279

loop_
_atom_site_label
_atom_site_type_symbol
_atom_type_description
_atom_site_fract_x
_atom_site_fract_y
_atom_site_fract_z
_atom_type_partial_charge
C1    C     C_R   0.481125 0.685087 0.499613 0.911164
C2    C     C_2   0.546585 0.021586 0.515721 -0.044041
C3    C     C_2   0.456526 0.979569 0.514206 0.430359
C4    C     C_R   0.499639 0.499781 0.661884 0.887086
C5    C     C_1   0.457347 0.875155 0.508502 -0.144158
C6    C     C_1   0.542916 0.125359 0.510469 0.046052
C7    C     C_1   0.465886 0.787978 0.503726 -0.183318
C8    C     C_2   0.032188 0.475744 0.477018 0.355570
C9    C     C_2   0.965775 0.535114 0.523608 -0.097220
C10   C     C_1   0.854113 0.522932 0.517235 0.173785
C11   C     C_1   0.145299 0.481151 0.483211 -0.000213
C12   C     C_3   0.434437 0.557369 0.049668 0.163967
C13   C     C_R   0.518797 0.314969 0.501037 0.888767
C14   C     C_R   0.500948 0.498599 0.338012 0.902402
C15   C     C_3   0.436806 0.574153 0.951644 0.352285
C16   C     C_3   0.641925 0.529810 0.954455 -0.149522
C17   C     C_3   0.636739 0.527957 0.060168 0.357166
C18   C     C_1   0.505149 0.492307 0.249443 -0.189671
C19   C     C_3   0.527768 0.498034 0.917373 -0.014882
C20   C     C_R   0.649070 0.965859 0.519526 0.076767
C21   C     C_R   0.721697 0.982375 0.459211 -0.131168
C22   C     C_R   0.818339 0.930604 0.463165 -0.134292
C23   C     C_3   0.528630 0.488076 0.083736 0.084988
C24   C     C_R   0.843443 0.862708 0.527605 -0.100255
C25   C     C_R   0.772269 0.846738 0.588534 -0.118203
C26   C     C_R   0.675631 0.898477 0.584822 -0.148089
C27   C     C_R   0.001644 0.612442 0.584155 0.058666
C28   C     C_R   0.957978 0.625341 0.664164 -0.143075
C29   C     C_R   0.990727 0.696977 0.721721 -0.132746
C30   C     C_R   0.066809 0.757307 0.699959 -0.113226
C31   C     C_R   0.109139 0.747084 0.620106 -0.136333
C32   C     C_R   0.076048 0.675997 0.562077 -0.148402
C33   C     C_R   0.440146 0.683051 0.921962 0.090806
C34   C     C_3   0.513051 0.384302 0.045486 -0.021124
C35   C     C_R   0.395514 0.708644 0.840406 -0.157103
C36   C     C_R   0.390385 0.804924 0.811112 -0.169394
C37   C     C_R   0.428107 0.879246 0.862484 -0.103235
C38   C     C_R   0.471744 0.857097 0.942897 -0.153999
C39   C     C_R   0.478674 0.760767 0.972112 -0.080172
C40   C     C_R   0.728298 0.455509 0.915702 0.040601
C41   C     C_R   0.772482 0.474223 0.836762 -0.163494
C42   C     C_R   0.850372 0.411337 0.802905 -0.135067
C43   C     C_R   0.887536 0.327017 0.845498 -0.104129
C44   C     C_R   0.844916 0.303905 0.920965 -0.121930
C45   C     C_3   0.504367 0.386554 0.944763 0.377261
C46   C     C_R   0.765907 0.365567 0.954335 -0.125283
C47   C     C_R   0.671162 0.637327 0.925511 0.183065
C48   C     C_R   0.641509 0.677887 0.844099 -0.182341
C49   C     C_R   0.672837 0.767219 0.816975 -0.122369
C50   C     C_R   0.736888 0.821123 0.868703 -0.128256
C51   C     C_R   0.770224 0.785259 0.947695 -0.184557
C52   C     C_R   0.739518 0.695676 0.975098 -0.084630
C53   C     C_R   0.738108 0.479588 0.108124 0.086650
C54   C     C_R   0.738301 0.416779 0.179518 -0.122223
C55   C     C_R   0.829060 0.383644 0.224221 -0.109523
C56   C     C_1   0.515116 0.487641 0.174853 0.003347
C57   C     C_R   0.923473 0.410602 0.199520 -0.081950
C58   C     C_R   0.927534 0.469552 0.129097 -0.148061
C59   C     C_R   0.837175 0.503169 0.084325 -0.156322
C60   C     C_R   0.562687 0.293393 0.903226 0.177394
C61   C     C_R   0.548703 0.199566 0.936769 -0.092599
C62   C     C_R   0.591066 0.112798 0.899868 -0.164543
C63   C     C_R   0.644115 0.115577 0.825577 -0.120260
C64   C     C_R   0.654794 0.205242 0.788079 -0.124065
C65   C     C_R   0.613956 0.292436 0.825396 -0.137811
C66   C     C_1   0.513621 0.498778 0.825836 0.047732
C67   C     C_1   0.501722 0.498727 0.750525 -0.207997
C68   C     C_1   0.533681 0.212304 0.505712 -0.163219
H1    H     H_    0.365275 0.516277 0.060874 0.125989
H2    H     H_    0.792021 0.794583 0.638740 0.135278
H3    H     H_    0.621404 0.886632 0.632809 0.112572
H4    H     H_    0.898481 0.579994 0.682241 0.113611
H5    H     H_    0.956832 0.705810 0.783166 0.138791
H6    H     H_    0.092202 0.812661 0.744612 0.127947
H7    H     H_    0.166829 0.795047 0.602721 0.131078
H8    H     H_    0.107189 0.672328 0.499470 0.128173
H9    H     H_    0.048603 0.368796 0.394766 0.327949
H10   H     H_    0.363444 0.653978 0.798563 0.187485
H11   H     H_    0.356292 0.821889 0.748534 0.135639
H12   H     H_    0.438061 0.362189 0.067876 0.117642
H13   H     H_    0.423723 0.953934 0.839949 0.135403
H14   H     H_    0.501090 0.914560 0.983154 0.125200
H15   H     H_    0.517116 0.749994 0.033110 0.248516
H16   H     H_    0.746727 0.535292 0.797594 0.141345
H17   H     H_    0.881232 0.427364 0.742538 0.131663
H18   H     H_    0.947741 0.278491 0.819049 0.133296
H19   H     H_    0.871659 0.236750 0.953226 0.136162
H20   H     H_    0.735177 0.339527 0.010191 0.218202
H21   H     H_    0.596113 0.642428 0.797254 0.132264
H22   H     H_    0.647334 0.794150 0.754834 0.122309
H23   H     H_    0.348435 0.671769 0.086283 0.322119
H24   H     H_    0.761402 0.890106 0.847352 0.122755
H25   H     H_    0.820808 0.826944 0.988311 0.135026
H26   H     H_    0.770260 0.677231 0.037463 0.170101
H27   H     H_    0.636845 0.625944 0.154998 0.356431
H28   H     H_    0.671006 0.389073 0.202824 0.158895
H29   H     H_    0.825926 0.336168 0.278290 0.154938
H30   H     H_    0.993619 0.384248 0.233884 0.138121
H31   H     H_    0.001283 0.488093 0.107927 0.136210
H32   H     H_    0.848322 0.540843 0.026678 0.137184
H33   H     H_    0.377333 0.313548 0.943245 0.314345
H34   H     H_    0.284771 0.589415 0.941499 0.315578
H35   H     H_    0.503127 0.192374 0.991682 0.133592
H36   H     H_    0.581406 0.043017 0.928380 0.129378
H37   H     H_    0.675733 0.048265 0.796398 0.123695
H38   H     H_    0.695207 0.207521 0.729662 0.139565
H39   H     H_    0.627745 0.357066 0.792297 0.143804
H40   H     H_    0.563664 0.283394 0.127051 0.333280
H41   H     H_    0.307317 0.992762 0.510770 0.332490
H42   H     H_    0.703158 0.034608 0.408772 0.126392
H43   H     H_    0.873788 0.943108 0.416245 0.132048
H44   H     H_    0.918166 0.822898 0.530381 0.146510
N1    N     N_1   0.234540 0.484780 0.486630 -0.083074
N2    N     N_1   0.765460 0.515220 0.513370 -0.098158
O1    O     O_R   0.402510 0.634760 0.495110 -0.614999
O2    O     O_3   0.340940 0.545937 0.916994 -0.719116
O3    O     O_3   0.590131 0.315469 0.077183 -0.831996
O4    O     O_3   0.364352 0.036950 0.512806 -0.754640
O5    O     O_3   0.991261 0.406290 0.422983 -0.775688
O6    O     O_3   0.628141 0.625256 0.091868 -0.793291
O7    O     O_3   0.400541 0.374339 0.919082 -0.708347
O8    O     O_R   0.572960 0.644530 0.503690 -0.602202
O9    O     O_R   0.414740 0.495110 0.618560 -0.585381
O10   O     O_R   0.585180 0.504880 0.627150 -0.631688
O11   O     O_R   0.427040 0.355470 0.496310 -0.585224
O12   O     O_R   0.597490 0.365240 0.504890 -0.615181
O13   O     O_R   0.414820 0.495120 0.372850 -0.607344
O14   O     O_R   0.585260 0.504890 0.381440 -0.607896
O15   O     O_3   0.420268 0.644460 0.098331 -0.761338
Zn1   Zn    Zn3+2 0.386190 0.493480 0.494270 0.993891
Zn2   Zn    Zn3+2 0.613810 0.506520 0.505730 0.971280

loop_
_geom_bond_atom_site_label_1
_geom_bond_atom_site_label_2
_ccdc_geom_bond_type
C12   H1    S    
C45   C60   S    
C40   C41   A    
C26   H3    S    
N2    Zn2   S    
C14   C18   S    
C35   C36   A    
C24   H44   S    
C49   H22   S    
C21   H42   S    
C53   C59   A    
C23   C56   S    
C28   H4    S    
C53   C54   A    
C40   C46   A    
C12   C23   S    
C33   C39   A    
C36   C37   A    
C61   H35   S    
C16   C19   S    
C30   C31   A    
C30   H6    S    
C29   H5    S    
C14   O14   A    
C4    O10   A    
C19   C66   S    
C41   C42   A    
C1    O8    A    
C17   O6    S    
C34   H12   S    
O11   Zn1   S    
C31   C32   A    
C8    C9    D    
C52   H26   S    
C63   H37   S    
C44   H19   S    
C9    C10   S    
C62   H36   S    
C10   N2    T    
C18   C56   T    
C3    C5    S    
C13   O11   A    
C34   O3    S    
C6    C68   T    
C66   C67   T    
C21   C22   A    
C38   H14   S    
C59   H32   S    
C37   H13   S    
C2    C6    S    
C16   C47   S    
C44   C46   A    
H41   O4    S    
C46   H20   S    
C12   O15   S    
C2    C20   S    
C51   C52   A    
C24   C25   A    
N1    Zn1   S    
C34   C45   S    
C16   C17   S    
C45   O7    S    
C25   C26   A    
C41   H16   S    
H33   O7    S    
C14   O13   A    
C4    O9    A    
C60   C61   A    
C15   C19   S    
C43   C44   A    
C37   C38   A    
C3    O4    S    
C31   H7    S    
C47   C48   A    
C12   C15   S    
C23   C34   S    
C55   H29   S    
C62   C63   A    
C50   C51   A    
C42   H17   S    
C17   C23   S    
C16   C40   S    
C13   O12   A    
C50   H24   S    
C48   C49   A    
C51   H25   S    
C60   C65   A    
C49   C50   A    
C48   H21   S    
C55   C57   A    
O9    Zn1   S    
C22   C24   A    
C42   C43   A    
O14   Zn2   S    
C17   C53   S    
O8    Zn2   S    
C9    C27   S    
C5    C7    T    
C54   C55   A    
C28   C29   A    
C27   C32   A    
C1    C7    S    
C43   H18   S    
C54   H28   S    
H40   O3    S    
C58   H31   S    
H9    O5    S    
C36   H11   S    
C32   H8    S    
C4    C67   S    
C19   C45   S    
C64   H38   S    
C47   C52   A    
H23   O15   S    
H27   O6    S    
C35   H10   S    
C64   C65   A    
C2    C3    D    
C58   C59   A    
O13   Zn1   S    
C39   H15   S    
C57   C58   A    
C38   C39   A    
C20   C26   A    
O12   Zn2   S    
C8    C11   S    
C57   H30   S    
C33   C35   A    
C15   C33   S    
C61   C62   A    
C11   N1    T    
H34   O2    S    
C29   C30   A    
C63   C64   A    
C20   C21   A    
O10   Zn2   S    
C22   H43   S    
C27   C28   A    
C15   O2    S    
O1    Zn1   S    
C25   H2    S    
C1    O1    A    
C65   H39   S    
C8    O5    S    
C13   C68   S    
