data_mof_unit_53088.cif
_audit_creation_date              2012-10-26T21:01:05-0400
_audit_creation_method            fapswitch 2.2
_symmetry_space_group_name_H-M    P1
_symmetry_Int_Tables_number       1
_space_group_crystal_system       triclinic
_cell_length_a                    10.843164
_cell_length_b                    10.82802
_cell_length_c                    9.549278
_cell_angle_alpha                 89.328609
_cell_angle_beta                  88.668043
_cell_angle_gamma                 89.460192
_cell_volume                      1120.75386149

loop_
_atom_site_label
_atom_site_type_symbol
_atom_type_description
_atom_site_fract_x
_atom_site_fract_y
_atom_site_fract_z
_atom_type_partial_charge
C1    C     C_R   0.503999 0.262624 0.500532 0.553823
C2    C     C_R   0.394366 0.522647 0.076439 -0.030188
C3    C     C_R   0.394410 0.522729 0.927973 -0.030837
C4    C     C_R   0.265150 0.495441 0.502102 0.548793
C5    C     C_R   0.607997 0.493718 0.923554 0.162076
C6    C     C_3   0.700094 0.391239 0.915840 -0.284189
C7    C     C_3   0.699877 0.390394 0.074772 -0.291672
C8    C     C_R   0.495058 0.737314 0.499099 0.539325
C9    C     C_R   0.734753 0.495017 0.498393 0.542070
C10   C     C_2   0.936628 0.410292 0.423199 -0.007011
C11   C     C_2   0.867617 0.495237 0.492839 -0.095330
C12   C     C_R   0.505963 0.129677 0.499944 -0.024218
C13   C     C_2   0.070446 0.429535 0.408531 -0.142466
C14   C     C_2   0.133060 0.480567 0.511429 -0.136223
C15   C     C_R   0.472932 0.060517 0.617975 0.029676
C16   C     C_3   0.884414 0.294013 0.360723 -0.265008
C17   C     C_3   0.926220 0.179436 0.442130 -0.445504
C18   C     C_3   0.663246 0.046576 0.808896 -0.033546
C19   C     C_3   0.753718 0.038804 0.929229 -0.264081
C20   C     C_3   0.883108 0.002856 0.876909 -0.475885
C21   C     C_3   0.222708 0.829587 0.705459 0.012809
C22   C     C_3   0.152409 0.900853 0.592187 -0.257063
C23   C     C_R   0.531961 0.065245 0.374959 -0.183135
C24   C     C_3   0.080062 0.814402 0.500742 -0.494545
C25   C     C_3   0.331457 0.193042 0.934105 0.073648
C26   C     C_3   0.291892 0.094313 0.042408 -0.258805
C27   C     C_3   0.260188 0.151904 0.183984 -0.499226
C28   C     C_R   0.525550 0.936092 0.373390 -0.159005
C29   C     C_R   0.487788 0.870236 0.495188 -0.029628
C30   C     C_R   0.450103 0.938369 0.611434 -0.074683
C31   C     C_3   0.410713 0.927285 0.763790 0.182208
C32   C     C_3   0.444798 0.066380 0.772609 0.552281
C33   C     C_R   0.607962 0.493334 0.070798 0.164639
Cu1   Cu    Cu3+1 0.499990 0.499980 0.640670 0.940358
Cu2   Cu    Cu3+1 0.500010 0.500020 0.359330 0.914799
H1    H     H_    0.308056 0.537916 0.132353 0.122250
H2    H     H_    0.559376 0.113800 0.279559 0.135126
H3    H     H_    0.552462 0.888415 0.278224 0.141536
H4    H     H_    0.468729 0.863890 0.827359 0.106292
H5    H     H_    0.028333 0.169824 0.437019 0.160098
H6    H     H_    0.894832 0.185520 0.553440 0.146523
H7    H     H_    0.885581 0.095793 0.396102 0.130117
H8    H     H_    0.782210 0.294314 0.361067 0.162106
H9    H     H_    0.917193 0.286108 0.250089 0.125007
H10   H     H_    0.699072 0.112379 0.727725 0.140650
H11   H     H_    0.657929 0.952969 0.763006 0.115410
H12   H     H_    0.308436 0.537785 0.875212 0.113104
H13   H     H_    0.758100 0.129245 0.982203 0.163259
H14   H     H_    0.720773 0.968977 0.007410 0.161572
H15   H     H_    0.881809 0.911845 0.824450 0.146857
H16   H     H_    0.946066 0.996409 0.966834 0.149368
H17   H     H_    0.919134 0.073754 0.801972 0.146697
H18   H     H_    0.154843 0.777763 0.771686 0.134271
H19   H     H_    0.285600 0.759228 0.659184 0.152921
H20   H     H_    0.087270 0.967333 0.642967 0.177164
H21   H     H_    0.217395 0.954423 0.524260 0.174376
H22   H     H_    0.011655 0.762697 0.565998 0.137433
H23   H     H_    0.660950 0.306953 0.870206 0.184226
H24   H     H_    0.143597 0.748608 0.446524 0.158181
H25   H     H_    0.030105 0.869136 0.420584 0.144798
H26   H     H_    0.259167 0.266425 0.932937 0.124423
H27   H     H_    0.417268 0.239991 0.965186 0.172493
H28   H     H_    0.209085 0.045834 0.005455 0.202506
H29   H     H_    0.367604 0.025671 0.056017 0.186963
H30   H     H_    0.338392 0.207603 0.220125 0.185397
H31   H     H_    0.240414 0.077981 0.262721 0.152325
H32   H     H_    0.177230 0.212185 0.175520 0.132623
H33   H     H_    0.789353 0.421330 0.867740 0.124742
H34   H     H_    0.661501 0.304580 0.122949 0.138282
H35   H     H_    0.788847 0.421139 0.117059 0.126142
H36   H     H_    0.909286 0.573948 0.541430 0.066721
H37   H     H_    0.118518 0.395997 0.315219 0.130898
H38   H     H_    0.088240 0.501913 0.611273 0.092350
N1    N     N_R   0.500780 0.500930 0.147930 -0.232667
N2    N     N_R   0.500780 0.500890 0.852020 -0.230859
O1    O     O_R   0.500000 0.319640 0.618810 -0.462597
O2    O     O_3   0.282050 0.913875 0.792707 -0.573200
O3    O     O_3   0.340718 0.145548 0.796481 -0.518617
O4    O     O_R   0.500010 0.319680 0.381230 -0.524116
O5    O     O_R   0.321940 0.499980 0.618760 -0.511895
O6    O     O_R   0.321950 0.500020 0.381180 -0.509756
O7    O     O_R   0.499990 0.680320 0.618770 -0.515974
O8    O     O_R   0.500000 0.680360 0.381190 -0.494261
O9    O     O_R   0.678050 0.499980 0.618820 -0.504071
O10   O     O_R   0.678060 0.500020 0.381240 -0.498937
O11   O     O_3   0.547213 0.089741 0.861057 -0.622517

loop_
_geom_bond_atom_site_label_1
_geom_bond_atom_site_label_2
_ccdc_geom_bond_type
Cu2   N1    S    
C8    O8    A    
C6    H23   S    
C19   C20   S    
C7    H35   S    
Cu2   O6    S    
C15   C32   S    
C12   C23   A    
C26   C27   S    
C18   O11   S    
C8    O7    A    
C8    C29   S    
C28   C29   A    
C4    O5    A    
C20   H16   S    
C5    C6    S    
C11   H36   S    
Cu1   Cu2   S    
Cu2   O4    S    
C26   H29   S    
C17   H7    S    
C20   H15   S    
Cu1   O5    S    
C4    O6    A    
C16   C17   S    
C5    C33   A    
C3    N2    A    
C16   H9    S    
C2    N1    A    
Cu1   N2    S    
C9    O10   A    
C6    H33   S    
C21   C22   S    
C7    C33   S    
C1    C12   S    
Cu1   O9    S    
C18   H11   S    
C31   O2    S    
C25   O3    S    
C14   H38   S    
Cu2   O8    S    
C19   H13   S    
C18   C19   S    
C22   H21   S    
C25   C26   S    
C23   H2    S    
C17   H5    S    
C5    N2    A    
C26   H28   S    
C29   C30   A    
C27   H30   S    
C19   H14   S    
C31   C32   S    
C12   C15   A    
C28   H3    S    
C30   C31   S    
C24   H25   S    
C32   O11   S    
C25   H26   S    
C23   C28   A    
C9    C11   S    
C16   H8    S    
C22   H20   S    
C1    O4    A    
C22   C24   S    
C18   H10   S    
C15   C30   A    
C24   H22   S    
C2    H1    S    
C1    O1    A    
C10   C13   S    
C7    H34   S    
C6    C7    S    
C13   H37   S    
C2    C3    A    
C20   H17   S    
C27   H31   S    
C10   C16   S    
C21   H18   S    
Cu2   O10   S    
C21   H19   S    
C24   H24   S    
C3    H12   S    
C31   H4    S    
C25   H27   S    
C4    C14   S    
C17   H6    S    
C27   H32   S    
C10   C11   D    
C9    O9    A    
C32   O3    S    
C33   N1    A    
C21   O2    S    
Cu1   O7    S    
C13   C14   D    
Cu1   O1    S    
