data_mof_unit_40677.cif
_audit_creation_date              2012-12-11T14:42:02-0500
_audit_creation_method            fapswitch 2.2
_symmetry_space_group_name_H-M    P1
_symmetry_Int_Tables_number       1
_space_group_crystal_system       triclinic
_cell_length_a                    19.010994
_cell_length_b                    10.870278
_cell_length_c                    18.855003
_cell_angle_alpha                 89.832259
_cell_angle_beta                  90.240097
_cell_angle_gamma                 90.214798
_cell_volume                      3896.39856985

loop_
_atom_site_label
_atom_site_type_symbol
_atom_type_description
_atom_site_fract_x
_atom_site_fract_y
_atom_site_fract_z
_atom_type_partial_charge
C1    C     C_R   0.725288 0.959452 0.855288 0.566731
C2    C     C_R   0.272925 0.956663 0.146335 0.543653
C3    C     C_R   0.225332 0.459301 0.855223 0.548902
C4    C     C_R   0.772929 0.456684 0.146330 0.543849
C5    C     C_R   0.707329 0.494919 0.035348 -0.131954
C6    C     C_R   0.301898 0.466560 0.961384 -0.154445
C7    C     C_R   0.207296 0.994783 0.035373 -0.132062
C8    C     C_R   0.801548 0.968108 0.961700 -0.150050
C9    C     C_R   0.753027 0.420020 0.075368 0.015339
C10   C     C_R   0.238222 0.432937 0.929404 0.019315
C11   C     C_R   0.252977 0.919879 0.075403 0.014406
C12   C     C_R   0.738122 0.933384 0.929539 0.019946
C13   C     C_R   0.790702 0.326614 0.042953 -0.141506
C14   C     C_R   0.180833 0.397762 0.971152 -0.127667
C15   C     C_R   0.290546 0.826297 0.043019 -0.147714
C16   C     C_R   0.680795 0.897471 0.971169 -0.126200
C17   C     C_R   0.786682 0.312765 0.970720 -0.136788
C18   C     C_R   0.187367 0.391941 0.043567 -0.146239
C19   C     C_R   0.286487 0.812368 0.970787 -0.140764
C20   C     C_R   0.687264 0.891487 0.043588 -0.146096
C21   C     C_R   0.743711 0.390414 0.929225 0.018020
C22   C     C_R   0.252368 0.415502 0.076093 0.013630
C23   C     C_R   0.243612 0.890153 0.929277 0.013328
C24   C     C_R   0.752099 0.915963 0.076257 0.012904
C25   C     C_R   0.541227 0.269227 0.525976 -0.125935
C26   C     C_R   0.534385 0.263651 0.453737 -0.136466
C27   C     C_R   0.060606 0.776970 0.519788 -0.131347
C28   C     C_R   0.041634 0.774402 0.448990 -0.126897
C29   C     C_R   0.501768 0.161680 0.423574 0.031313
C30   C     C_R   0.517405 0.171278 0.568496 0.035514
C31   C     C_R   0.012703 0.666839 0.419750 0.028464
C32   C     C_R   0.052575 0.671570 0.561531 0.028586
C33   C     C_R   0.482732 0.059255 0.465226 -0.139135
C34   C     C_R   0.490371 0.064424 0.538058 -0.154783
C35   C     C_R   0.011758 0.557674 0.459354 -0.137938
C36   C     C_R   0.031986 0.559894 0.530158 -0.128652
C37   C     C_R   0.795489 0.322949 0.530828 -0.128481
C38   C     C_R   0.189385 0.368123 0.460882 -0.135788
C39   C     C_R   0.287793 0.809866 0.528725 -0.129030
C40   C     C_R   0.677638 0.913756 0.450352 -0.128336
C41   C     C_R   0.797251 0.333058 0.458255 -0.131929
C42   C     C_R   0.185475 0.374442 0.533372 -0.135339
C43   C     C_R   0.290206 0.823861 0.456236 -0.138167
C44   C     C_R   0.666538 0.941167 0.521239 -0.131053
C45   C     C_R   0.527867 0.177319 0.849408 0.555629
C46   C     C_R   0.442783 0.181711 0.141273 0.563423
C47   C     C_R   0.058755 0.681808 0.858340 0.562142
C48   C     C_R   0.941013 0.682052 0.141677 0.564159
C49   C     C_R   0.753138 0.416590 0.423715 0.028948
C50   C     C_R   0.240926 0.425707 0.572929 0.032681
C51   C     C_R   0.252760 0.918924 0.423942 0.030486
C52   C     C_R   0.722545 0.980369 0.564067 0.027888
C53   C     C_R   0.702932 0.482882 0.462514 -0.139184
C54   C     C_R   0.301753 0.467179 0.538442 -0.141471
C55   C     C_R   0.209105 0.995365 0.464700 -0.136974
C56   C     C_R   0.789089 0.999817 0.533760 -0.131453
C57   C     C_R   0.699495 0.469309 0.535840 -0.143455
C58   C     C_R   0.306985 0.455790 0.465077 -0.136334
C59   C     C_R   0.205964 0.980104 0.537857 -0.152955
C60   C     C_R   0.800428 0.971565 0.462705 -0.138055
C61   C     C_R   0.746722 0.390655 0.570403 0.034910
C62   C     C_R   0.250829 0.404808 0.426144 0.031988
C63   C     C_R   0.246344 0.888493 0.570199 0.029779
C64   C     C_R   0.745326 0.923710 0.421303 0.026273
C65   C     C_R   0.737139 0.359636 0.854440 0.555122
C66   C     C_R   0.261995 0.365350 0.147308 0.538319
C67   C     C_R   0.237111 0.859542 0.854469 0.545018
C68   C     C_R   0.761927 0.865505 0.147378 0.536749
C69   C     C_R   0.710046 0.001158 0.639703 0.557614
C70   C     C_R   0.272090 0.955583 0.352649 0.548271
C71   C     C_R   0.226839 0.457013 0.646399 0.541203
C72   C     C_R   0.771995 0.454915 0.352477 0.549391
C73   C     C_R   0.532741 0.176792 0.642834 0.538774
C74   C     C_R   0.471338 0.175119 0.354384 0.556597
C75   C     C_R   0.064621 0.680659 0.637547 0.565107
C76   C     C_R   0.972334 0.676025 0.354272 0.556993
C77   C     C_R   0.738498 0.358681 0.644757 0.544601
C78   C     C_R   0.260897 0.362075 0.353997 0.547968
C79   C     C_R   0.238465 0.858322 0.644718 0.540670
C80   C     C_R   0.760131 0.864357 0.353316 0.547837
C81   C     C_2   0.485630 0.169222 0.913786 -0.108816
C82   C     C_2   0.468090 0.174498 0.068387 -0.107598
C83   C     C_2   0.035931 0.676871 0.931799 -0.102304
C84   C     C_2   0.963792 0.678050 0.068191 -0.098164
C85   C     C_2   0.459369 0.073024 0.028611 -0.167457
C86   C     C_2   0.484757 0.068292 0.954869 -0.158867
C87   C     C_2   0.984044 0.574196 0.035876 -0.156843
C88   C     C_2   0.010544 0.574442 0.962578 -0.158313
C89   C     C_R   0.702455 0.480813 0.962175 -0.031666
C90   C     C_R   0.309475 0.459217 0.034724 -0.036704
C91   C     C_R   0.202395 0.980614 0.962212 -0.036630
C92   C     C_R   0.808980 0.960957 0.035074 -0.037858
Cr1   Cr    Cr6+3 0.769270 0.163730 0.750710 1.027193
Cr2   Cr    Cr6+3 0.230730 0.163730 0.249290 1.017362
Cr3   Cr    Cr6+3 0.269270 0.663730 0.750710 1.008690
Cr4   Cr    Cr6+3 0.730730 0.663730 0.249290 1.018836
Cr5   Cr    Cr6+3 0.612620 0.009790 0.748780 1.031316
Cr6   Cr    Cr6+3 0.387380 0.009790 0.251220 1.021552
Cr7   Cr    Cr6+3 0.112620 0.509790 0.748780 1.031249
Cr8   Cr    Cr6+3 0.887380 0.509790 0.251220 1.023034
Cr9   Cr    Cr6+3 0.614160 0.322500 0.747710 1.042033
Cr10  Cr    Cr6+3 0.385840 0.322500 0.252290 1.043030
Cr11  Cr    Cr6+3 0.114160 0.822500 0.747710 1.040734
Cr12  Cr    Cr6+3 0.885840 0.822500 0.252290 1.042270
H1    H     H_    0.437148 0.989825 0.051569 0.161572
H2    H     H_    0.506422 0.982183 0.935939 0.151115
H3    H     H_    0.980546 0.486199 0.063088 0.156423
H4    H     H_    0.009451 0.487901 0.933970 0.154790
H5    H     H_    0.836261 0.280470 0.429713 0.130424
H6    H     H_    0.137285 0.342700 0.557916 0.129276
H7    H     H_    0.324095 0.763968 0.425886 0.126663
H8    H     H_    0.614600 0.927735 0.543272 0.131403
H9    H     H_    0.668687 0.548954 0.436820 0.133477
H10   H     H_    0.344623 0.508761 0.567937 0.121641
H11   H     H_    0.180276 0.070605 0.440706 0.134272
H12   H     H_    0.833082 0.031669 0.565477 0.131341
H13   H     H_    0.660451 0.520060 0.565348 0.125808
H14   H     H_    0.355430 0.483054 0.439306 0.129805
H15   H     H_    0.172486 0.039445 0.568967 0.120459
H16   H     H_    0.853109 0.980148 0.441553 0.130485
H17   H     H_    0.493093 0.256122 0.046475 0.129897
H18   H     H_    0.461137 0.253595 0.931891 0.113752
H19   H     H_    0.962713 0.765219 0.040220 0.118919
H20   H     H_    0.041019 0.762329 0.960847 0.110712
H21   H     H_    0.678456 0.568863 0.060312 0.146510
H22   H     H_    0.345255 0.499877 0.929306 0.127804
H23   H     H_    0.178476 0.068812 0.060314 0.147221
H24   H     H_    0.844791 0.002247 0.929754 0.132296
H25   H     H_    0.825973 0.267958 0.072968 0.149106
H26   H     H_    0.129844 0.377139 0.948194 0.155438
H27   H     H_    0.325780 0.767582 0.073047 0.148168
H28   H     H_    0.629901 0.876345 0.948124 0.155555
H29   H     H_    0.817334 0.239414 0.947634 0.149104
H30   H     H_    0.142030 0.361734 0.073725 0.143782
H31   H     H_    0.317047 0.738887 0.947707 0.150536
H32   H     H_    0.642033 0.860451 0.073627 0.146471
H33   H     H_    0.565336 0.350703 0.548436 0.139162
H34   H     H_    0.550011 0.342411 0.422017 0.127624
H35   H     H_    0.077923 0.862943 0.542857 0.130093
H36   H     H_    0.044496 0.859208 0.418783 0.132132
H37   H     H_    0.457333 0.979206 0.442336 0.140508
H38   H     H_    0.474408 0.986755 0.570433 0.123543
H39   H     H_    0.990520 0.473275 0.437437 0.127236
H40   H     H_    0.027258 0.476203 0.561066 0.130694
H41   H     H_    0.831814 0.259370 0.555586 0.131707
H42   H     H_    0.145216 0.328114 0.432556 0.128756
H43   H     H_    0.317943 0.735720 0.552082 0.135749
H44   H     H_    0.633956 0.878327 0.419391 0.131360
O1    O     O_R   0.784320 0.290430 0.830510 -0.522387
O2    O     O_R   0.215680 0.290430 0.169490 -0.524166
O3    O     O_R   0.284320 0.790430 0.830510 -0.521506
O4    O     O_R   0.715680 0.790430 0.169490 -0.524699
O5    O     O_R   0.554640 0.080370 0.673500 -0.524016
O6    O     O_R   0.445360 0.080370 0.326500 -0.505505
O7    O     O_R   0.054640 0.580370 0.673500 -0.497601
O8    O     O_R   0.945360 0.580370 0.326500 -0.499930
O9    O     O_R   0.543920 0.282180 0.666790 -0.525725
O10   O     O_R   0.456080 0.282180 0.333210 -0.517970
O11   O     O_R   0.043920 0.782180 0.666790 -0.502594
O12   O     O_R   0.956080 0.782180 0.333210 -0.520979
O13   O     O_R   0.679040 0.374160 0.674430 -0.506455
O14   O     O_R   0.320960 0.374160 0.325570 -0.503458
O15   O     O_R   0.179040 0.874160 0.674430 -0.520524
O16   O     O_R   0.820960 0.874160 0.325570 -0.502369
O17   O     O_3   0.665350 0.165340 0.749070 -0.278512
O18   O     O_3   0.334650 0.165340 0.250930 -0.265055
O19   O     O_3   0.165350 0.665340 0.749070 -0.295977
O20   O     O_3   0.834650 0.665340 0.250930 -0.265698
O21   O     O_R   0.762640 0.040960 0.825200 -0.502777
O22   O     O_R   0.237360 0.040960 0.174800 -0.504902
O23   O     O_R   0.262640 0.540960 0.825200 -0.508385
O24   O     O_R   0.737360 0.540960 0.174800 -0.506402
O25   O     O_R   0.667400 0.923970 0.829950 -0.501984
O26   O     O_R   0.332600 0.923970 0.170050 -0.526706
O27   O     O_R   0.167400 0.423970 0.829950 -0.510723
O28   O     O_R   0.832600 0.423970 0.170050 -0.523891
O29   O     O_R   0.553960 0.081340 0.821780 -0.497858
O30   O     O_R   0.446040 0.081340 0.178220 -0.494591
O31   O     O_R   0.053960 0.581340 0.821780 -0.488105
O32   O     O_R   0.946040 0.581340 0.178220 -0.498389
O33   O     O_R   0.543180 0.283240 0.826740 -0.502768
O34   O     O_R   0.456820 0.283240 0.173260 -0.489800
O35   O     O_R   0.043180 0.783240 0.826740 -0.489851
O36   O     O_R   0.956820 0.783240 0.173260 -0.488948
O37   O     O_R   0.678360 0.375140 0.822710 -0.480388
O38   O     O_R   0.321640 0.375140 0.177290 -0.500057
O39   O     O_R   0.178360 0.875140 0.822710 -0.498740
O40   O     O_R   0.821640 0.875140 0.177290 -0.502099
O41   O     O_R   0.785050 0.289380 0.670560 -0.528104
O42   O     O_R   0.214950 0.289380 0.329440 -0.526087
O43   O     O_R   0.285050 0.789380 0.670560 -0.520781
O44   O     O_R   0.714950 0.789380 0.329440 -0.521783
O45   O     O_R   0.763320 0.039990 0.676930 -0.500077
O46   O     O_R   0.236680 0.039990 0.323070 -0.503974
O47   O     O_R   0.263320 0.539990 0.676930 -0.505296
O48   O     O_R   0.736680 0.539990 0.323070 -0.501919
O49   O     O_R   0.668130 0.922920 0.670000 -0.505660
O50   O     O_R   0.331870 0.922920 0.330000 -0.523004
O51   O     O_R   0.168130 0.422920 0.670000 -0.530445
O52   O     O_R   0.831870 0.422920 0.330000 -0.522118
C93   C     C_1   0.657241 0.562621 0.922461 0.215366
N1    N     N_1   0.620957 0.628036 0.890633 -0.293162
C94   C     C_1   0.376198 0.496446 0.064857 0.195914
N2    N     N_1   0.429697 0.526826 0.088668 -0.293239
C95   C     C_1   0.157224 0.062480 0.922493 0.210376
N3    N     N_1   0.120975 0.127954 0.890663 -0.292997
C96   C     C_1   0.875250 0.999905 0.065507 0.193324
N4    N     N_1   0.928372 0.031631 0.089597 -0.294517

loop_
_geom_bond_atom_site_label_1
_geom_bond_atom_site_label_2
_ccdc_geom_bond_type
C58   C62   A    
C89   C93   S    
C94   N2    T    
Cr6   O6    S    
Cr11  O19   S    
C73   O5    A    
C55   C59   A    
C64   C80   S    
C93   N1    T    
C14   C18   A    
Cr1   O1    S    
C35   C36   A    
C28   H36   S    
C84   C87   D    
C87   C88   S    
Cr11  O11   S    
Cr2   O18   S    
C32   C75   S    
C31   C76   S    
C45   O33   A    
C21   C89   A    
C95   N3    T    
C84   H19   S    
C15   C19   A    
C78   O42   A    
Cr1   O21   S    
C50   C54   A    
C46   O30   A    
Cr11  O35   S    
C32   C36   A    
C56   C60   A    
C66   O2    A    
C85   C86   S    
Cr6   O26   S    
C85   H1    S    
Cr12  O20   S    
C19   H31   S    
Cr4   O4    S    
C73   O9    A    
C58   H14   S    
C74   O6    A    
C23   C67   S    
C57   C61   A    
C9    C13   A    
C22   C66   S    
C47   O31   A    
C52   C69   S    
C46   C82   S    
C52   C56   A    
C11   C15   A    
C8    H24   S    
C38   H42   S    
C12   C16   A    
C29   C33   A    
C67   O39   A    
C49   C72   S    
Cr7   O7    S    
Cr8   O28   S    
C59   H15   S    
Cr4   O20   S    
C60   H16   S    
C8    C92   A    
C51   C70   S    
Cr5   O5    S    
C83   H20   S    
Cr6   O30   S    
C18   C22   A    
C82   H17   S    
C51   C55   A    
C81   C86   D    
C2    O26   A    
Cr10  O14   S    
C71   O47   A    
C88   H4    S    
C70   O46   A    
C44   C52   A    
C83   C88   D    
Cr1   O17   S    
C70   O50   A    
C79   O43   A    
C69   O49   A    
C80   O44   A    
Cr10  O10   S    
C86   H2    S    
C1    C12   S    
C43   H7    S    
Cr12  O12   S    
Cr9   O37   S    
C2    C11   S    
C24   C92   A    
C41   C49   A    
C91   C95   S    
C53   H9    S    
Cr7   O19   S    
C77   O13   A    
Cr12  O40   S    
C65   O37   A    
Cr5   O25   S    
Cr6   O50   S    
C67   O3    A    
C96   N4    T    
Cr10  O34   S    
Cr5   O49   S    
Cr11  O39   S    
C6    H22   S    
C47   O35   A    
C10   C14   A    
C61   C77   S    
C48   O36   A    
C30   C73   S    
C30   C34   A    
C19   C23   A    
C63   C79   S    
C29   C74   S    
C37   H41   S    
C33   H37   S    
C25   C26   A    
C6    C90   A    
C76   O8    A    
C80   O16   A    
C25   H33   S    
C48   C84   S    
Cr3   O19   S    
Cr7   O31   S    
C7    C11   A    
C50   C71   S    
Cr2   O42   S    
C5    C9    A    
C68   O4    A    
C72   O52   A    
C34   H38   S    
C22   C90   A    
Cr5   O29   S    
Cr4   O48   S    
C16   C20   A    
C1    O25   A    
C69   O45   A    
C33   C34   A    
C56   H12   S    
C87   H3    S    
Cr10  O38   S    
C20   H32   S    
C74   O10   A    
Cr9   O17   S    
C68   O40   A    
Cr6   O18   S    
C42   C50   A    
Cr8   O52   S    
C3    O27   A    
Cr12  O36   S    
C2    O22   A    
C78   O14   A    
C47   C83   S    
C66   O38   A    
C17   H29   S    
C54   C58   A    
C23   C91   A    
Cr3   O3    S    
Cr8   O8    S    
Cr7   O51   S    
Cr8   O32   S    
C44   H8    S    
C7    C91   A    
C48   O32   A    
Cr9   O33   S    
C57   H13   S    
C90   C94   S    
C14   H26   S    
C75   O11   A    
C25   C30   A    
C76   O12   A    
C40   H44   S    
Cr3   O47   S    
Cr3   O43   S    
C4    O24   A    
C21   C65   S    
C27   C32   A    
Cr2   O46   S    
C59   C63   A    
C62   C78   S    
C28   C31   A    
Cr1   O45   S    
C79   O15   A    
C26   H34   S    
C53   C57   A    
Cr4   O24   S    
C72   O48   A    
C37   C61   A    
C71   O51   A    
Cr1   O41   S    
Cr2   O2    S    
C82   C85   D    
C39   C63   A    
C39   H43   S    
Cr11  O15   S    
C40   C64   A    
C60   C64   A    
C81   H18   S    
Cr8   O20   S    
C77   O41   A    
C46   O34   A    
Cr9   O13   S    
C42   H6    S    
C92   C96   S    
Cr2   O22   S    
C45   O29   A    
C3    O23   A    
Cr12  O16   S    
Cr7   O27   S    
C55   H11   S    
C43   C51   A    
Cr5   O17   S    
C54   H10   S    
C31   C35   A    
C1    O21   A    
C18   H30   S    
C45   C81   S    
C37   C41   A    
Cr4   O44   S    
C16   H28   S    
C27   H35   S    
C49   C53   A    
C6    C10   A    
C24   C68   S    
Cr9   O9    S    
C13   C17   A    
C38   C42   A    
C75   O7    A    
C40   C44   A    
C15   H27   S    
C39   C43   A    
C26   C29   A    
Cr10  O18   S    
C4    O28   A    
C5    H21   S    
C27   C28   A    
C3    C10   S    
C65   O1    A    
C13   H25   S    
C41   H5    S    
C7    H23   S    
C4    C9    S    
C36   H40   S    
Cr3   O23   S    
C20   C24   A    
C5    C89   A    
C8    C12   A    
C35   H39   S    
C38   C62   A    
C17   C21   A    
