data_mof_unit_12059.cif
_audit_creation_date              2013-03-05T16:29:36-0500
_audit_creation_method            fapswitch 2.2
_symmetry_space_group_name_H-M    P1
_symmetry_Int_Tables_number       1
_space_group_crystal_system       triclinic
_cell_length_a                    28.803652
_cell_length_b                    18.233416
_cell_length_c                    18.242143
_cell_angle_alpha                 89.721593
_cell_angle_beta                  131.039574
_cell_angle_gamma                 90.144193
_cell_volume                      7226.11844767

loop_
_atom_site_label
_atom_site_type_symbol
_atom_site_description
_atom_site_fract_x
_atom_site_fract_y
_atom_site_fract_z
_atom_type_partial_charge
O1    O     O_R   0.500010 0.939400 0.392680 -0.643943
O2    O     O_R   0.499990 0.939400 0.607320 -0.645798
O3    O     O_R   0.000010 0.439400 0.392680 -0.638404
O4    O     O_R   0.999990 0.439400 0.607320 -0.648922
O5    O     O_R   0.499990 0.060580 0.392690 -0.585461
O6    O     O_R   0.500010 0.060580 0.607310 -0.585902
O7    O     O_R   0.999990 0.560580 0.392690 -0.586471
O8    O     O_R   0.000010 0.560580 0.607310 -0.581802
C1    C     C_R   0.500107 0.000103 0.358822 0.966287
C2    C     C_R   0.499893 0.999820 0.641173 0.987577
C3    C     C_R   0.000055 0.500106 0.358767 0.968580
C4    C     C_R   0.000016 0.499800 0.641308 0.967503
O9    O     O_R   0.591620 0.939400 0.591620 -0.643898
O10   O     O_R   0.408380 0.939400 0.408380 -0.646345
O11   O     O_R   0.091620 0.439400 0.591620 -0.644088
O12   O     O_R   0.908380 0.439400 0.408380 -0.644488
O13   O     O_R   0.591600 0.060580 0.591620 -0.564406
O14   O     O_R   0.408400 0.060580 0.408380 -0.568992
O15   O     O_R   0.091600 0.560580 0.591620 -0.564800
O16   O     O_R   0.908400 0.560580 0.408380 -0.565121
C5    C     C_R   0.620321 0.999417 0.622460 0.987315
C6    C     C_R   0.379688 0.999755 0.377116 0.961895
C7    C     C_R   0.120292 0.499824 0.621552 0.958127
C8    C     C_R   0.879697 0.499719 0.377064 0.965307
Zn1   Zn    Zn3+2 0.500000 0.919080 0.500000 0.951218
Zn2   Zn    Zn3+2 0.000000 0.419080 0.500000 0.944838
Zn3   Zn    Zn3+2 0.500000 0.080900 0.500000 1.149303
Zn4   Zn    Zn3+2 0.000000 0.580900 0.500000 1.150988
C9    C     C_R   0.658169 0.761964 0.761029 0.156817
C10   C     C_R   0.356855 0.799404 0.205239 0.155498
C11   C     C_R   0.134970 0.318500 0.802218 0.187834
C12   C     C_R   0.856415 0.298346 0.205578 0.156221
C13   C     C_R   0.675515 0.821562 0.734959 -0.249026
C14   C     C_R   0.334411 0.843231 0.239270 -0.193705
C15   C     C_R   0.163063 0.352097 0.770786 -0.226792
C16   C     C_R   0.833936 0.342331 0.239430 -0.197401
H1    H     H_    0.681959 0.813641 0.683240 0.174152
H2    H     H_    0.334357 0.823606 0.295215 0.185429
H3    H     H_    0.163714 0.324398 0.719010 0.175727
H4    H     H_    0.833536 0.322719 0.295018 0.184709
C17   C     C_R   0.688381 0.890241 0.778502 -0.031714
C18   C     C_R   0.310131 0.912888 0.200911 -0.083375
C19   C     C_R   0.189507 0.421447 0.803380 -0.079400
C20   C     C_R   0.810038 0.412131 0.201310 -0.082489
C21   C     C_R   0.679483 0.901798 0.844938 0.177145
C22   C     C_R   0.307576 0.941020 0.126461 0.191046
C23   C     C_R   0.189716 0.458580 0.870976 0.184826
C24   C     C_R   0.807867 0.440245 0.127219 0.192089
C25   C     C_R   0.663590 0.841639 0.873962 0.192261
C26   C     C_R   0.325624 0.896279 0.085976 0.200441
C27   C     C_R   0.163519 0.425133 0.906381 0.171399
C28   C     C_R   0.826350 0.395556 0.087316 0.201513
C29   C     C_R   0.654517 0.770942 0.834385 0.026580
C30   C     C_R   0.350960 0.825433 0.125599 -0.013988
C31   C     C_R   0.134093 0.355669 0.869936 0.034560
C32   C     C_R   0.851379 0.324589 0.126805 -0.011714
C33   C     C_R   0.784292 0.943992 0.824837 0.107640
C34   C     C_R   0.216009 0.947183 0.172965 0.119938
C35   C     C_R   0.283655 0.448362 0.827640 0.121637
C36   C     C_R   0.715969 0.446926 0.173307 0.120471
C37   C     C_R   0.813424 0.996711 0.809704 -0.119426
C38   C     C_R   0.186669 0.995867 0.191312 -0.135540
C39   C     C_R   0.313426 0.497070 0.809464 -0.133880
C40   C     C_R   0.686659 0.496464 0.190878 -0.117484
C41   C     C_R   0.779286 0.044009 0.728234 0.000212
C42   C     C_R   0.220817 0.039803 0.275726 0.003562
C43   C     C_R   0.279641 0.543583 0.726978 0.001720
C44   C     C_R   0.720871 0.541408 0.274299 -0.000778
C45   C     C_R   0.715368 0.043337 0.665777 0.314470
C46   C     C_R   0.284857 0.039388 0.338010 0.345924
C47   C     C_R   0.215509 0.541647 0.662712 0.347029
C48   C     C_R   0.784888 0.540112 0.337302 0.321864
C49   C     C_R   0.686325 0.996907 0.686311 -0.207747
C50   C     C_R   0.313674 0.998210 0.313090 -0.201391
C51   C     C_R   0.186328 0.498768 0.685977 -0.201579
C52   C     C_R   0.813704 0.498060 0.313123 -0.200875
C53   C     C_R   0.719873 0.945534 0.763705 0.042909
C54   C     C_R   0.279855 0.952505 0.230665 0.029837
C55   C     C_R   0.219913 0.454328 0.769770 0.027694
C56   C     C_R   0.779834 0.452024 0.231004 0.028705
C57   C     C_R   0.812056 0.065812 0.633015 0.295428
C58   C     C_R   0.182915 0.045673 0.365211 0.306750
C59   C     C_R   0.318413 0.571610 0.640828 0.301300
C60   C     C_R   0.688647 0.560308 0.370554 0.292899
C61   C     C_R   0.832710 0.112383 0.597288 0.031138
C62   C     C_R   0.160761 0.084686 0.403595 0.027758
C63   C     C_R   0.334821 0.622977 0.602747 0.033372
C64   C     C_R   0.669388 0.606245 0.408563 0.028422
C65   C     C_R   0.851942 0.185058 0.633968 0.014186
C66   C     C_R   0.146511 0.160565 0.381421 0.008040
C67   C     C_R   0.343443 0.698021 0.630718 0.005458
C68   C     C_R   0.649851 0.679222 0.372437 0.022525
C69   C     C_R   0.848237 0.210517 0.703566 0.215424
C70   C     C_R   0.153653 0.195543 0.319686 0.219203
C71   C     C_R   0.338379 0.719371 0.700038 0.216572
C72   C     C_R   0.652461 0.705801 0.301800 0.216782
C73   C     C_R   0.826489 0.163898 0.737450 0.195775
C74   C     C_R   0.175604 0.156085 0.281257 0.207112
C75   C     C_R   0.321735 0.667633 0.737070 0.196147
C76   C     C_R   0.673985 0.660303 0.267129 0.181376
C77   C     C_R   0.808766 0.091518 0.702253 -0.159995
C78   C     C_R   0.191420 0.081349 0.306034 -0.165172
C79   C     C_R   0.309377 0.594497 0.704344 -0.173910
C80   C     C_R   0.691471 0.587472 0.301112 -0.154293
C81   C     C_1   0.501396 0.000223 0.283672 -0.110442
C82   C     C_1   0.498502 0.999528 0.716213 -0.084433
C83   C     C_1   0.001351 0.500244 0.283624 -0.103733
C84   C     C_1   0.998664 0.499396 0.716392 -0.111997
C85   C     C_1   0.501972 0.000095 0.219451 -0.103541
C86   C     C_1   0.497905 0.999651 0.780413 -0.070577
C87   C     C_1   0.001955 0.500141 0.219433 -0.101202
C88   C     C_1   0.998029 0.499378 0.780552 -0.107603
O17   O     O_R   0.999970 0.107360 0.060570 -0.622504
O18   O     O_R   0.000030 0.107360 0.939430 -0.635382
O19   O     O_R   0.499970 0.607360 0.060570 -0.628051
O20   O     O_R   0.500030 0.607360 0.939430 -0.627688
C89   C     C_R   0.000455 0.141300 0.000294 0.933613
C90   C     C_R   0.499653 0.641300 0.999435 0.940168
O21   O     O_R   0.908370 0.000030 0.968970 -0.619588
O22   O     O_R   0.091630 0.000030 0.031030 -0.617197
O23   O     O_R   0.408370 0.500030 0.968970 -0.614196
O24   O     O_R   0.591630 0.500030 0.031030 -0.617924
O25   O     O_R   0.908380 0.000000 0.847800 -0.599929
O26   O     O_R   0.091620 0.000000 0.152200 -0.606911
O27   O     O_R   0.408380 0.500000 0.847800 -0.599401
O28   O     O_R   0.591620 0.500000 0.152200 -0.603352
C91   C     C_R   0.879609 0.001140 0.878421 0.917601
C92   C     C_R   0.120433 0.000399 0.121803 0.913675
C93   C     C_R   0.379608 0.500498 0.878370 0.909899
C94   C     C_R   0.620422 0.500715 0.121709 0.919126
Zn5   Zn    Zn3+2 0.999980 0.000040 0.080910 1.009457
Zn6   Zn    Zn3+2 0.000020 0.000040 0.919090 1.002742
Zn7   Zn    Zn3+2 0.499980 0.500040 0.080910 1.008845
Zn8   Zn    Zn3+2 0.500020 0.500040 0.919090 1.020506
O29   O     O_R   1.000000 0.892710 0.060610 -0.604550
O30   O     O_R   0.000000 0.892710 0.939390 -0.608759
O31   O     O_R   0.500000 0.392710 0.060610 -0.609366
O32   O     O_R   0.500000 0.392710 0.939390 -0.605036
C95   C     C_R   0.000024 0.858765 0.000173 0.913643
C96   C     C_R   0.499987 0.358766 0.000136 0.910693
O33   O     O_R   0.551710 0.107310 0.051740 -0.627683
O34   O     O_R   0.448290 0.107310 0.948260 -0.616882
O35   O     O_R   0.051710 0.607310 0.051740 -0.610451
O36   O     O_R   0.948290 0.607310 0.948260 -0.621572
C97   C     C_R   0.499984 0.140903 0.000087 0.889452
C98   C     C_R   0.999983 0.640903 0.000076 0.897292
O37   O     O_R   0.551700 0.999990 0.159040 -0.588782
O38   O     O_R   0.448300 0.999990 0.840960 -0.596453
O39   O     O_R   0.051700 0.499990 0.159040 -0.588456
O40   O     O_R   0.948300 0.499990 0.840960 -0.583729
O41   O     O_R   0.448260 0.000000 0.055600 -0.585574
O42   O     O_R   0.551740 0.000000 0.944400 -0.569742
O43   O     O_R   0.948260 0.500000 0.055600 -0.584739
O44   O     O_R   0.051740 0.500000 0.944400 -0.583767
C99   C     C_R   0.500748 0.999951 0.141696 0.896804
C100  C     C_R   0.499226 0.999923 0.858276 0.923527
C101  C     C_R   0.000747 0.500010 0.141693 0.892255
C102  C     C_R   0.999251 0.499686 0.858305 0.899146
Zn9   Zn    Zn3+2 0.569060 0.999980 0.069070 1.143058
Zn10  Zn    Zn3+2 0.430940 0.999980 0.930930 1.133629
Zn11  Zn    Zn3+2 0.069060 0.499980 0.069070 1.141351
Zn12  Zn    Zn3+2 0.930940 0.499980 0.930930 1.132287
O45   O     O_R   0.551720 0.892660 0.051710 -0.540806
O46   O     O_R   0.448280 0.892660 0.948290 -0.571766
O47   O     O_R   0.051720 0.392660 0.051710 -0.575612
O48   O     O_R   0.948280 0.392660 0.948290 -0.558609
C103  C     C_R   0.499965 0.859095 0.999390 0.947662
C104  C     C_R   0.000097 0.359089 0.000053 0.924484
C105  C     C_1   0.000704 0.217771 0.000177 -0.099014
C106  C     C_1   0.499526 0.717776 0.998721 -0.086857
C107  C     C_1   0.499755 0.782615 0.998697 -0.007581
C108  C     C_1   0.000481 0.282611 0.000036 -0.010016
C109  C     C_1   0.999978 0.782266 0.000380 -0.172436
C110  C     C_1   0.499966 0.282267 0.000369 -0.173809
C111  C     C_1   0.499957 0.217424 0.000290 -0.145149
C112  C     C_1   0.999956 0.717423 0.000284 -0.145771
C113  C     C_3   0.642108 0.706171 0.872298 -0.312176
C114  C     C_3   0.573919 0.699991 0.820138 -0.822605
H5    H     H_    0.557856 0.750027 0.832110 0.289809
H6    H     H_    0.546693 0.692382 0.741088 0.235206
H7    H     H_    0.566277 0.651992 0.848793 0.267537
H8    H     H_    0.658069 0.653834 0.864763 0.235892
H9    H     H_    0.668867 0.711313 0.951548 0.276587
C115  C     C_3   0.373263 0.779562 0.084327 -0.321521
C116  C     C_3   0.431495 0.811955 0.110899 -0.759549
H10   H     H_    0.420458 0.861646 0.066900 0.286503
H11   H     H_    0.465122 0.826598 0.189117 0.249762
H12   H     H_    0.452838 0.771105 0.096024 0.262727
H13   H     H_    0.383242 0.722032 0.110128 0.199596
H14   H     H_    0.336825 0.775088 0.004328 0.299545
C117  C     C_3   0.098420 0.324849 0.897802 -0.432179
C118  C     C_3   0.132462 0.261786 0.970794 -0.612913
H15   H     H_    0.146049 0.218596 0.945642 0.244985
H16   H     H_    0.174537 0.282425 0.041931 0.316953
H17   H     H_    0.101768 0.236490 0.980569 0.253491
H18   H     H_    0.088681 0.367359 0.929320 0.250125
H19   H     H_    0.052160 0.307228 0.831859 0.194009
C119  C     C_3   0.874635 0.278951 0.086801 -0.342184
C120  C     C_3   0.934398 0.310250 0.117871 -0.750039
H20   H     H_    0.925307 0.361496 0.077451 0.279554
H21   H     H_    0.967416 0.322006 0.196996 0.253310
H22   H     H_    0.955528 0.269955 0.101971 0.263828
H23   H     H_    0.883044 0.220975 0.110647 0.193891
H24   H     H_    0.839471 0.275907 0.006497 0.294311
C121  C     C_3   0.875613 0.236379 0.598656 -0.275338
C122  C     C_3   0.944925 0.227384 0.659778 -0.875779
H25   H     H_    0.969100 0.228480 0.738339 0.283986
H26   H     H_    0.955748 0.174533 0.644105 0.240796
H27   H     H_    0.962595 0.272610 0.642964 0.252165
H28   H     H_    0.852071 0.227603 0.521248 0.196228
H29   H     H_    0.865244 0.294436 0.601073 0.259454
C123  C     C_3   0.126688 0.205823 0.426741 -0.300348
C124  C     C_3   0.057245 0.201295 0.366926 -0.859221
H30   H     H_    0.032201 0.217945 0.290657 0.287430
H31   H     H_    0.042807 0.144797 0.366565 0.244279
H32   H     H_    0.043934 0.238543 0.398438 0.249590
H33   H     H_    0.151406 0.188577 0.502768 0.196849
H34   H     H_    0.139583 0.264324 0.433096 0.251346
C125  C     C_3   0.351873 0.756688 0.580396 -0.280042
C126  C     C_3   0.419349 0.766144 0.628652 -0.824783
H35   H     H_    0.438477 0.714535 0.626272 0.230828
H36   H     H_    0.423218 0.809412 0.589858 0.263398
H37   H     H_    0.447455 0.782671 0.705601 0.294595
H38   H     H_    0.324030 0.744066 0.502237 0.201503
H39   H     H_    0.333659 0.810442 0.579870 0.269286
C127  C     C_3   0.627556 0.729842 0.410052 -0.288722
C128  C     C_3   0.558814 0.719676 0.353126 -0.870675
H40   H     H_    0.532507 0.722839 0.273892 0.288803
H41   H     H_    0.549392 0.665671 0.369139 0.241629
H42   H     H_    0.542301 0.763312 0.373465 0.253422
H43   H     H_    0.653281 0.721203 0.488404 0.193701
H44   H     H_    0.636437 0.788177 0.405329 0.257895
N1    N     N_R   0.862090 0.285676 0.734647 0.238568
O49   O     O_R   0.820412 0.327318 0.721160 -0.274327
O50   O     O_R   0.916145 0.312809 0.776443 -0.442088
N2    N     N_R   0.142767 0.272925 0.301278 0.242800
O51   O     O_R   0.187788 0.316730 0.330678 -0.276415
O52   O     O_R   0.087457 0.299290 0.250976 -0.426963
N3    N     N_R   0.344798 0.795090 0.726914 0.234838
O53   O     O_R   0.300775 0.828211 0.716428 -0.286156
O54   O     O_R   0.394664 0.831085 0.762532 -0.413549
N4    N     N_R   0.637748 0.781007 0.270444 0.235854
O55   O     O_R   0.679074 0.823962 0.284477 -0.276573
O56   O     O_R   0.583045 0.806667 0.227087 -0.446928
N5    N     N_R   0.821606 0.190650 0.806517 0.237537
O57   O     O_R   0.772214 0.179010 0.793948 -0.317929
O58   O     O_R   0.865437 0.229832 0.880285 -0.391020
N6    N     N_R   0.181188 0.192300 0.216738 0.232487
O59   O     O_R   0.227240 0.178832 0.220996 -0.328604
O60   O     O_R   0.140996 0.241277 0.155011 -0.390537
N7    N     N_R   0.316592 0.690102 0.807090 0.239802
O61   O     O_R   0.266994 0.676396 0.793229 -0.289122
O62   O     O_R   0.360130 0.728476 0.882328 -0.395599
N8    N     N_R   0.679298 0.688742 0.198952 0.240191
O63   O     O_R   0.729437 0.679070 0.213193 -0.290791
O64   O     O_R   0.635315 0.727907 0.124834 -0.353696
C129  C     C_3   0.646116 0.689525 0.710959 -0.436740
C130  C     C_3   0.705789 0.646544 0.762541 -0.771043
H45   H     H_    0.737302 0.676785 0.757847 0.244215
H46   H     H_    0.729267 0.637544 0.840235 0.291476
H47   H     H_    0.695272 0.592320 0.727287 0.262339
H48   H     H_    0.612275 0.655844 0.706598 0.220034
H49   H     H_    0.625004 0.699448 0.634347 0.202725
C131  C     C_3   0.386134 0.724891 0.251816 -0.374935
C132  C     C_3   0.397384 0.706335 0.344361 -0.875112
H50   H     H_    0.425935 0.749381 0.400227 0.253238
H51   H     H_    0.353035 0.700025 0.328042 0.263103
H52   H     H_    0.422563 0.653439 0.374556 0.258621
H53   H     H_    0.356528 0.681189 0.197728 0.240228
H54   H     H_    0.431692 0.722796 0.271619 0.210612
C133  C     C_3   0.105500 0.244098 0.758926 -0.453382
C134  C     C_3   0.153845 0.185486 0.792394 -0.757777
H55   H     H_    0.177498 0.197392 0.764250 0.243858
H56   H     H_    0.188650 0.182724 0.872984 0.289004
H57   H     H_    0.131164 0.131139 0.764379 0.261552
H58   H     H_    0.077917 0.224592 0.777349 0.223089
H59   H     H_    0.073113 0.248345 0.678326 0.202628
C135  C     C_3   0.884852 0.223427 0.251438 -0.382732
C136  C     C_3   0.895474 0.204587 0.343391 -0.877872
H60   H     H_    0.924300 0.247188 0.399837 0.255252
H61   H     H_    0.850905 0.198839 0.326491 0.259784
H62   H     H_    0.920120 0.151343 0.373138 0.258831
H63   H     H_    0.854974 0.180184 0.196724 0.225790
H64   H     H_    0.930496 0.220763 0.271682 0.214394
N9    N     N_R   0.690074 0.973124 0.887090 0.219435
O65   O     O_R   0.670198 0.031860 0.833333 -0.392003
O66   O     O_R   0.719445 0.979945 0.979283 -0.326885
N10   N     N_R   0.282285 0.012925 0.087221 0.236577
O67   O     O_R   0.301704 0.068775 0.144938 -0.364267
O68   O     O_R   0.238573 0.022624 0.994048 -0.356031
N11   N     N_R   0.219608 0.528648 0.907675 0.242880
O69   O     O_R   0.203094 0.582801 0.848228 -0.332513
O70   O     O_R   0.263108 0.538747 0.000698 -0.351210
N12   N     N_R   0.782535 0.512088 0.087703 0.236752
O71   O     O_R   0.801882 0.568081 0.145184 -0.357816
O72   O     O_R   0.738897 0.521591 0.994471 -0.369595
N13   N     N_R   0.656846 0.852342 0.944233 0.239989
O73   O     O_R   0.701603 0.835388 0.034977 -0.295038
O74   O     O_R   0.607873 0.884293 0.918876 -0.376476
N14   N     N_R   0.317277 0.922737 0.003663 0.226804
O75   O     O_R   0.280733 0.888192 0.921274 -0.329295
O76   O     O_R   0.336968 0.987598 0.005730 -0.332714
N15   N     N_R   0.167165 0.462084 0.979494 0.227516
O77   O     O_R   0.190443 0.428606 0.060359 -0.353969
O78   O     O_R   0.154806 0.531784 0.971072 -0.330210
N16   N     N_R   0.818729 0.422193 0.005697 0.227205
O79   O     O_R   0.782397 0.387896 0.923094 -0.336840
O80   O     O_R   0.838135 0.487349 0.008114 -0.339615
C137  C     C_3   0.821490 0.882176 0.899721 -0.411787
C138  C     C_3   0.836639 0.897828 0.995765 -0.667197
H65   H     H_    0.878762 0.867180 0.055509 0.240115
H66   H     H_    0.844630 0.957170 0.013419 0.277511
H67   H     H_    0.798855 0.879021 0.992746 0.257249
H68   H     H_    0.797178 0.828906 0.870653 0.208182
H69   H     H_    0.864924 0.871949 0.914459 0.201102
C139  C     C_3   0.180775 0.883033 0.102417 -0.410655
C140  C     C_3   0.160636 0.896906 0.002293 -0.655359
H70   H     H_    0.118789 0.864154 0.946908 0.239594
H71   H     H_    0.149979 0.955601 0.981272 0.287811
H72   H     H_    0.196884 0.879096 0.001152 0.250094
H73   H     H_    0.208931 0.832221 0.134070 0.209960
H74   H     H_    0.139533 0.869548 0.093078 0.199659
C141  C     C_3   0.318174 0.384763 0.899902 -0.409014
C142  C     C_3   0.336080 0.399657 0.998116 -0.666154
H75   H     H_    0.375060 0.363457 0.054329 0.237139
H76   H     H_    0.350329 0.457469 0.020741 0.289349
H77   H     H_    0.297276 0.387000 0.995236 0.249533
H78   H     H_    0.289822 0.334136 0.868287 0.207528
H79   H     H_    0.360286 0.370874 0.912021 0.198265
C143  C     C_3   0.680619 0.382677 0.103029 -0.414190
C144  C     C_3   0.660700 0.396108 0.002978 -0.661918
H80   H     H_    0.618965 0.363166 0.947683 0.238642
H81   H     H_    0.649946 0.454727 0.981530 0.289500
H82   H     H_    0.697118 0.378242 0.002262 0.248667
H83   H     H_    0.708637 0.331779 0.134965 0.206429
H84   H     H_    0.639277 0.369591 0.093557 0.199229
N17   N     N_R   0.679698 0.086799 0.578108 0.214746
O81   O     O_R   0.684778 0.157873 0.582220 -0.319740
O82   O     O_R   0.642269 0.055046 0.493762 -0.382719
N18   N     N_R   0.320809 0.078078 0.428933 0.213715
O83   O     O_R   0.316147 0.148877 0.430521 -0.319473
O84   O     O_R   0.358337 0.042275 0.510532 -0.394273
N19   N     N_R   0.179877 0.582692 0.573168 0.213226
O85   O     O_R   0.182731 0.653930 0.574149 -0.329578
O86   O     O_R   0.142818 0.548795 0.490354 -0.384037
N20   N     N_R   0.820796 0.580082 0.427272 0.213057
O87   O     O_R   0.816020 0.651015 0.427148 -0.324977
O88   O     O_R   0.858422 0.545310 0.509693 -0.385605
N21   N     N_R   0.793066 0.992016 0.597747 0.203936
O89   O     O_R   0.741704 0.979846 0.510078 -0.340421
O90   O     O_R   0.824480 0.936794 0.655875 -0.383879
N22   N     N_R   0.196634 0.968832 0.385884 0.204745
O91   O     O_R   0.253415 0.946184 0.444934 -0.379187
O92   O     O_R   0.152191 0.921075 0.339825 -0.384496
N23   N     N_R   0.310325 0.495645 0.614262 0.211708
O93   O     O_R   0.256069 0.465684 0.560866 -0.348332
O94   O     O_R   0.358074 0.454930 0.649869 -0.374243
N24   N     N_R   0.706722 0.485717 0.403654 0.204136
O95   O     O_R   0.757458 0.471534 0.491397 -0.339686
O96   O     O_R   0.675308 0.431876 0.343360 -0.384403
C145  C     C_3   0.832803 0.083932 0.518969 -0.363715
C146  C     C_3   0.772978 0.103346 0.417031 -0.733691
H85   H     H_    0.732871 0.077709 0.402995 0.307080
H86   H     H_    0.765450 0.163479 0.407573 0.239836
H87   H     H_    0.775154 0.082927 0.362099 0.243378
H88   H     H_    0.872418 0.105395 0.528454 0.198219
H89   H     H_    0.838981 0.023500 0.524311 0.247470
C147  C     C_3   0.157007 0.045254 0.473394 -0.386258
C148  C     C_3   0.219692 0.043694 0.576283 -0.710522
H90   H     H_    0.253833 0.013516 0.578061 0.303778
H91   H     H_    0.236666 0.100342 0.603025 0.239171
H92   H     H_    0.215513 0.015612 0.625867 0.261674
H93   H     H_    0.123104 0.070543 0.475582 0.205667
H94   H     H_    0.140284 0.988260 0.449046 0.255253
C149  C     C_3   0.337540 0.597403 0.526216 -0.395018
C150  C     C_3   0.273130 0.592042 0.426296 -0.718919
H95   H     H_    0.244994 0.550903 0.427038 0.306322
H96   H     H_    0.249493 0.646003 0.404049 0.249164
H97   H     H_    0.276633 0.575012 0.371715 0.248787
H98   H     H_    0.365592 0.633946 0.520255 0.202655
H99   H     H_    0.360737 0.543366 0.546458 0.253124
C151  C     C_3   0.672186 0.577098 0.489815 -0.362223
C152  C     C_3   0.733985 0.594992 0.589836 -0.726372
H100  H     H_    0.772948 0.575877 0.596000 0.308470
H101  H     H_    0.739111 0.654859 0.603524 0.232608
H102  H     H_    0.736927 0.567196 0.647006 0.244393
H103  H     H_    0.634384 0.598916 0.484830 0.197074
H104  H     H_    0.665298 0.516786 0.483981 0.248463

loop_
_geom_bond_atom_site_label_1
_geom_bond_atom_site_label_2
_geom_bond_distance
_ccdc_geom_bond_type
C75   C79   1.409848 A    
C61   C145  1.523985 S    
C63   C149  1.524054 S    
C131  H53   1.111304 S    
C63   C67   1.425820 A    
C48   N20   1.439896 S    
O44   Zn11  1.982725 S    
N11   O69   1.300689 A    
C14   C18   1.394650 A    
C23   N11   1.437908 S    
N17   O81   1.300767 A    
N15   O78   1.301540 A    
Zn7   O31   1.993561 S    
C88   C102  1.395553 S    
O44   C102  1.278437 A    
C73   N5    1.443659 S    
C71   C75   1.411721 A    
C121  H29   1.109514 S    
C113  H8    1.107863 S    
C9    C13   1.400326 A    
C76   C80   1.409541 A    
O38   Zn10  2.005341 S    
O16   C8    1.273836 A    
C117  H18   1.107819 S    
N8    O64   1.299575 A    
C65   C121  1.524177 S    
O42   C100  1.278930 A    
C142  H75   1.110437 S    
C98   C112  1.395252 S    
C46   C50   1.400480 A    
N4    O56   1.300298 A    
C141  H79   1.110505 S    
O41   C99   1.278407 A    
O4    C4    1.266212 A    
O37   C99   1.282267 A    
C150  H97   1.110425 S    
O33   C97   1.279969 A    
C148  H92   1.110395 S    
C139  H74   1.110757 S    
C120  H20   1.107398 S    
N5    O57   1.300856 A    
C64   C151  1.523671 S    
C76   N8    1.443050 S    
C147  C148  1.527493 S    
N6    O60   1.299716 A    
C32   C119  1.524571 S    
C124  H31   1.108382 S    
O31   C96   1.267346 A    
C138  H66   1.110065 S    
C45   N17   1.440610 S    
C143  C144  1.530227 S    
C141  C142  1.529799 S    
C118  H17   1.109193 S    
N18   O83   1.300637 A    
C75   N7    1.440557 S    
C62   C66   1.423267 A    
C7    C51   1.436650 S    
C4    C84   1.395572 S    
O28   C94   1.266356 A    
C38   C42   1.414056 A    
C122  H25   1.108551 S    
C8    C52   1.436365 S    
C103  C107  1.394572 S    
O16   Zn4   2.025428 S    
C74   C78   1.412613 A    
O13   C5    1.277485 A    
O7    Zn4   1.993902 S    
C139  C140  1.530183 S    
C31   C117  1.519923 S    
C140  H72   1.107385 S    
O15   C7    1.270635 A    
O4    Zn2   1.994453 S    
C128  H40   1.108091 S    
C44   C48   1.392333 A    
O19   C90   1.267584 A    
N22   O91   1.300517 A    
N16   O79   1.300751 A    
O9    C5    1.260216 A    
C37   C91   1.440218 S    
C71   N3    1.437677 S    
C25   N13   1.431318 S    
O32   C96   1.266841 A    
C149  H99   1.108765 S    
C119  H24   1.107722 S    
O8    Zn4   1.990362 S    
C16   C20   1.394410 A    
C152  H100  1.108814 S    
C24   N12   1.439772 S    
N14   O75   1.300766 A    
C121  C122  1.527305 S    
C129  H49   1.112552 S    
O3    Zn2   1.990914 S    
C60   C64   1.415291 A    
O11   Zn2   2.025865 S    
C29   C113  1.521642 S    
C149  C150  1.527774 S    
C33   C37   1.414890 A    
C35   C39   1.414431 A    
C36   C40   1.411850 A    
C33   C137  1.534136 S    
N9    O66   1.301065 A    
C20   C24   1.405673 A    
C59   N23   1.436756 S    
C147  H94   1.109169 S    
C42   C46   1.393308 A    
C134  H57   1.110471 S    
C25   C29   1.418020 A    
O20   C90   1.266292 A    
C27   C31   1.423870 A    
C136  H61   1.110824 S    
O3    C3    1.265819 A    
O27   C93   1.266830 A    
C24   C28   1.412099 A    
C123  C124  1.527184 S    
C49   C53   1.415850 A    
C19   C23   1.406185 A    
O35   Zn11  1.992725 S    
Zn11  O47   1.993051 S    
C133  C134  1.529289 S    
C118  H16   1.109779 S    
C62   C147  1.523606 S    
C145  H88   1.106447 S    
N21   O89   1.300176 A    
O25   Zn6   2.037368 S    
C130  H46   1.110262 S    
C41   C77   1.488891 S    
C114  H5    1.109444 S    
C137  H69   1.109600 S    
C43   C79   1.490828 S    
C57   C77   1.409649 A    
C149  H98   1.104804 S    
C74   N6    1.444856 S    
C10   C30   1.426366 A    
C59   C79   1.409118 A    
C47   N19   1.439505 S    
C40   C44   1.413254 A    
N11   O70   1.301256 A    
C142  H77   1.107698 S    
C127  H44   1.109469 S    
C116  H11   1.110381 S    
C106  C107  1.182227 T    
C1    C81   1.395545 S    
C5    C49   1.437074 S    
C68   C72   1.421923 A    
C115  C116  1.525536 S    
C129  C130  1.526318 S    
C110  C111  1.182316 T    
O24   Zn8   2.014180 S    
C125  H38   1.108929 S    
O5    Zn3   1.993902 S    
N20   O88   1.300599 A    
O33   Zn9   1.992725 S    
C131  C132  1.531722 S    
C120  H22   1.109283 S    
C26   N14   1.436927 S    
C15   C19   1.392972 A    
N1    O49   1.301198 A    
O8    C4    1.267273 A    
O42   Zn9   1.982725 S    
O48   C104  1.281495 A    
N13   O74   1.299179 A    
C36   C143  1.532034 S    
C126  H35   1.106948 S    
C150  H96   1.110368 S    
C133  H58   1.103933 S    
C10   C14   1.405828 A    
O13   Zn3   2.024884 S    
C97   C111  1.395255 S    
C134  H55   1.110120 S    
C131  H54   1.109754 S    
N10   O68   1.301327 A    
O5    C1    1.267704 A    
C37   C41   1.411439 A    
C144  H81   1.108999 S    
O25   C91   1.267808 A    
C133  H59   1.111840 S    
Zn6   O30   1.990022 S    
C58   C78   1.410025 A    
N3    O54   1.299937 A    
N24   O96   1.300533 A    
O15   Zn4   2.024884 S    
C132  H51   1.110801 S    
O17   C89   1.267152 A    
N23   O94   1.300740 A    
C40   C94   1.441056 S    
C135  H63   1.111217 S    
N19   O86   1.300704 A    
C60   C80   1.409139 A    
C115  H14   1.107849 S    
C2    C82   1.395488 S    
C6    C50   1.436710 S    
C34   C139  1.532278 S    
C69   C73   1.413398 A    
C117  C118  1.527391 S    
C81   C85   1.182505 T    
C36   C56   1.399268 A    
C17   C21   1.410507 A    
C128  H41   1.108402 S    
O14   C6    1.273328 A    
C83   C87   1.182499 T    
C52   C56   1.410467 A    
C46   N18   1.439894 S    
C143  H83   1.110427 S    
O10   C6    1.264462 A    
C130  H45   1.111029 S    
C152  H102  1.109386 S    
C51   C55   1.406795 A    
C151  H103  1.106285 S    
C72   C76   1.412504 A    
Zn9   O45   1.993051 S    
C65   C69   1.422220 A    
C144  H82   1.107409 S    
O18   C89   1.266761 A    
C58   N22   1.436441 S    
C67   C71   1.420960 A    
C89   C105  1.394336 S    
C142  H76   1.108861 S    
C127  C128  1.527471 S    
C135  C136  1.531783 S    
C146  H87   1.110369 S    
C126  H37   1.107801 S    
C57   C61   1.414550 A    
C148  H91   1.110421 S    
O21   C91   1.271997 A    
O27   Zn8   2.037368 S    
C34   C38   1.411485 A    
O35   C98   1.279978 A    
C59   C63   1.416239 A    
C151  C152  1.530376 S    
N12   O72   1.301353 A    
C57   N21   1.437438 S    
N3    O53   1.301303 A    
N7    O61   1.300661 A    
C124  H30   1.107849 S    
C26   C30   1.423611 A    
Zn10  O46   1.992497 S    
N18   O84   1.300601 A    
N12   O71   1.300983 A    
C122  H26   1.108495 S    
O20   Zn8   1.993411 S    
C123  H33   1.108826 S    
C70   C74   1.413535 A    
C21   N9    1.440627 S    
C18   C22   1.405429 A    
C140  H71   1.108926 S    
Zn12  O48   1.992497 S    
N22   O92   1.300763 A    
N16   O80   1.300238 A    
C136  H60   1.111253 S    
C45   C49   1.400586 A    
O26   C92   1.265119 A    
C68   C127  1.524112 S    
O22   Zn6   2.014180 S    
O34   C97   1.280048 A    
O30   C95   1.266838 A    
N17   O82   1.300834 A    
N14   O76   1.300277 A    
C66   C70   1.419132 A    
O12   Zn2   2.025325 S    
O40   Zn12  2.005341 S    
C129  H48   1.108729 S    
C33   C53   1.403577 A    
C20   C56   1.485005 S    
O1    C1    1.265759 A    
O36   C98   1.280029 A    
C35   C55   1.397111 A    
C125  C126  1.528123 S    
C61   C65   1.424334 A    
C23   C27   1.411474 A    
O19   Zn7   1.989869 S    
C69   N1    1.437501 S    
C58   C62   1.413269 A    
C13   H1    1.084833 S    
C84   C88   1.182498 T    
C15   H3    1.084180 S    
C144  H80   1.110527 S    
N9    O65   1.300764 A    
C60   N24   1.438105 S    
C21   C25   1.415332 A    
N4    O55   1.301135 A    
C139  H73   1.110460 S    
N5    O58   1.299611 A    
C11   C133  1.519502 S    
C30   C115  1.524132 S    
O39   Zn11  2.005343 S    
C12   C16   1.405789 A    
C12   C135  1.526919 S    
N6    O59   1.300776 A    
C124  H32   1.110495 S    
C138  H65   1.110507 S    
O40   C102  1.282263 A    
C35   C141  1.529990 S    
N21   O90   1.300470 A    
O46   C103  1.279263 A    
C44   C80   1.487714 S    
O23   C93   1.272729 A    
O6    C2    1.266901 A    
C114  H6    1.109107 S    
C137  H68   1.108562 S    
O22   C92   1.275304 A    
O29   C95   1.267359 A    
O43   Zn12  1.982729 S    
C13   C17   1.398995 A    
C87   C101  1.395533 S    
C113  H9    1.109331 S    
O41   Zn10  1.982729 S    
C66   C123  1.522954 S    
C116  H10   1.107031 S    
C146  H86   1.108675 S    
C41   C45   1.390454 A    
N2    O52   1.300397 A    
O2    Zn1   1.994453 S    
C43   C47   1.394334 A    
C39   C93   1.439260 S    
O10   Zn1   2.025325 S    
O43   C101  1.278374 A    
C85   C99   1.395529 S    
C9    C129  1.514068 S    
C114  H7    1.110552 S    
C86   C100  1.395746 S    
C34   C54   1.399097 A    
C104  C108  1.394532 S    
C113  C114  1.523675 S    
C50   C54   1.410301 A    
C119  H23   1.106273 S    
C120  H21   1.110499 S    
O38   C100  1.281784 A    
C11   C31   1.426579 A    
O39   C101  1.282286 A    
C12   C32   1.426484 A    
C138  H67   1.106648 S    
C38   C92   1.441390 S    
N19   O85   1.300770 A    
N13   O73   1.300941 A    
C42   C78   1.489485 S    
C48   C52   1.399508 A    
O37   Zn9   2.005343 S    
C126  H36   1.110568 S    
C137  C138  1.530308 S    
N2    O51   1.301098 A    
O7    C3    1.267648 A    
N8    O63   1.300939 A    
C123  H34   1.109886 S    
C121  H28   1.106191 S    
Zn5   O29   1.993561 S    
C17   C53   1.492110 S    
C147  H93   1.105191 S    
N7    O62   1.300267 A    
C90   C106  1.394408 S    
C19   C55   1.483647 S    
C127  H43   1.106539 S    
C27   N15   1.438152 S    
C141  H78   1.111095 S    
C136  H62   1.110577 S    
N23   O93   1.300555 A    
O28   Zn7   2.037366 S    
C119  C120  1.525496 S    
C118  H15   1.106668 S    
C132  H50   1.111266 S    
C10   C131  1.527288 S    
O11   C7    1.266144 A    
C145  H89   1.110168 S    
O12   C8    1.263814 A    
N15   O77   1.301039 A    
C135  H64   1.108948 S    
O1    Zn1   1.990914 S    
O9    Zn1   2.025865 S    
C140  H70   1.110541 S    
C39   C43   1.413984 A    
C64   C68   1.424702 A    
C16   H4    1.080786 S    
C116  H12   1.108925 S    
C146  H85   1.108431 S    
O26   Zn5   2.037366 S    
O45   C103  1.280811 A    
C152  H101  1.108659 S    
O21   Zn5   2.014182 S    
O6    Zn3   1.990362 S    
C151  H104  1.110113 S    
C125  H39   1.109895 S    
N1    O50   1.300455 A    
C72   N4    1.436707 S    
C134  H56   1.110409 S    
C18   C54   1.485057 S    
O47   C104  1.278547 A    
C3    C83   1.395557 S    
C105  C108  1.182266 T    
C28   N16   1.437087 S    
C95   C109  1.394832 S    
C130  H47   1.109810 S    
O2    C2    1.266467 A    
C150  H95   1.109447 S    
C148  H90   1.109753 S    
C82   C86   1.182530 T    
C109  C112  1.182315 T    
O17   Zn5   1.989869 S    
O36   Zn12  1.993272 S    
C14   H2    1.080791 S    
O18   Zn6   1.993411 S    
O14   Zn3   2.025428 S    
C117  H19   1.105678 S    
O34   Zn10  1.993272 S    
Zn8   O32   1.990022 S    
C145  C146  1.530188 S    
C22   C26   1.411823 A    
C22   N10   1.439768 S    
N10   O67   1.301009 A    
C47   C51   1.399918 A    
C122  H27   1.110666 S    
C70   N2    1.435678 S    
N20   O87   1.300822 A    
C9    C29   1.419708 A    
C11   C15   1.400798 A    
C67   C125  1.525705 S    
N24   O95   1.300286 A    
C132  H52   1.110570 S    
C128  H42   1.110604 S    
C96   C110  1.394827 S    
C115  H13   1.106132 S    
C143  H84   1.110679 S    
O23   Zn7   2.014182 S    
O24   C94   1.273943 A    
C73   C77   1.410320 A    
C28   C32   1.423626 A    
