data_mof_unit_63845.cif
_audit_creation_date              2012-10-26T21:11:18-0400
_audit_creation_method            fapswitch 2.2
_symmetry_space_group_name_H-M    P1
_symmetry_Int_Tables_number       1
_space_group_crystal_system       triclinic
_cell_length_a                    15.959274
_cell_length_b                    14.432034
_cell_length_c                    13.146034
_cell_angle_alpha                 90.000016
_cell_angle_beta                  90.013639
_cell_angle_gamma                 89.999873
_cell_volume                      3027.85736864

loop_
_atom_site_label
_atom_site_type_symbol
_atom_type_description
_atom_site_fract_x
_atom_site_fract_y
_atom_site_fract_z
_atom_type_partial_charge
C1    C     C_1   0.500000 0.227124 0.500000 -0.049645
C2    C     C_R   0.500000 0.671296 0.500000 0.551107
C3    C     C_R   0.337723 0.500000 0.499968 0.560164
C4    C     C_R   0.662277 0.500000 0.500032 0.560164
C5    C     C_1   0.500000 0.142310 0.500000 -0.046025
C6    C     C_1   0.500000 0.857689 0.500000 -0.046025
C7    C     C_1   0.500014 0.500000 0.173629 0.118571
C8    C     C_1   0.499986 0.500000 0.826371 0.118571
C9    C     C_1   0.500000 0.042406 0.500000 -0.004379
C10   C     C_1   0.500000 0.957594 0.500000 -0.004379
C11   C     C_3   0.972653 0.424398 0.548866 0.045848
C12   C     C_1   0.500000 0.772876 0.500000 -0.049645
C13   C     C_3   0.027347 0.575602 0.451134 0.045847
C14   C     C_3   0.027348 0.423931 0.452016 0.045852
C15   C     C_3   0.972652 0.576069 0.547984 0.045850
C16   C     C_1   0.500004 0.500000 0.050681 -0.051037
C17   C     C_1   0.499996 0.500000 0.949319 -0.051037
C18   C     C_1   0.248647 0.500000 0.499911 -0.044124
C19   C     C_1   0.751353 0.500000 0.500089 -0.044124
C20   C     C_3   0.063766 0.341757 0.393245 -0.271017
C21   C     C_3   0.995529 0.279170 0.349974 -0.441759
C22   C     C_3   0.936232 0.658243 0.606755 -0.271017
C23   C     C_3   0.028515 0.500468 0.596971 -0.100944
C24   C     C_3   0.004468 0.720829 0.650030 -0.441753
C25   C     C_3   0.936235 0.342796 0.608590 -0.271013
C26   C     C_3   0.004474 0.280630 0.652585 -0.441754
C27   C     C_3   0.063766 0.657204 0.391411 -0.271012
C28   C     C_3   0.995529 0.719365 0.347404 -0.441745
C29   C     C_3   0.971485 0.499532 0.403029 -0.100942
C30   C     C_3   0.082501 0.499997 0.499289 0.024218
C31   C     C_3   0.917499 0.500004 0.500711 0.024219
C32   C     C_1   0.173618 0.499999 0.499743 -0.076966
C33   C     C_1   0.826382 0.500001 0.500257 -0.076966
C34   C     C_R   0.500000 0.328704 0.500000 0.551107
Cu1   Cu    Cu3+1 0.499990 0.500000 0.592680 0.975433
Cu2   Cu    Cu3+1 0.500010 0.500000 0.407320 0.975433
H1    H     H_    0.946619 0.499152 0.324153 0.102421
H2    H     H_    0.975238 0.775798 0.697261 0.137753
H3    H     H_    0.894384 0.698947 0.556308 0.143151
H4    H     H_    0.897801 0.631050 0.670571 0.143912
H5    H     H_    0.040060 0.246180 0.590894 0.151412
H6    H     H_    0.048173 0.321527 0.700610 0.150672
H7    H     H_    0.975249 0.226128 0.700465 0.137761
H8    H     H_    0.897807 0.370602 0.672088 0.143930
H9    H     H_    0.894386 0.301608 0.558621 0.143160
H10   H     H_    0.951847 0.678467 0.299353 0.150664
H11   H     H_    0.959920 0.753798 0.409091 0.151417
H12   H     H_    0.053380 0.500849 0.675847 0.102421
H13   H     H_    0.024758 0.773882 0.299546 0.137761
H14   H     H_    0.105610 0.698396 0.441383 0.143156
H15   H     H_    0.102201 0.629398 0.327918 0.143931
H16   H     H_    0.959940 0.245318 0.412062 0.151407
H17   H     H_    0.951830 0.319601 0.301474 0.150664
H18   H     H_    0.024754 0.224207 0.302733 0.137752
H19   H     H_    0.102195 0.368949 0.329428 0.143912
H20   H     H_    0.105615 0.301053 0.443691 0.143156
H21   H     H_    0.048159 0.680399 0.698544 0.150659
H22   H     H_    0.040066 0.754673 0.587944 0.151408
N1    N     N_1   0.500020 0.500000 0.268070 -0.166963
N2    N     N_1   0.499980 0.500000 0.731930 -0.166962
O1    O     O_R   0.499990 0.376050 0.578280 -0.472416
O2    O     O_R   0.500010 0.623950 0.421720 -0.472416
O3    O     O_R   0.500010 0.376050 0.421720 -0.472413
O4    O     O_R   0.499990 0.623950 0.578280 -0.472413
O5    O     O_R   0.379070 0.500000 0.578250 -0.482563
O6    O     O_R   0.620930 0.500000 0.421750 -0.482563
O7    O     O_R   0.379080 0.500000 0.421720 -0.484424
O8    O     O_R   0.620920 0.500000 0.578280 -0.484424

loop_
_geom_bond_atom_site_label_1
_geom_bond_atom_site_label_2
_ccdc_geom_bond_type
C6    C10   S    
C4    O6    A    
C31   C33   S    
C28   H11   S    
C5    C9    S    
Cu1   O4    S    
C25   H9    S    
C21   H17   S    
Cu2   O3    S    
C28   H13   S    
C24   H2    S    
C8    C17   S    
C27   H14   S    
C20   H20   S    
Cu2   N1    S    
C2    C12   S    
C15   C23   S    
Cu2   O7    S    
C11   C31   S    
Cu1   O1    S    
C29   C31   S    
C20   C21   S    
C30   C32   S    
C28   H10   S    
C3    O5    A    
C3    O7    A    
Cu1   O8    S    
C14   C30   S    
C20   H19   S    
C1    C5    T    
C22   H3    S    
C25   H8    S    
C13   C29   S    
C7    C16   S    
C11   C23   S    
C15   C22   S    
C27   H15   S    
C26   H7    S    
Cu2   O6    S    
C13   C15   S    
C6    C12   T    
C21   H18   S    
C2    O4    A    
C11   C14   S    
C22   C24   S    
C34   O3    A    
C18   C32   T    
Cu1   O5    S    
C14   C29   S    
C29   H1    S    
Cu1   N2    S    
C23   C30   S    
C14   C20   S    
C13   C30   S    
C21   H16   S    
C16   C17   T    
C1    C34   S    
C26   H6    S    
C3    C18   S    
C24   H22   S    
C9    C10   T    
C7    N1    T    
C27   C28   S    
C4    O8    A    
C11   C25   S    
C22   H4    S    
C13   C27   S    
C23   H12   S    
C25   C26   S    
C4    C19   S    
C15   C31   S    
C34   O1    A    
C8    N2    T    
C2    O2    A    
C26   H5    S    
C19   C33   T    
C24   H21   S    
Cu2   O2    S    
Cu1   Cu2   S    
