data_mof_unit_60347.cif
_audit_creation_date              2012-12-10T20:20:48-0500
_audit_creation_method            fapswitch 2.2
_symmetry_space_group_name_H-M    P1
_symmetry_Int_Tables_number       1
_space_group_crystal_system       triclinic
_cell_length_a                    41.548769
_cell_length_b                    35.599423
_cell_length_c                    21.346289
_cell_angle_alpha                 90.002865
_cell_angle_beta                  58.707504
_cell_angle_gamma                 90.029906
_cell_volume                      26980.447679

loop_
_atom_site_label
_atom_site_type_symbol
_atom_type_description
_atom_site_fract_x
_atom_site_fract_y
_atom_site_fract_z
_atom_type_partial_charge
C1    C     C_R   0.926758 0.500014 0.073223 0.906770
C2    C     C_R   0.326795 0.529257 0.698322 -0.206186
C3    C     C_R   0.000164 0.806826 0.499834 0.043877
C4    C     C_1   0.500063 0.266627 0.499936 -0.038939
C5    C     C_1   0.000162 0.766629 0.499837 -0.038989
C6    C     C_1   0.000147 0.733060 0.499854 0.003703
C7    C     C_1   0.500066 0.233058 0.499938 0.003645
C8    C     C_R   0.981791 0.673463 0.567420 0.133199
C9    C     C_R   0.018400 0.673451 0.432387 0.133100
C10   C     C_R   0.481762 0.173452 0.567472 0.133173
C11   C     C_R   0.518354 0.173458 0.432440 0.133189
C12   C     C_R   0.981860 0.633903 0.567170 -0.030522
C13   C     C_R   0.173499 0.027958 0.299077 -0.206060
C14   C     C_R   0.018254 0.633891 0.432706 -0.030503
C15   C     C_R   0.481855 0.133892 0.567201 -0.030523
C16   C     C_R   0.518231 0.133898 0.432737 -0.030530
C17   C     C_R   0.000038 0.614325 0.499955 -0.211940
C18   C     C_R   0.500033 0.114324 0.499976 -0.211935
C19   C     C_3   0.033003 0.515871 0.237982 -0.222529
C20   C     C_3   0.967047 0.515923 0.761972 -0.222597
C21   C     C_3   0.533011 0.015846 0.237977 -0.222518
C22   C     C_3   0.466989 0.015816 0.762027 -0.222515
C23   C     C_R   0.000115 0.692804 0.499887 0.076895
C24   C     C_R   0.826798 0.029264 0.698328 -0.206255
C25   C     C_R   0.500063 0.192802 0.499949 0.076892
C26   C     C_R   0.497493 0.673001 0.445490 0.019020
C27   C     C_R   0.502373 0.673006 0.554671 0.019021
C28   C     C_R   0.997550 0.173004 0.445428 0.019007
C29   C     C_R   0.002317 0.173007 0.554736 0.019065
C30   C     C_R   0.497602 0.633906 0.445684 -0.216895
C31   C     C_R   0.502321 0.633911 0.554408 -0.216779
C32   C     C_R   0.997658 0.133908 0.445622 -0.217209
C33   C     C_R   0.002266 0.133911 0.554473 -0.217021
C34   C     C_R   0.499977 0.614210 0.500028 -0.064846
C35   C     C_R   0.634120 0.529541 0.341070 -0.054502
C36   C     C_R   0.999978 0.114211 0.500028 -0.065319
C37   C     C_R   0.499918 0.692595 0.500097 0.043921
C38   C     C_R   0.999921 0.192596 0.500098 0.043903
C39   C     C_1   0.499905 0.732642 0.500115 -0.038852
C40   C     C_1   0.999911 0.232644 0.500114 -0.038881
C41   C     C_1   0.999912 0.266122 0.500118 0.006079
C42   C     C_1   0.499905 0.766120 0.500118 0.006070
C43   C     C_R   0.970845 0.325448 0.498218 0.134191
C44   C     C_R   0.029021 0.325460 0.501992 0.134210
C45   C     C_R   0.470828 0.825448 0.498258 0.134158
C46   C     C_R   0.365929 0.529563 0.658930 -0.054506
C47   C     C_R   0.529032 0.825455 0.501933 0.134180
C48   C     C_R   0.970837 0.364984 0.498331 -0.029741
C49   C     C_R   0.029067 0.364996 0.501827 -0.029719
C50   C     C_R   0.470825 0.864984 0.498364 -0.029745
C51   C     C_R   0.529083 0.864991 0.501760 -0.029733
C52   C     C_R   0.999964 0.384934 0.500056 -0.230898
C53   C     C_R   0.499965 0.884932 0.500044 -0.230945
C54   C     C_3   0.000610 0.499921 0.310551 -0.047975
C55   C     C_3   0.999392 0.499915 0.689447 -0.047962
C56   C     C_3   0.500605 0.999917 0.310552 -0.047965
C57   C     C_R   0.134393 0.028879 0.339239 -0.051968
C58   C     C_3   0.499390 0.999919 0.689448 -0.047945
C59   C     C_R   0.999925 0.306248 0.500112 0.080177
C60   C     C_R   0.499920 0.806246 0.500109 0.080185
C61   C     C_3   0.970761 0.519869 0.300738 -0.235972
C62   C     C_3   0.029302 0.519809 0.699199 -0.235995
C63   C     C_3   0.470772 0.019889 0.300720 -0.235979
C64   C     C_3   0.529230 0.019913 0.699274 -0.236007
C65   C     C_3   0.968438 0.484241 0.261256 -0.217860
C66   C     C_3   0.031521 0.484176 0.738782 -0.217909
C67   C     C_3   0.468425 0.984265 0.261254 -0.217847
C68   C     C_R   0.865932 0.029571 0.658919 -0.054501
C69   C     C_3   0.531568 0.984286 0.738733 -0.217897
C70   C     C_3   0.998324 0.464740 0.272117 0.238966
C71   C     C_3   0.001575 0.464728 0.727980 0.239033
C72   C     C_3   0.498295 0.964739 0.272136 0.238966
C73   C     C_3   0.501690 0.964740 0.727858 0.238962
C74   C     C_3   0.030190 0.480519 0.199122 0.207225
C75   C     C_3   0.969756 0.480566 0.800932 0.207270
C76   C     C_3   0.530175 0.980498 0.199136 0.207191
C77   C     C_3   0.469817 0.980467 0.800864 0.207158
C78   C     C_1   0.694131 0.434960 0.351718 0.163253
C79   C     C_R   0.614108 0.498438 0.385045 -0.088443
C80   C     C_1   0.305754 0.435082 0.648190 0.163293
C81   C     C_1   0.193860 0.934335 0.352055 0.158297
C82   C     C_1   0.805750 0.935072 0.648273 0.163264
C83   C     C_3   0.804741 0.538062 0.094603 -0.862500
C84   C     C_3   0.195292 0.538036 0.905435 -0.862413
C85   C     C_3   0.304818 0.036707 0.092871 -0.862684
C86   C     C_3   0.695281 0.038032 0.905495 -0.862500
C87   C     C_1   0.887376 0.537060 0.014649 0.183013
C88   C     C_1   0.112654 0.536992 0.985417 0.182909
C89   C     C_1   0.387445 0.036743 0.014161 0.182783
C90   C     C_R   0.385889 0.498461 0.614956 -0.088466
C91   C     C_1   0.612644 0.036981 0.985458 0.182880
C92   C     C_3   0.887699 0.465029 0.215585 -0.873144
C93   C     C_3   0.112256 0.465271 0.784252 -0.873546
C94   C     C_3   0.387586 0.965371 0.215899 -0.874509
C95   C     C_3   0.612269 0.965262 0.784270 -0.873487
C96   C     C_3   0.804190 0.461927 0.296733 -0.869136
C97   C     C_3   0.195769 0.462234 0.703020 -0.869104
C98   C     C_3   0.304139 0.961226 0.295810 -0.868366
C99   C     C_3   0.695780 0.962222 0.703068 -0.869130
C100  C     C_1   0.502197 0.307130 0.614395 0.161206
C101  C     C_R   0.114158 0.998415 0.385008 -0.099267
C102  C     C_1   0.497906 0.307117 0.385497 0.161209
C103  C     C_1   0.002293 0.807132 0.614301 0.160818
C104  C     C_1   0.998043 0.807119 0.385358 0.161312
C105  C     C_3   0.962661 0.695671 0.638541 -0.852062
C106  C     C_3   0.037572 0.695646 0.361229 -0.851827
C107  C     C_3   0.462629 0.195650 0.638604 -0.852050
C108  C     C_3   0.537504 0.195663 0.361294 -0.852078
C109  C     C_1   0.964335 0.613120 0.635584 0.192783
C110  C     C_1   0.035740 0.613095 0.364326 0.192765
C111  C     C_1   0.464354 0.113098 0.635604 0.192714
C112  C     C_R   0.073241 0.500034 0.926770 0.906826
C113  C     C_R   0.885889 0.998465 0.614959 -0.088472
C114  C     C_1   0.535719 0.113111 0.364348 0.192710
C115  C     C_1   0.494826 0.692444 0.388890 0.164873
C116  C     C_1   0.505014 0.692454 0.611302 0.164884
C117  C     C_1   0.994942 0.192447 0.388763 0.164914
C118  C     C_1   0.004900 0.192454 0.611435 0.164758
C119  C     C_1   0.005655 0.574434 0.203711 0.243180
C120  C     C_1   0.994573 0.574440 0.796065 0.243053
C121  C     C_1   0.505707 0.074431 0.203660 0.243208
C122  C     C_1   0.494317 0.074422 0.796331 0.243286
C123  C     C_3   0.940322 0.302955 0.495898 -0.867894
C124  C     C_R   0.633579 0.466576 0.388645 0.116587
C125  C     C_3   0.059520 0.302979 0.504346 -0.867927
C126  C     C_3   0.440290 0.802956 0.495992 -0.867807
C127  C     C_3   0.559545 0.802971 0.504236 -0.867883
C128  C     C_1   0.941240 0.384924 0.495234 0.209735
C129  C     C_1   0.058673 0.384948 0.504934 0.209666
C130  C     C_1   0.441220 0.884925 0.495295 0.209812
C131  C     C_1   0.558715 0.884939 0.504784 0.209823
C132  C     C_3   0.995755 0.424664 0.298909 -0.909995
C133  C     C_3   0.004021 0.424648 0.701302 -0.910014
C134  C     C_3   0.495695 0.924665 0.298956 -0.909977
C135  C     C_R   0.366362 0.466631 0.611332 0.116600
C136  C     C_3   0.504277 0.924669 0.701035 -0.909967
C137  C     C_3   0.063578 0.457995 0.141235 -0.880376
C138  C     C_3   0.936302 0.458102 0.858890 -0.880557
C139  C     C_3   0.563551 0.957955 0.141263 -0.880385
C140  C     C_3   0.436439 0.957882 0.858723 -0.880278
C141  C     C_1   0.614990 0.562547 0.337007 0.173224
C142  C     C_1   0.385116 0.562540 0.663011 0.173340
C143  C     C_1   0.115529 0.061829 0.334137 0.173249
C144  C     C_1   0.885121 0.062553 0.662972 0.173423
C145  C     C_3   0.612951 0.431898 0.432691 -0.864381
C146  C     C_R   0.133228 0.966559 0.389743 0.117480
C147  C     C_3   0.386929 0.431952 0.567295 -0.864410
C148  C     C_3   0.110741 0.933441 0.437266 -0.866834
C149  C     C_3   0.886926 0.931946 0.567339 -0.864498
C150  C     C_R   0.866360 0.966629 0.611364 0.116546
C151  C     C_R   0.673278 0.466903 0.348770 0.025793
C152  C     C_R   0.326663 0.466989 0.651174 0.025771
C153  C     C_R   0.173002 0.966104 0.348602 0.035703
C154  C     C_R   0.826661 0.966985 0.651225 0.025793
C155  C     C_R   0.692683 0.498313 0.305585 0.035766
C156  C     C_R   0.426756 0.000006 0.073239 0.906802
C157  C     C_R   0.307312 0.498397 0.694360 0.035763
C158  C     C_R   0.192657 0.997032 0.303815 0.033362
C159  C     C_R   0.807312 0.998397 0.694398 0.035774
C160  C     C_1   0.732838 0.499469 0.264991 -0.034598
C161  C     C_1   0.267159 0.499579 0.734936 -0.034596
C162  C     C_1   0.232837 0.997955 0.263057 -0.033910
C163  C     C_1   0.767159 0.999579 0.734988 -0.034620
C164  C     C_1   0.766485 0.499953 0.231801 0.001032
C165  C     C_1   0.233512 0.500076 0.768114 0.001051
C166  C     C_1   0.266488 0.998528 0.230016 0.001409
C167  C     C_R   0.573241 0.000034 0.926776 0.906810
C168  C     C_1   0.733513 0.000074 0.768170 0.001043
C169  C     C_R   0.826587 0.518640 0.124506 0.138073
C170  C     C_R   0.173427 0.518681 0.875475 0.138068
C171  C     C_R   0.326623 0.017695 0.123280 0.138179
C172  C     C_R   0.673423 0.018676 0.875524 0.138085
C173  C     C_R   0.000238 0.500053 0.121446 0.886188
C174  C     C_R   0.999765 0.500051 0.878550 0.886165
C175  C     C_R   0.500241 0.000053 0.121442 0.886321
C176  C     C_R   0.499761 0.000051 0.878555 0.886212
C177  C     C_R   0.866200 0.518623 0.085482 -0.063993
C178  C     C_3   0.000637 0.500225 0.188454 -0.075688
C179  C     C_R   0.133814 0.518637 0.914520 -0.063980
C180  C     C_R   0.366232 0.018174 0.084845 -0.064319
C181  C     C_R   0.633809 0.018633 0.914557 -0.063975
C182  C     C_R   0.885495 0.500128 0.114788 -0.178163
C183  C     C_R   0.114502 0.500196 0.885169 -0.178072
C184  C     C_R   0.385491 0.000029 0.114584 -0.177817
C185  C     C_R   0.614503 0.000193 0.885192 -0.178075
C186  C     C_R   0.865666 0.482305 0.184043 0.161537
C187  C     C_R   0.134312 0.482473 0.815835 0.161669
C188  C     C_R   0.365620 0.982173 0.183795 0.162264
C189  C     C_3   0.999369 0.500220 0.811539 -0.075683
C190  C     C_R   0.634319 0.982467 0.815863 0.161631
C191  C     C_R   0.825867 0.481874 0.223184 0.179825
C192  C     C_R   0.174112 0.482073 0.776664 0.179864
C193  C     C_R   0.325834 0.981244 0.222345 0.179442
C194  C     C_R   0.674118 0.982065 0.776706 0.179867
C195  C     C_R   0.806808 0.500058 0.192748 0.051737
C196  C     C_R   0.193189 0.500185 0.807161 0.051718
C197  C     C_R   0.306812 0.998992 0.191395 0.051614
C198  C     C_R   0.693190 0.000180 0.807211 0.051716
C199  C     C_R   0.000010 0.573183 0.499988 0.896674
C200  C     C_3   0.500640 0.000227 0.188449 -0.075709
C201  C     C_R   0.500010 0.073182 0.499991 0.896690
C202  C     C_R   0.000149 0.499908 0.378213 0.904012
C203  C     C_R   0.999851 0.499905 0.621787 0.903998
C204  C     C_R   0.500148 0.999905 0.378213 0.903987
C205  C     C_R   0.499851 0.999908 0.621786 0.903992
C206  C     C_R   0.999989 0.426496 0.500015 0.886833
C207  C     C_R   0.499990 0.926496 0.500011 0.886796
C208  C     C_R   0.499998 0.573158 0.500004 0.897884
C209  C     C_R   0.999999 0.073158 0.500003 0.897751
C210  C     C_R   0.573093 0.499515 0.426700 0.885834
C211  C     C_3   0.499361 0.000218 0.811546 -0.075679
C212  C     C_R   0.426906 0.499516 0.573301 0.885780
C213  C     C_R   0.073103 0.999587 0.426705 0.895058
C214  C     C_R   0.926907 0.999517 0.573301 0.886067
C215  C     C_3   0.003023 0.535281 0.227432 -0.005729
C216  C     C_3   0.997087 0.535280 0.772462 -0.005761
C217  C     C_3   0.503047 0.035279 0.227408 -0.005736
C218  C     C_3   0.496962 0.035272 0.772590 -0.005712
C219  C     C_R   0.500000 0.426596 0.499999 0.858397
C220  C     C_R   0.000051 0.926597 0.499949 0.864566
C221  C     C_R   0.501099 0.326511 0.556027 0.020547
C222  C     C_R   0.673254 0.529207 0.301652 -0.206181
C223  C     C_R   0.498986 0.326505 0.443882 0.020533
C224  C     C_R   0.001199 0.826513 0.555929 0.020345
C225  C     C_R   0.999107 0.826507 0.443762 0.021707
C226  C     C_R   0.501090 0.365661 0.555708 -0.230661
C227  C     C_R   0.498957 0.365655 0.444238 -0.230636
C228  C     C_R   0.001176 0.865663 0.555625 -0.228881
C229  C     C_R   0.999064 0.865657 0.444133 -0.233265
C230  C     C_R   0.500014 0.385425 0.499983 -0.073932
C231  C     C_R   0.000095 0.885426 0.499905 -0.076548
C232  C     C_R   0.500051 0.306824 0.499946 0.043694
H1    H     H_    0.059372 0.528647 0.229439 0.179043
H2    H     H_    0.504220 0.618911 0.596583 0.170001
H3    H     H_    0.919515 0.447576 0.835678 0.246730
H4    H     H_    0.946443 0.433897 0.876695 0.253102
H5    H     H_    0.918300 0.476186 0.906891 0.239670
H6    H     H_    0.580300 0.947395 0.164517 0.246678
H7    H     H_    0.553327 0.933771 0.123545 0.253141
H8    H     H_    0.581617 0.975993 0.093197 0.239687
H9    H     H_    0.419694 0.947305 0.835459 0.246685
H10   H     H_    0.446662 0.933709 0.876436 0.253145
H11   H     H_    0.418370 0.975896 0.906795 0.239665
H12   H     H_    0.619004 0.427633 0.477102 0.248069
H13   H     H_    0.995823 0.118906 0.403374 0.170130
H14   H     H_    0.582022 0.433270 0.458038 0.236345
H15   H     H_    0.622698 0.406888 0.396316 0.241553
H16   H     H_    0.380896 0.427733 0.522845 0.248084
H17   H     H_    0.417858 0.433289 0.542003 0.236331
H18   H     H_    0.377115 0.406930 0.603662 0.241548
H19   H     H_    0.128377 0.909104 0.432955 0.246551
H20   H     H_    0.094567 0.942093 0.495689 0.254194
H21   H     H_    0.090825 0.923479 0.420864 0.228368
H22   H     H_    0.880882 0.927715 0.522907 0.248122
H23   H     H_    0.917856 0.933288 0.542026 0.236260
H24   H     H_    0.004119 0.118912 0.596698 0.169990
H25   H     H_    0.877119 0.906930 0.603722 0.241539
H26   H     H_    0.946576 0.536251 0.343626 0.165676
H27   H     H_    0.053537 0.536147 0.656263 0.165722
H28   H     H_    0.446598 0.036286 0.343597 0.165677
H29   H     H_    0.553409 0.036332 0.656396 0.165644
H30   H     H_    0.942321 0.470745 0.270228 0.155596
H31   H     H_    0.057596 0.470631 0.729858 0.155733
H32   H     H_    0.442304 0.970801 0.270174 0.155748
H33   H     H_    0.940715 0.528745 0.770483 0.179052
H34   H     H_    0.557689 0.970826 0.729746 0.155654
H35   H     H_    0.688713 0.553232 0.268115 0.156597
H36   H     H_    0.311377 0.553281 0.731860 0.156615
H37   H     H_    0.189166 0.051577 0.264350 0.156476
H38   H     H_    0.811383 0.053291 0.731856 0.156598
H39   H     H_    0.822769 0.551948 0.040928 0.247135
H40   H     H_    0.787014 0.517162 0.087552 0.241365
H41   H     H_    0.786235 0.560003 0.133788 0.240437
H42   H     H_    0.177276 0.551859 0.959162 0.247153
H43   H     H_    0.213009 0.517108 0.912399 0.241359
H44   H     H_    0.559386 0.028605 0.229434 0.179013
H45   H     H_    0.213809 0.560017 0.866328 0.240451
H46   H     H_    0.322866 0.050687 0.039306 0.247147
H47   H     H_    0.287457 0.015530 0.085389 0.241401
H48   H     H_    0.285960 0.058498 0.131964 0.240359
H49   H     H_    0.677262 0.051855 0.959220 0.247146
H50   H     H_    0.712996 0.017105 0.912468 0.241358
H51   H     H_    0.713800 0.060013 0.866390 0.240442
H52   H     H_    0.870300 0.455980 0.273377 0.241971
H53   H     H_    0.903399 0.440036 0.182956 0.256733
H54   H     H_    0.907908 0.486064 0.213684 0.217005
H55   H     H_    0.440617 0.028555 0.770575 0.178997
H56   H     H_    0.129643 0.456261 0.726444 0.242034
H57   H     H_    0.096517 0.440263 0.816828 0.256713
H58   H     H_    0.092080 0.486336 0.786195 0.217090
H59   H     H_    0.370091 0.956337 0.273684 0.242284
H60   H     H_    0.403620 0.940463 0.183462 0.256703
H61   H     H_    0.407497 0.986694 0.214287 0.217111
H62   H     H_    0.629660 0.956259 0.726458 0.242023
H63   H     H_    0.596534 0.940251 0.816837 0.256730
H64   H     H_    0.592090 0.986325 0.786220 0.217044
H65   H     H_    0.773328 0.461377 0.320883 0.248115
H66   H     H_    0.501952 0.380663 0.599021 0.170279
H67   H     H_    0.813428 0.432183 0.290371 0.249745
H68   H     H_    0.809273 0.476225 0.337037 0.239907
H69   H     H_    0.226635 0.461715 0.678824 0.248068
H70   H     H_    0.186534 0.432484 0.709257 0.249752
H71   H     H_    0.190664 0.476597 0.662810 0.239923
H72   H     H_    0.273330 0.960236 0.319427 0.248650
H73   H     H_    0.313753 0.931621 0.289559 0.249704
H74   H     H_    0.308777 0.975778 0.336470 0.239925
H75   H     H_    0.726646 0.961699 0.678886 0.248071
H76   H     H_    0.686542 0.932473 0.709307 0.249759
H77   H     H_    0.498083 0.380653 0.400939 0.170267
H78   H     H_    0.690685 0.976584 0.662846 0.239909
H79   H     H_    0.948731 0.677956 0.688438 0.248078
H80   H     H_    0.983844 0.713329 0.641577 0.252385
H81   H     H_    0.940718 0.714169 0.640195 0.241893
H82   H     H_    0.051469 0.677921 0.311362 0.248087
H83   H     H_    0.016422 0.713319 0.358163 0.252325
H84   H     H_    0.059549 0.714128 0.359544 0.242022
H85   H     H_    0.448719 0.177926 0.688491 0.248093
H86   H     H_    0.483806 0.213322 0.641631 0.252358
H87   H     H_    0.440671 0.214133 0.640285 0.241917
H88   H     H_    0.002026 0.880665 0.598950 0.169702
H89   H     H_    0.551408 0.177945 0.311419 0.248090
H90   H     H_    0.516339 0.213321 0.358247 0.252363
H91   H     H_    0.559471 0.214161 0.359609 0.241909
H92   H     H_    0.918588 0.320349 0.494626 0.244958
H93   H     H_    0.953327 0.284985 0.446135 0.249396
H94   H     H_    0.925611 0.284713 0.545169 0.243846
H95   H     H_    0.081269 0.320382 0.505603 0.244968
H96   H     H_    0.046497 0.285011 0.554130 0.249397
H97   H     H_    0.074218 0.284736 0.455096 0.243836
H98   H     H_    0.418546 0.820351 0.494759 0.244973
H99   H     H_    0.998193 0.880654 0.400828 0.170372
H100  H     H_    0.453277 0.784986 0.446229 0.249402
H101  H     H_    0.425593 0.784715 0.545267 0.243852
H102  H     H_    0.581304 0.820372 0.505458 0.244957
H103  H     H_    0.546536 0.785004 0.554020 0.249414
H104  H     H_    0.574226 0.784728 0.454983 0.243839
H105  H     H_    0.995707 0.404807 0.258893 0.252391
H106  H     H_    0.020181 0.418560 0.305014 0.240499
H107  H     H_    0.969346 0.421204 0.352585 0.252014
H108  H     H_    0.004019 0.404789 0.741364 0.252400
H109  H     H_    0.979570 0.418587 0.695236 0.240541
H110  H     H_    0.495723 0.618903 0.403486 0.170002
H111  H     H_    0.030415 0.421140 0.647624 0.251927
H112  H     H_    0.495635 0.904808 0.258951 0.252386
H113  H     H_    0.520114 0.918542 0.305073 0.240469
H114  H     H_    0.469281 0.921223 0.352632 0.252041
H115  H     H_    0.504332 0.904809 0.741037 0.252395
H116  H     H_    0.479856 0.918528 0.694918 0.240470
H117  H     H_    0.530691 0.921253 0.647358 0.252040
H118  H     H_    0.080336 0.447447 0.164479 0.246689
H119  H     H_    0.053368 0.433804 0.123508 0.253131
H120  H     H_    0.081632 0.476043 0.093176 0.239692
N1    N     N_1   0.710749 0.409468 0.354063 -0.198520
N2    N     N_1   0.497039 0.291606 0.338750 -0.197005
N3    N     N_1   0.003171 0.791626 0.661037 -0.197039
N4    N     N_1   0.997190 0.791608 0.338596 -0.196974
N5    N     N_1   0.950373 0.596526 0.690127 -0.215234
N6    N     N_1   0.049671 0.596492 0.309812 -0.215186
N7    N     N_1   0.450411 0.096495 0.690134 -0.215139
N8    N     N_1   0.549653 0.096513 0.309828 -0.215171
N9    N     N_1   0.492682 0.708037 0.343623 -0.196794
N10   N     N_1   0.507137 0.708051 0.656593 -0.196792
N11   N     N_1   0.992845 0.208041 0.343444 -0.196786
N12   N     N_1   0.289091 0.409619 0.645818 -0.198468
N13   N     N_1   0.006975 0.208050 0.656780 -0.196861
N14   N     N_1   0.007754 0.605309 0.185019 -0.185505
N15   N     N_1   0.992567 0.605320 0.814662 -0.185535
N16   N     N_1   0.507829 0.105304 0.184949 -0.185515
N17   N     N_1   0.492207 0.105294 0.815037 -0.185489
N18   N     N_1   0.917500 0.400750 0.493076 -0.206687
N19   N     N_1   0.082418 0.400785 0.507104 -0.206608
N20   N     N_1   0.417474 0.900752 0.493158 -0.206605
N21   N     N_1   0.582482 0.900771 0.506884 -0.206679
N22   N     N_1   0.599635 0.588943 0.333865 -0.195828
N23   N     N_1   0.210535 0.908986 0.354740 -0.200581
N24   N     N_1   0.400514 0.588914 0.666169 -0.195786
N25   N     N_1   0.100382 0.088185 0.330169 -0.195611
N26   N     N_1   0.900522 0.088931 0.666107 -0.195763
N27   N     N_1   0.789084 0.909604 0.645926 -0.198488
N28   N     N_1   0.904304 0.551789 0.958224 -0.201729
N29   N     N_1   0.095739 0.551657 0.041892 -0.201863
N30   N     N_1   0.404403 0.051579 0.957855 -0.201650
N31   N     N_1   0.595724 0.051641 0.041938 -0.201904
N32   N     N_1   0.503078 0.291624 0.661128 -0.197013
O1    O     O_R   0.944560 0.468710 0.055440 -0.619404
O2    O     O_R   0.444560 0.499880 0.607950 -0.609927
O3    O     O_R   0.055440 0.999880 0.392050 -0.610693
O4    O     O_R   0.944560 0.999880 0.607950 -0.610068
O5    O     O_R   0.500000 0.444470 0.552540 -0.624411
O6    O     O_R   0.500000 0.444470 0.447460 -0.624387
O7    O     O_R   0.000000 0.944470 0.552540 -0.622031
O8    O     O_R   0.000000 0.944470 0.447460 -0.625983
O9    O     O_R   0.944560 0.531300 0.055450 -0.609489
O10   O     O_R   0.055440 0.531300 0.944550 -0.609506
O11   O     O_R   0.444560 0.031300 0.055450 -0.609443
O12   O     O_R   0.055440 0.468710 0.944560 -0.619403
O13   O     O_R   0.555440 0.031300 0.944550 -0.609524
O14   O     O_R   0.000010 0.468710 0.093020 -0.623354
O15   O     O_R   0.999990 0.468710 0.906980 -0.623366
O16   O     O_R   0.500010 0.968710 0.093020 -0.623408
O17   O     O_R   0.499990 0.968710 0.906980 -0.623346
O18   O     O_R   0.000010 0.531300 0.093030 -0.616761
O19   O     O_R   0.999990 0.531300 0.906970 -0.616740
O20   O     O_R   0.500010 0.031300 0.093030 -0.616808
O21   O     O_R   0.499990 0.031300 0.906970 -0.616745
O22   O     O_R   0.031280 0.555400 0.468730 -0.614322
O23   O     O_R   0.444560 0.968710 0.055440 -0.619396
O24   O     O_R   0.968720 0.555400 0.531270 -0.614313
O25   O     O_R   0.531280 0.055400 0.468730 -0.614345
O26   O     O_R   0.468720 0.055400 0.531270 -0.614302
O27   O     O_R   0.031290 0.499960 0.375690 -0.624687
O28   O     O_R   0.968710 0.499960 0.624310 -0.624683
O29   O     O_R   0.531290 0.999960 0.375690 -0.624695
O30   O     O_R   0.468710 0.999960 0.624310 -0.624700
O31   O     O_R   0.968700 0.499940 0.438280 -0.620656
O32   O     O_R   0.031300 0.499940 0.561720 -0.620663
O33   O     O_R   0.468700 0.999940 0.438280 -0.620633
O34   O     O_R   0.555440 0.968710 0.944560 -0.619402
O35   O     O_R   0.531300 0.999940 0.561720 -0.620653
O36   O     O_R   0.031310 0.444530 0.468680 -0.610610
O37   O     O_R   0.968690 0.444530 0.531320 -0.610643
O38   O     O_R   0.531310 0.944530 0.468680 -0.610615
O39   O     O_R   0.468690 0.944530 0.531320 -0.610630
O40   O     O_R   0.500010 0.555340 0.552490 -0.620796
O41   O     O_R   0.499990 0.555340 0.447510 -0.620809
O42   O     O_R   0.000010 0.055340 0.552490 -0.620852
O43   O     O_R   0.999990 0.055340 0.447510 -0.620726
O44   O     O_R   0.555450 0.499900 0.497080 -0.612723
O45   O     O_R   0.444550 0.499900 0.502920 -0.612711
O46   O     O_R   0.055450 0.999900 0.497080 -0.616971
O47   O     O_R   0.944550 0.999900 0.502920 -0.612540
O48   O     O_R   0.555440 0.499880 0.392050 -0.609919
Zn1   Zn    Zn3+2 0.000000 0.458210 0.000000 0.953917
Zn2   Zn    Zn3+2 0.499990 0.499910 0.429870 0.978902
Zn3   Zn    Zn3+2 0.000010 0.999910 0.570130 0.974828
Zn4   Zn    Zn3+2 0.999990 0.999910 0.429870 0.978356
Zn5   Zn    Zn3+2 0.500000 0.958210 0.000000 0.953989
Zn6   Zn    Zn3+2 0.000000 0.541790 0.000000 1.009376
Zn7   Zn    Zn3+2 0.500000 0.041790 0.000000 1.009335
Zn8   Zn    Zn3+2 0.041800 0.499960 0.458210 0.987684
Zn9   Zn    Zn3+2 0.958200 0.499960 0.541790 0.987657
Zn10  Zn    Zn3+2 0.541800 0.999960 0.458210 0.987640
Zn11  Zn    Zn3+2 0.458200 0.999960 0.541790 0.987711
Zn12  Zn    Zn3+2 0.500010 0.499910 0.570130 0.978911

loop_
_geom_bond_atom_site_label_1
_geom_bond_atom_site_label_2
_ccdc_geom_bond_type
C88   N29   T    
C84   H42   S    
C134  H113  S    
C65   H30   S    
C205  O30   A    
C164  C195  S    
C185  C190  A    
C21   C76   S    
C220  O8    A    
C178  C215  S    
O35   Zn10  S    
C4    C232  S    
C96   C191  S    
C56   C63   S    
C105  H80   S    
C5    C6    T    
C65   C178  S    
C177  C182  A    
C167  C185  S    
C66   C189  S    
C29   C33   A    
C8    C23   A    
C133  H108  S    
C97   C192  S    
C101  C213  S    
C56   C72   S    
C70   C74   S    
C99   H75   S    
C97   H71   S    
C151  C155  A    
C98   H72   S    
C80   N12   T    
C176  O17   A    
C107  H85   S    
C141  N22   T    
C167  O34   A    
C125  H97   S    
C138  H3    S    
C61   H26   S    
C139  H7    S    
O39   Zn11  S    
C224  C228  A    
C190  C194  A    
C19   C74   S    
C74   C137  S    
C148  H20   S    
C50   C53   A    
C117  N11   T    
C27   C31   A    
C28   C32   A    
C62   C66   S    
C67   C200  S    
C145  H15   S    
C64   H29   S    
C92   H53   S    
O9    Zn6   S    
C58   C205  S    
C109  N5    T    
C125  H96   S    
C24   H38   S    
C205  O35   A    
C174  O15   A    
C136  H116  S    
C189  C216  S    
C94   H60   S    
C87   C177  S    
C137  H119  S    
C74   C178  S    
C55   C203  S    
C144  N26   T    
O12   Zn1   S    
C219  O6    A    
O19   Zn6   S    
C122  N17   T    
C207  O38   A    
O43   Zn4   S    
C219  C230  S    
C66   H31   S    
C21   H44   S    
C20   C216  S    
O41   Zn2   S    
C223  C232  A    
C88   C179  S    
C211  C218  S    
C152  C157  A    
O24   Zn9   S    
C75   C138  S    
C22   C58   S    
C93   H56   S    
C206  O36   A    
C54   C61   S    
C64   C218  S    
C128  N18   T    
O8    Zn4   S    
O26   Zn11  S    
C95   H64   S    
C63   C217  S    
C149  H22   S    
O7    Zn3   S    
C49   C129  S    
C100  C221  S    
C2    C157  A    
C83   C169  S    
C17   C199  S    
C18   C201  S    
C19   C215  S    
C89   N30   T    
C83   H40   S    
C174  C189  S    
C103  N3    T    
C61   C65   S    
C48   C52   A    
C229  C231  A    
O21   Zn7   S    
C73   C77   S    
C135  C152  A    
C203  O28   A    
O32   Zn8   S    
C228  C231  A    
C161  C165  T    
C136  H117  S    
C180  C184  A    
C201  O26   A    
C79   C210  S    
C38   C40   S    
C55   C62   S    
C147  H18   S    
C77   C140  S    
C8    C105  S    
C33   C36   A    
C169  C195  A    
C85   C171  S    
C93   H58   S    
C86   C172  S    
C32   C36   A    
C94   H61   S    
C94   C188  S    
C84   C170  S    
O2    Zn12  S    
O14   Zn1   S    
C13   C57   A    
C11   C25   A    
C44   C59   A    
C173  O18   A    
C133  H111  S    
C82   N27   T    
C81   C153  S    
C67   C72   S    
C153  C158  A    
C129  N19   T    
C172  C181  A    
C2    H36   S    
C29   C38   A    
C85   H47   S    
C172  C198  A    
C199  O24   A    
O5    Zn12  S    
C43   C59   A    
C96   H65   S    
C21   C217  S    
C98   H73   S    
C14   C17   A    
C113  C214  S    
C4    C7    T    
C169  C177  A    
C78   C151  S    
C58   C64   S    
C44   C125  S    
C227  H77   S    
C30   C34   A    
C226  H66   S    
C95   H62   S    
C134  H112  S    
O29   Zn10  S    
O27   Zn8   S    
C9    C23   A    
C131  N21   T    
C226  C230  A    
O37   Zn9   S    
C132  H105  S    
C20   C75   S    
C51   C53   A    
C96   H67   S    
C119  N14   T    
O36   Zn8   S    
C13   H37   S    
C45   C126  S    
C8    C12   A    
C70   C132  S    
C86   H50   S    
C31   C34   A    
C64   C69   S    
C149  H25   S    
C187  C192  A    
C175  O16   A    
C69   C211  S    
C19   C54   S    
C124  C151  A    
C202  O27   A    
C26   C30   A    
C1    O1    A    
C209  O43   A    
C120  N15   T    
C43   C123  S    
O11   Zn7   S    
C10   C25   A    
C76   C139  S    
C14   C110  S    
C127  H103  S    
C220  C231  S    
C207  O39   A    
C108  H89   S    
C134  H114  S    
C121  C217  S    
C113  C150  A    
C208  O40   A    
C16   C114  S    
C147  H16   S    
C47   C127  S    
C30   H110  S    
C57   C101  A    
C29   C118  S    
C68   C113  A    
C123  H94   S    
C135  C147  S    
C170  C179  A    
C163  C168  T    
C154  C159  A    
C92   H52   S    
C105  H79   S    
C170  C196  A    
C90   C135  A    
C194  C198  A    
C173  C178  S    
O44   Zn12  S    
C221  C232  A    
C35   C79   A    
C68   C144  S    
C191  C195  A    
C199  O22   A    
C22   H55   S    
O4    Zn3   S    
C11   C108  S    
C99   H78   S    
C45   C50   A    
C61   C215  S    
C83   H41   S    
C62   H27   S    
C57   C143  S    
C139  H6    S    
C15   C18   A    
C121  N16   T    
C138  H4    S    
O30   Zn11  S    
C156  C184  S    
C24   C159  A    
C104  C225  S    
C46   C142  S    
O28   Zn9   S    
C132  H107  S    
C168  C198  S    
C160  C164  T    
C75   C189  S    
C107  H87   S    
O17   Zn5   S    
C125  H95   S    
C138  H5    S    
C140  H9    S    
C182  C186  A    
C89   C180  S    
C186  C191  A    
C26   C115  S    
C95   C190  S    
C162  C166  T    
C137  H118  S    
C12   C17   A    
C69   C73   S    
C112  C183  S    
C219  O5    A    
C36   C209  S    
C126  H100  S    
O48   Zn2   S    
C139  H8    S    
C126  H98   S    
C108  H91   S    
C200  C217  S    
C228  H88   S    
C94   H59   S    
C31   H2    S    
C210  O48   A    
C102  C223  S    
C39   C42   T    
C146  C148  S    
C114  N8    T    
C173  O14   A    
C123  H92   S    
C220  O7    A    
C212  O45   A    
O34   Zn5   S    
C92   H54   S    
C229  H99   S    
C92   C186  S    
C105  H81   S    
C69   H34   S    
C175  O20   A    
C206  O37   A    
O22   Zn8   S    
C110  N6    T    
C34   C208  S    
C221  C226  A    
C225  C229  A    
C145  H12   S    
C95   H63   S    
C203  O32   A    
C9    C14   A    
C183  C187  A    
C103  C224  S    
C48   C128  S    
C11   C16   A    
C72   C134  S    
C66   C71   S    
C192  C196  A    
C73   C136  S    
C115  N9    T    
C49   C52   A    
C99   H76   S    
C213  O3    A    
C83   H39   S    
C214  O4    A    
C91   N31   T    
C56   C204  S    
C145  H14   S    
C107  H86   S    
C212  O2    A    
C91   C181  S    
C87   N28   T    
C35   C222  A    
C149  H23   S    
C165  C196  S    
C157  C161  S    
C111  N7    T    
C79   C124  A    
C201  O25   A    
O16   Zn5   S    
C147  H17   S    
C148  H19   S    
C51   C131  S    
O38   Zn10  S    
C33   H24   S    
C22   C77   S    
C3    C5    S    
C21   C56   S    
C47   C51   A    
C1    C182  S    
C26   C37   A    
O47   Zn4   S    
C46   C90   A    
C32   H13   S    
C7    C25   S    
C176  C211  S    
C93   H57   S    
O42   Zn3   S    
C10   C15   A    
C140  H11   S    
O31   Zn9   S    
C166  C197  S    
C37   C39   S    
C136  H115  S    
C149  C150  S    
C90   C212  S    
C222  H35   S    
C137  H120  S    
C146  C153  A    
C202  O31   A    
C118  N13   T    
C142  N24   T    
O15   Zn1   S    
O10   Zn6   S    
C24   C68   A    
C112  O10   A    
C102  N2    T    
C98   C193  S    
O33   Zn11  S    
C188  C193  A    
C84   H43   S    
C85   H46   S    
C167  O13   A    
C44   C49   A    
C45   C60   A    
C119  C215  S    
O40   Zn12  S    
C98   H74   S    
C72   C76   S    
C78   N1    T    
C67   H32   S    
C106  H84   S    
C176  O21   A    
C2    C46   A    
C99   C194  S    
C204  O33   A    
C156  O11   A    
C208  O41   A    
C52   C206  S    
O1    Zn1   S    
C28   C117  S    
C204  O29   A    
O25   Zn10  S    
C106  H83   S    
C1    O9    A    
C96   H68   S    
C50   C130  S    
C47   C60   A    
C100  N32   T    
C86   H49   S    
C54   C70   S    
C86   H51   S    
C55   C71   S    
C43   C48   A    
C81   N23   T    
C174  O19   A    
C27   C116  S    
C213  O46   A    
C22   C218  S    
C133  H109  S    
C148  H21   S    
C209  O42   A    
C10   C107  S    
C20   C55   S    
C19   H1    S    
C12   C109  S    
O23   Zn5   S    
C179  C183  A    
C63   C67   S    
C101  C146  A    
O18   Zn6   S    
C126  H101  S    
C108  H90   S    
C15   C111  S    
C41   C59   S    
C76   C200  S    
C42   C60   S    
C181  C185  A    
C9    C106  S    
C54   C202  S    
C130  N20   T    
C123  H93   S    
C3    C224  A    
C184  C188  A    
O13   Zn7   S    
C158  C162  S    
C112  O12   A    
C28   C38   A    
C127  H104  S    
C84   H45   S    
C85   H48   S    
C210  O44   A    
O6    Zn2   S    
C35   C141  S    
C93   C187  S    
C40   C41   T    
C104  N4    T    
C159  C163  S    
C171  C180  A    
C97   H69   S    
C13   C158  A    
C106  H82   S    
C156  O23   A    
C116  N10   T    
C80   C152  S    
C3    C225  A    
C122  C218  S    
C155  C160  S    
C62   C216  S    
C20   H33   S    
C71   C133  S    
O3    Zn4   S    
C97   H70   S    
C120  C216  S    
C124  C145  S    
C132  H106  S    
C171  C197  A    
C63   H28   S    
C71   C75   S    
O45   Zn2   S    
C27   C37   A    
O20   Zn7   S    
C193  C197  A    
C6    C23   S    
O46   Zn3   S    
C53   C207  S    
C127  H102  S    
C140  H10   S    
C175  C200  S    
C77   C211  S    
C82   C154  S    
C227  C230  A    
C16   C18   A    
C214  O47   A    
C150  C154  A    
C155  C222  A    
C143  N25   T    
C65   C70   S    
C58   C73   S    
C223  C227  A    
