data_mof_unit_51531.cif
_audit_creation_date              2012-12-10T19:58:03-0500
_audit_creation_method            fapswitch 2.2
_symmetry_space_group_name_H-M    P1
_symmetry_Int_Tables_number       1
_space_group_crystal_system       triclinic
_cell_length_a                    21.196124
_cell_length_b                    21.030156
_cell_length_c                    14.210404
_cell_angle_alpha                 90.007742
_cell_angle_beta                  89.880075
_cell_angle_gamma                 89.991462
_cell_volume                      6334.38433942

loop_
_atom_site_label
_atom_site_type_symbol
_atom_type_description
_atom_site_fract_x
_atom_site_fract_y
_atom_site_fract_z
_atom_type_partial_charge
C1    C     C_R   0.086850 0.414547 0.499844 0.966325
C2    C     C_R   0.184158 0.724756 0.429807 0.290491
C3    C     C_3   0.205635 0.100507 0.709402 -0.839405
C4    C     C_3   0.173801 0.828224 0.609011 0.136422
C5    C     C_3   0.140288 0.860716 0.691214 -0.337882
C6    C     C_3   0.074667 0.883622 0.662904 -1.007211
C7    C     C_3   0.661771 0.294907 0.290767 0.160974
C8    C     C_3   0.618692 0.341063 0.237963 -0.344664
C9    C     C_3   0.625296 0.409225 0.274068 -0.827881
C10   C     C_3   0.825098 0.175156 0.598480 0.135293
C11   C     C_3   0.861493 0.142987 0.677977 -0.332083
C12   C     C_3   0.925626 0.119096 0.644003 -1.009535
C13   C     C_R   0.238523 0.665565 0.555530 0.397700
C14   C     C_3   0.324175 0.722865 0.277327 0.144293
C15   C     C_3   0.367315 0.682331 0.215318 -0.322712
C16   C     C_3   0.351158 0.690020 0.111339 -0.980935
C17   C     C_3   0.825186 0.828209 0.397456 0.150521
C18   C     C_3   0.860671 0.861621 0.317940 -0.342044
C19   C     C_3   0.925088 0.885310 0.350739 -1.004711
C20   C     C_3   0.342720 0.303067 0.693700 0.138351
C21   C     C_3   0.385803 0.353336 0.737555 -0.336693
C22   C     C_3   0.375726 0.419072 0.694296 -0.830321
C23   C     C_3   0.174137 0.168641 0.395090 0.152880
C24   C     C_R   0.808026 0.282124 0.423965 0.286216
C25   C     C_3   0.140077 0.133867 0.315686 -0.340190
C26   C     C_3   0.075334 0.110275 0.347483 -1.005769
C27   C     C_3   0.652231 0.695102 0.693119 0.140042
C28   C     C_3   0.608089 0.645529 0.736529 -0.336072
C29   C     C_3   0.618216 0.579505 0.694340 -0.838076
C30   C     C_3   0.785378 0.475558 0.622748 -0.266160
C31   C     C_3   0.034572 0.718091 0.418440 -0.235532
C32   C     C_3   0.213269 0.524245 0.612074 -0.266765
C33   C     C_3   0.958623 0.282039 0.409986 -0.231097
C34   C     C_3   0.219257 0.475687 0.375466 -0.260966
C35   C     C_R   0.239580 0.337469 0.435453 0.398450
C36   C     C_3   0.944485 0.738773 0.613105 -0.209052
C37   C     C_3   0.786227 0.521021 0.381975 -0.267787
C38   C     C_3   0.051652 0.262023 0.605897 -0.206260
C39   C     C_3   0.288194 0.956895 0.623413 -0.288444
C40   C     C_3   0.524193 0.222411 0.382638 -0.202775
C41   C     C_3   0.714103 0.044754 0.614259 -0.291918
C42   C     C_3   0.469290 0.779558 0.378819 -0.197280
C43   C     C_3   0.715663 0.960493 0.400700 -0.288055
C44   C     C_3   0.475816 0.224803 0.608524 -0.211414
C45   C     C_3   0.284198 0.036878 0.402718 -0.288180
C46   C     C_R   0.807904 0.720395 0.567950 0.269723
C47   C     C_3   0.520646 0.773855 0.604200 -0.208668
C48   C     C_3   0.070709 0.352791 0.225632 -0.235293
C49   C     C_3   0.070115 0.647077 0.773055 -0.233553
C50   C     C_3   0.928059 0.646317 0.225915 -0.231067
C51   C     C_3   0.930457 0.352333 0.774258 -0.228580
C52   C     C_3   0.576645 0.854894 0.221414 -0.246593
C53   C     C_3   0.571035 0.148424 0.779551 -0.228514
C54   C     C_3   0.422524 0.144420 0.221830 -0.241467
C55   C     C_3   0.430207 0.850550 0.780982 -0.217725
C56   C     C_R   0.759303 0.660801 0.437517 0.401201
C57   C     C_R   0.189612 0.277737 0.565043 0.271954
C58   C     C_R   0.277244 0.811846 0.566167 0.398082
C59   C     C_R   0.663288 0.239547 0.431222 0.303767
C60   C     C_R   0.720598 0.191760 0.563424 0.394436
C61   C     C_R   0.913044 0.585414 0.500052 0.961977
C62   C     C_R   0.328759 0.766558 0.426411 0.299406
C63   C     C_R   0.720922 0.809586 0.433338 0.402705
C64   C     C_R   0.336804 0.240894 0.559021 0.280085
C65   C     C_R   0.277893 0.188045 0.432385 0.402665
C66   C     C_R   0.660091 0.757301 0.558783 0.283632
C67   C     C_R   0.811515 0.377611 0.564311 0.346176
C68   C     C_R   0.135013 0.680829 0.432637 0.352131
C69   C     C_R   0.187837 0.624064 0.561854 0.340433
C70   C     C_R   0.859775 0.322941 0.429092 0.348519
C71   C     C_R   0.188174 0.378527 0.433540 0.340967
C72   C     C_R   0.913065 0.414693 0.500073 0.952098
C73   C     C_R   0.858873 0.678153 0.567439 0.353998
C74   C     C_R   0.811219 0.620581 0.434735 0.340229
C75   C     C_R   0.139514 0.320788 0.565465 0.355997
C76   C     C_R   0.321611 0.860209 0.568782 0.345699
C77   C     C_R   0.621929 0.187955 0.430853 0.343067
C78   C     C_R   0.677710 0.142012 0.566299 0.343370
C79   C     C_R   0.372605 0.815841 0.427652 0.341492
C80   C     C_R   0.679352 0.860450 0.434154 0.337511
C81   C     C_R   0.377763 0.188943 0.563385 0.344009
C82   C     C_R   0.319722 0.137452 0.434292 0.338681
C83   C     C_R   0.086816 0.585242 0.499914 0.958257
C84   C     C_R   0.619545 0.809660 0.562287 0.345517
C85   C     C_R   0.861142 0.370546 0.498944 -0.430008
C86   C     C_R   0.137160 0.630817 0.498639 -0.426986
C87   C     C_R   0.139176 0.370804 0.499866 -0.421748
C88   C     C_R   0.860177 0.628643 0.500787 -0.424053
C89   C     C_R   0.368386 0.862993 0.498310 -0.426353
C90   C     C_R   0.629752 0.138949 0.498020 -0.419055
C91   C     C_R   0.629916 0.861354 0.500586 -0.409873
C92   C     C_R   0.368772 0.137338 0.501090 -0.412182
C93   C     C_R   0.011792 0.444088 0.105496 -0.408308
C94   C     C_R   0.585546 0.913223 0.500109 0.953408
C95   C     C_R   0.011280 0.555927 0.894441 -0.406273
C96   C     C_R   0.988230 0.555771 0.105485 -0.408500
C97   C     C_R   0.988861 0.443981 0.894457 -0.407516
C98   C     C_R   0.514406 0.944833 0.105056 -0.408641
C99   C     C_R   0.512650 0.055540 0.894804 -0.411976
C100  C     C_R   0.485706 0.055079 0.105077 -0.409723
C101  C     C_R   0.487540 0.944382 0.894849 -0.414102
C102  C     C_R   0.759031 0.289639 0.489895 -0.133764
C103  C     C_R   0.235257 0.716145 0.491213 -0.129381
C104  C     C_R   0.239300 0.287236 0.500701 -0.129931
C105  C     C_R   0.414143 0.086437 0.500275 0.951916
C106  C     C_R   0.758597 0.710621 0.503286 -0.133679
C107  C     C_R   0.281587 0.765551 0.495286 -0.108926
C108  C     C_R   0.712903 0.239832 0.495870 -0.106190
C109  C     C_R   0.711292 0.759173 0.496391 -0.095921
C110  C     C_R   0.286600 0.238691 0.495189 -0.102365
C111  C     C_R   0.011964 0.444702 0.205313 0.605954
C112  C     C_R   0.011411 0.555377 0.794663 0.602124
C113  C     C_R   0.987930 0.555221 0.205267 0.602953
C114  C     C_R   0.988610 0.444587 0.794654 0.602519
C115  C     C_R   0.514913 0.945419 0.204962 0.612468
C116  C     C_R   0.414351 0.913352 0.499811 0.945965
C117  C     C_R   0.513225 0.055025 0.794875 0.606188
C118  C     C_R   0.485065 0.054533 0.204956 0.609965
C119  C     C_R   0.486842 0.944924 0.794882 0.605149
C120  C     C_R   0.000068 0.499929 0.053518 0.098187
C121  C     C_R   0.000090 0.499939 0.946420 0.098125
C122  C     C_R   0.500096 0.999954 0.053353 0.095497
C123  C     C_R   0.500113 0.999953 0.946514 0.100359
C124  C     C_3   0.655064 0.361325 0.589786 0.120230
C125  C     C_3   0.617511 0.397138 0.664736 -0.353654
C126  C     C_3   0.553655 0.418874 0.626791 -1.002682
C127  C     C_R   0.585411 0.086960 0.499675 0.949156
C128  C     C_3   0.171292 0.781481 0.289626 0.173756
C129  C     C_3   0.118105 0.824906 0.255220 -0.316320
C130  C     C_3   0.127472 0.893804 0.286558 -0.832427
C131  C     C_3   0.343028 0.640487 0.578448 0.118731
C132  C     C_3   0.382567 0.604222 0.650447 -0.348919
C133  C     C_3   0.444333 0.580553 0.607331 -1.003033
C134  C     C_3   0.814876 0.236629 0.274328 0.150205
C135  C     C_3   0.866192 0.194394 0.231450 -0.291774
C136  C     C_3   0.871854 0.204751 0.125483 -0.981773
C137  C     C_3   0.343367 0.359642 0.398413 0.126426
C138  C     C_R   0.759245 0.337965 0.558249 0.396221
C139  C     C_3   0.378861 0.397118 0.322958 -0.357660
C140  C     C_3   0.444959 0.415260 0.356228 -0.989355
C141  C     C_3   0.800161 0.776347 0.707204 0.121553
C142  C     C_3   0.819582 0.838527 0.754959 -0.341116
C143  C     C_3   0.783481 0.895458 0.715498 -0.831214
C144  C     C_3   0.656569 0.634692 0.401564 0.126974
C145  C     C_3   0.623456 0.594948 0.326450 -0.354886
C146  C     C_3   0.559740 0.570628 0.361656 -0.996844
C147  C     C_3   0.196660 0.220538 0.703123 0.124304
C148  C     C_3   0.173885 0.159473 0.750863 -0.333139
H1    H     H_    0.021202 0.399982 0.069451 0.159106
H2    H     H_    0.660694 0.392963 0.527144 0.133380
H3    H     H_    0.351435 0.257338 0.731019 0.131474
H4    H     H_    0.293094 0.318237 0.705109 0.108051
H5    H     H_    0.376013 0.355992 0.814322 0.165407
H6    H     H_    0.435901 0.339222 0.728109 0.215466
H7    H     H_    0.389814 0.419123 0.618985 0.277620
H8    H     H_    0.405206 0.454421 0.732044 0.237020
H9    H     H_    0.325491 0.433499 0.700477 0.234513
H10   H     H_    0.144874 0.210100 0.415974 0.142182
H11   H     H_    0.178022 0.135738 0.456469 0.138614
H12   H     H_    0.134073 0.166594 0.254921 0.225870
H13   H     H_    0.609698 0.365554 0.726396 0.227649
H14   H     H_    0.168919 0.092601 0.292428 0.235625
H15   H     H_    0.080315 0.076252 0.406811 0.269357
H16   H     H_    0.051631 0.085636 0.288177 0.270923
H17   H     H_    0.045407 0.150879 0.370176 0.255339
H18   H     H_    0.643955 0.740992 0.730342 0.130513
H19   H     H_    0.701459 0.678953 0.705003 0.109031
H20   H     H_    0.616849 0.643222 0.813541 0.165133
H21   H     H_    0.558240 0.659939 0.725777 0.216561
H22   H     H_    0.604933 0.579075 0.618791 0.278902
H23   H     H_    0.588101 0.544682 0.732160 0.239418
H24   H     H_    0.644825 0.439243 0.688391 0.229307
H25   H     H_    0.668282 0.564770 0.701610 0.233598
H26   H     H_    0.740323 0.469527 0.583683 0.123427
H27   H     H_    0.816934 0.508344 0.584090 0.147809
H28   H     H_    0.773830 0.498400 0.690980 0.181927
H29   H     H_    0.010145 0.684106 0.465553 0.159588
H30   H     H_    0.999646 0.733890 0.365460 0.171606
H31   H     H_    0.050206 0.761077 0.457942 0.134377
H32   H     H_    0.260384 0.530588 0.578882 0.130144
H33   H     H_    0.181846 0.496802 0.565179 0.140483
H34   H     H_    0.220035 0.495650 0.676827 0.182572
H35   H     H_    0.560293 0.452657 0.567489 0.270697
H36   H     H_    0.985953 0.314561 0.455654 0.158924
H37   H     H_    0.991415 0.264456 0.354975 0.174134
H38   H     H_    0.941737 0.239844 0.450279 0.122670
H39   H     H_    0.259212 0.468738 0.425203 0.110334
H40   H     H_    0.188650 0.514636 0.401440 0.154652
H41   H     H_    0.239540 0.491370 0.307314 0.183505
H42   H     H_    0.937093 0.759968 0.542050 0.113499
H43   H     H_    0.994980 0.725817 0.619514 0.161341
H44   H     H_    0.935128 0.775327 0.667305 0.179466
H45   H     H_    0.741142 0.527493 0.421058 0.120050
H46   H     H_    0.526826 0.443185 0.683481 0.270135
H47   H     H_    0.818167 0.489857 0.422415 0.147134
H48   H     H_    0.775026 0.496141 0.315261 0.180195
H49   H     H_    0.059034 0.242853 0.533512 0.108272
H50   H     H_    0.001605 0.276711 0.612357 0.161923
H51   H     H_    0.059204 0.223347 0.657396 0.181651
H52   H     H_    0.247795 0.949243 0.574671 0.118678
H53   H     H_    0.320763 0.993069 0.594140 0.163834
H54   H     H_    0.268688 0.976488 0.689733 0.186682
H55   H     H_    0.487033 0.193127 0.416189 0.162067
H56   H     H_    0.504442 0.241077 0.315985 0.172001
H57   H     H_    0.525702 0.377423 0.602136 0.269401
H58   H     H_    0.535163 0.264241 0.427778 0.132692
H59   H     H_    0.750508 0.053050 0.558910 0.116336
H60   H     H_    0.680687 0.007391 0.591148 0.166209
H61   H     H_    0.738895 0.026354 0.677140 0.185664
H62   H     H_    0.505939 0.807793 0.415301 0.162019
H63   H     H_    0.490459 0.762340 0.312169 0.174265
H64   H     H_    0.456731 0.736662 0.420947 0.123419
H65   H     H_    0.750404 0.949849 0.457325 0.110650
H66   H     H_    0.680172 0.995085 0.426320 0.160901
H67   H     H_    0.741891 0.983742 0.342522 0.183505
H68   H     H_    0.163729 0.732844 0.260632 0.120108
H69   H     H_    0.464923 0.264737 0.559782 0.137241
H70   H     H_    0.513281 0.194507 0.577837 0.162073
H71   H     H_    0.495122 0.246078 0.673744 0.168368
H72   H     H_    0.248847 0.047853 0.458583 0.112131
H73   H     H_    0.319776 0.002998 0.429790 0.159461
H74   H     H_    0.258736 0.012603 0.344840 0.182187
H75   H     H_    0.531651 0.735643 0.552420 0.133005
H76   H     H_    0.482606 0.804499 0.576262 0.160244
H77   H     H_    0.501881 0.750494 0.668284 0.166080
H78   H     H_    0.111580 0.382545 0.203242 0.185054
H79   H     H_    0.216130 0.799721 0.259693 0.101789
H80   H     H_    0.055750 0.320616 0.167880 0.135463
H81   H     H_    0.087169 0.322388 0.284490 0.187467
H82   H     H_    0.111232 0.617054 0.793367 0.185292
H83   H     H_    0.056105 0.678846 0.831907 0.132650
H84   H     H_    0.085781 0.677902 0.714104 0.187735
H85   H     H_    0.887635 0.615930 0.203802 0.184754
H86   H     H_    0.942432 0.678731 0.168051 0.131278
H87   H     H_    0.911125 0.676416 0.284917 0.188408
H88   H     H_    0.889362 0.381873 0.796406 0.183809
H89   H     H_    0.945514 0.320365 0.832195 0.133752
H90   H     H_    0.116554 0.823306 0.177083 0.160901
H91   H     H_    0.914275 0.321707 0.715482 0.188836
H92   H     H_    0.616527 0.885464 0.197551 0.186413
H93   H     H_    0.560685 0.822916 0.164028 0.132361
H94   H     H_    0.594809 0.824037 0.278541 0.193343
H95   H     H_    0.611576 0.119983 0.806303 0.181345
H96   H     H_    0.552183 0.180320 0.835179 0.128244
H97   H     H_    0.589432 0.179291 0.722510 0.193879
H98   H     H_    0.382969 0.113353 0.198384 0.185317
H99   H     H_    0.437962 0.176566 0.164250 0.129972
H100  H     H_    0.404043 0.175052 0.279112 0.191670
H101  H     H_    0.072077 0.807532 0.282066 0.231300
H102  H     H_    0.389666 0.878137 0.809870 0.178413
H103  H     H_    0.450552 0.818674 0.835325 0.128494
H104  H     H_    0.411320 0.819725 0.724359 0.194884
H105  H     H_    0.020293 0.600118 0.930423 0.158793
H106  H     H_    0.125994 0.897366 0.364532 0.275537
H107  H     H_    0.089095 0.923811 0.257387 0.234192
H108  H     H_    0.173429 0.912265 0.260622 0.242057
H109  H     H_    0.370848 0.682390 0.555420 0.154511
H110  H     H_    0.334694 0.608787 0.516580 0.129290
H111  H     H_    0.393439 0.635980 0.710825 0.226159
H112  H     H_    0.355232 0.562921 0.677191 0.231693
H113  H     H_    0.434683 0.547226 0.548424 0.271444
H114  H     H_    0.472098 0.555065 0.661660 0.273609
H115  H     H_    0.472790 0.621181 0.580858 0.268904
H116  H     H_    0.978740 0.599849 0.069479 0.158901
H117  H     H_    0.823131 0.287190 0.254002 0.154700
H118  H     H_    0.769268 0.221813 0.243107 0.107448
H119  H     H_    0.912335 0.204856 0.264573 0.242398
H120  H     H_    0.854680 0.143665 0.245238 0.208305
H121  H     H_    0.826442 0.193588 0.090272 0.262701
H122  H     H_    0.908998 0.173031 0.096494 0.263829
H123  H     H_    0.885068 0.254834 0.110262 0.273778
H124  H     H_    0.371603 0.316514 0.414080 0.162854
H125  H     H_    0.339944 0.389833 0.462869 0.140186
H126  H     H_    0.382907 0.367783 0.258135 0.230841
H127  H     H_    0.979877 0.399795 0.930501 0.158869
H128  H     H_    0.352224 0.441061 0.305606 0.220748
H129  H     H_    0.442147 0.446051 0.419649 0.269178
H130  H     H_    0.469754 0.441709 0.299587 0.270396
H131  H     H_    0.472772 0.371976 0.373173 0.265583
H132  H     H_    0.824857 0.736248 0.742651 0.135777
H133  H     H_    0.748886 0.771481 0.717303 0.110266
H134  H     H_    0.809803 0.834788 0.831636 0.169288
H135  H     H_    0.870947 0.846695 0.745765 0.209147
H136  H     H_    0.794210 0.902024 0.639559 0.265244
H137  H     H_    0.797837 0.939099 0.753829 0.228894
H138  H     H_    0.525698 0.901450 0.068226 0.159692
H139  H     H_    0.731838 0.888665 0.724559 0.252457
H140  H     H_    0.625956 0.676188 0.417266 0.166159
H141  H     H_    0.661554 0.604993 0.466303 0.137438
H142  H     H_    0.615978 0.624454 0.262534 0.229449
H143  H     H_    0.653582 0.553753 0.306971 0.229664
H144  H     H_    0.566276 0.538994 0.423496 0.267844
H145  H     H_    0.536262 0.543189 0.304950 0.268948
H146  H     H_    0.528756 0.611072 0.381726 0.266502
H147  H     H_    0.174473 0.261899 0.739312 0.132524
H148  H     H_    0.248265 0.222376 0.712161 0.111117
H149  H     H_    0.522580 0.099208 0.931701 0.158372
H150  H     H_    0.184924 0.162090 0.827195 0.168047
H151  H     H_    0.121981 0.154826 0.743536 0.208976
H152  H     H_    0.193489 0.095119 0.633820 0.267384
H153  H     H_    0.189013 0.057601 0.747619 0.229538
H154  H     H_    0.257716 0.103887 0.716621 0.249002
H155  H     H_    0.145085 0.786493 0.587780 0.143294
H156  H     H_    0.175900 0.862345 0.548812 0.135547
H157  H     H_    0.135813 0.826666 0.750698 0.226868
H158  H     H_    0.168633 0.902074 0.715217 0.229151
H159  H     H_    0.078141 0.919057 0.605144 0.269057
H160  H     H_    0.474409 0.098454 0.068308 0.159360
H161  H     H_    0.051236 0.906358 0.724229 0.270236
H162  H     H_    0.045334 0.842926 0.639194 0.253818
H163  H     H_    0.656475 0.246947 0.258300 0.127370
H164  H     H_    0.711008 0.311496 0.281770 0.109164
H165  H     H_    0.630977 0.339965 0.161907 0.165789
H166  H     H_    0.568815 0.325713 0.245548 0.217225
H167  H     H_    0.609855 0.412548 0.348668 0.281953
H168  H     H_    0.595208 0.441326 0.231356 0.236853
H169  H     H_    0.675039 0.425367 0.268202 0.233491
H170  H     H_    0.852821 0.217010 0.574930 0.137449
H171  H     H_    0.477645 0.900740 0.931871 0.158348
H172  H     H_    0.821197 0.141042 0.538491 0.133286
H173  H     H_    0.868644 0.177506 0.736257 0.224972
H174  H     H_    0.833756 0.102153 0.705428 0.231078
H175  H     H_    0.919464 0.082601 0.588245 0.269953
H176  H     H_    0.951560 0.097378 0.703715 0.270655
H177  H     H_    0.954049 0.159084 0.615580 0.252389
H178  H     H_    0.328245 0.773543 0.254866 0.160827
H179  H     H_    0.275131 0.706322 0.266207 0.114144
H180  H     H_    0.417177 0.696512 0.226440 0.228326
H181  H     H_    0.362294 0.631456 0.235268 0.216941
H182  H     H_    0.627029 0.318917 0.569816 0.160184
H183  H     H_    0.301676 0.675135 0.098130 0.263972
H184  H     H_    0.383075 0.659808 0.068331 0.267269
H185  H     H_    0.357273 0.740338 0.089340 0.268756
H186  H     H_    0.853774 0.786711 0.419889 0.140213
H187  H     H_    0.820860 0.861836 0.457945 0.138724
H188  H     H_    0.867389 0.827959 0.258416 0.224625
H189  H     H_    0.832436 0.902690 0.292576 0.235470
H190  H     H_    0.919403 0.920577 0.408347 0.269125
H191  H     H_    0.950074 0.908464 0.291150 0.271564
H192  H     H_    0.954261 0.845004 0.376250 0.255906
N1    N     N_R   1.000000 0.500000 0.252470 -0.167297
N2    N     N_R   0.000000 0.500000 0.747530 -0.168492
N3    N     N_R   0.500000 0.000000 0.252470 -0.168273
N4    N     N_R   0.500000 0.000000 0.747530 -0.169575
O1    O     O_R   0.065470 0.434530 0.579480 -0.572770
O2    O     O_R   0.434530 0.065470 0.420520 -0.557546
O3    O     O_R   0.434530 0.065470 0.579480 -0.577405
O4    O     O_R   0.565470 0.934530 0.420520 -0.559293
O5    O     O_R   0.434530 0.934530 0.420520 -0.572682
O6    O     O_R   0.565470 0.065470 0.579480 -0.557292
O7    O     O_R   0.565470 0.065470 0.420520 -0.573853
O8    O     O_R   0.434530 0.934530 0.579480 -0.554404
O9    O     O_3   0.713486 0.341565 0.628205 -0.589018
O10   O     O_3   0.175268 0.784203 0.388908 -0.636935
O11   O     O_3   0.286397 0.661251 0.621752 -0.588202
O12   O     O_R   0.934530 0.565470 0.420520 -0.556528
O13   O     O_3   0.811686 0.225815 0.372581 -0.657667
O14   O     O_3   0.283709 0.341085 0.363155 -0.593487
O15   O     O_3   0.814344 0.779550 0.610387 -0.633609
O16   O     O_3   0.715028 0.656688 0.365863 -0.592140
O17   O     O_3   0.181886 0.218446 0.606536 -0.633233
O18   O     O_3   0.233854 0.806908 0.639016 -0.591752
O19   O     O_3   0.646387 0.295890 0.387232 -0.641191
O20   O     O_3   0.766004 0.196119 0.633246 -0.591117
O21   O     O_3   0.339879 0.712580 0.372564 -0.662220
O22   O     O_3   0.766443 0.806205 0.363243 -0.597463
O23   O     O_R   0.934530 0.565470 0.579480 -0.572320
O24   O     O_3   0.354691 0.299246 0.596277 -0.642030
O25   O     O_3   0.233050 0.190908 0.361592 -0.598448
O26   O     O_3   0.641140 0.699125 0.595570 -0.642096
O27   O     O_3   0.817070 0.417911 0.640969 -0.553561
O28   O     O_3   0.084708 0.687670 0.371379 -0.553781
O29   O     O_3   0.184755 0.582326 0.637132 -0.553777
O30   O     O_3   0.909121 0.315342 0.365951 -0.549593
O31   O     O_3   0.182178 0.420981 0.359491 -0.556461
O32   O     O_3   0.907684 0.684160 0.631892 -0.554503
O33   O     O_3   0.817135 0.578536 0.360193 -0.553783
O34   O     O_R   0.065470 0.434530 0.420520 -0.557591
O35   O     O_3   0.090243 0.314484 0.629276 -0.553285
O36   O     O_3   0.321823 0.900979 0.645278 -0.556222
O37   O     O_3   0.576546 0.183516 0.361044 -0.545468
O38   O     O_3   0.680386 0.099728 0.640849 -0.557609
O39   O     O_3   0.417651 0.819235 0.356997 -0.544558
O40   O     O_3   0.684954 0.906245 0.364569 -0.559864
O41   O     O_3   0.423611 0.186440 0.632749 -0.548884
O42   O     O_3   0.314667 0.091019 0.365542 -0.560299
O43   O     O_3   0.572415 0.812312 0.629988 -0.548100
O44   O     O_3   0.019063 0.389422 0.257596 -0.550930
O45   O     O_R   0.934530 0.434530 0.420520 -0.575470
O46   O     O_3   0.017953 0.610783 0.742488 -0.550882
O47   O     O_3   0.980341 0.610523 0.257388 -0.550382
O48   O     O_3   0.981909 0.389249 0.742340 -0.550171
O49   O     O_3   0.525406 0.890604 0.257001 -0.553494
O50   O     O_3   0.522321 0.110043 0.742504 -0.546644
O51   O     O_3   0.474297 0.109380 0.256872 -0.551251
O52   O     O_3   0.477624 0.889980 0.742338 -0.543755
O53   O     O_R   0.065470 0.565470 0.579480 -0.558303
O54   O     O_R   0.065470 0.565470 0.420520 -0.576469
O55   O     O_R   0.934530 0.434530 0.579480 -0.555651
O56   O     O_R   0.565470 0.934530 0.579480 -0.577696
Zn1   Zn    Zn3+2 1.000000 0.500000 0.606140 1.063879
Zn2   Zn    Zn3+2 0.000000 0.500000 0.393860 1.063540
Zn3   Zn    Zn3+2 0.500000 0.000000 0.606140 1.058224
Zn4   Zn    Zn3+2 0.500000 0.000000 0.393860 1.062014

loop_
_geom_bond_atom_site_label_1
_geom_bond_atom_site_label_2
_ccdc_geom_bond_type
C13   O11   S    
C148  H150  S    
C39   H52   S    
C1    C87   S    
O4    Zn4   S    
C36   H43   S    
C54   O51   S    
C53   H96   S    
C127  O7    A    
C145  C146  S    
C42   O39   S    
C45   H74   S    
C5    C6    S    
C7    O19   S    
C118  O51   S    
C78   O38   S    
C23   H10   S    
C26   H15   S    
O5    Zn4   S    
C34   O31   S    
C67   C138  A    
O2    Zn4   S    
C146  H145  S    
C124  H182  S    
C43   O40   S    
C116  O8    A    
C139  H126  S    
C93   C120  A    
C13   C103  A    
C114  N2    A    
C63   C80   A    
C9    H168  S    
C35   C71   A    
C21   C22   S    
C62   O21   S    
C40   O37   S    
C30   H28   S    
C36   O32   S    
C129  H101  S    
C67   C85   A    
C140  H130  S    
C135  C136  S    
C44   H70   S    
C35   C104  A    
C4    C5    S    
C144  O16   S    
C105  O3    A    
C4    H155  S    
C37   H45   S    
C41   H59   S    
C50   H85   S    
C73   C88   A    
C112  N2    A    
C48   H78   S    
C111  O44   S    
C17   O22   S    
C54   H99   S    
C97   H127  S    
C56   C106  A    
C75   O35   S    
C130  H106  S    
C17   H187  S    
C18   H189  S    
O55   Zn1   S    
C57   C104  A    
C47   H75   S    
C20   O24   S    
C144  C145  S    
C138  O9    S    
C139  C140  S    
C22   H9    S    
C20   H3    S    
C73   O32   S    
C52   H93   S    
C142  H134  S    
C91   C94   S    
C104  C110  S    
C14   H178  S    
C65   C82   A    
C7    H164  S    
C80   C91   A    
C65   C110  A    
C145  H142  S    
C28   H20   S    
C11   H173  S    
C83   C86   S    
C20   C21   S    
C56   O16   S    
C39   H54   S    
C21   H5    S    
C32   H32   S    
C103  C107  S    
O45   Zn2   S    
C30   H26   S    
C55   O52   S    
C58   O18   S    
O54   Zn2   S    
C9    H169  S    
C147  C148  S    
C128  C129  S    
C72   C85   S    
C146  H146  S    
C58   C76   A    
C7    C8    S    
C132  H112  S    
C133  H113  S    
C60   C78   A    
C36   H42   S    
C37   H47   S    
C105  O2    A    
C2    C68   A    
O23   Zn1   S    
C48   H80   S    
C5    H158  S    
C147  H148  S    
C126  H57   S    
C19   H192  S    
C61   O23   A    
C131  O11   S    
C58   C107  A    
C49   H82   S    
C97   C121  A    
C66   O26   S    
C81   C92   A    
C41   O38   S    
C40   H56   S    
O12   Zn2   S    
C23   H11   S    
C38   H50   S    
C33   H38   S    
C25   H14   S    
C84   O43   S    
C76   C89   A    
C134  H117  S    
C96   H116  S    
C126  H35   S    
C69   O29   S    
C22   H7    S    
N3    Zn4   S    
C31   H30   S    
C27   O26   S    
C32   H33   S    
N1    Zn2   S    
C2    O10   S    
C18   H188  S    
C67   O27   S    
C48   O44   S    
C25   C26   S    
C111  N1    A    
C131  H110  S    
C63   C109  A    
C72   O55   A    
C57   O17   S    
C49   O46   S    
C99   H149  S    
C99   C117  A    
C16   H183  S    
C92   C105  S    
C33   H36   S    
C17   C18   S    
C29   H23   S    
C128  H68   S    
C48   H81   S    
C75   C87   A    
C84   C91   A    
C135  H120  S    
C42   H64   S    
C120  C121  S    
C128  O10   S    
C129  C130  S    
O6    Zn3   S    
C98   C122  A    
O8    Zn3   S    
C95   H105  S    
C1    O34   A    
C36   H44   S    
O7    Zn4   S    
C53   H95   S    
C42   H62   S    
C117  N4    A    
C33   H37   S    
C134  C135  S    
C113  N1    A    
C6    H159  S    
C82   O42   S    
C19   H190  S    
C45   H73   S    
C57   C75   A    
C49   H84   S    
C45   O42   S    
C98   C115  A    
C13   C69   A    
C147  O17   S    
C26   H16   S    
O34   Zn2   S    
C34   H39   S    
C12   H175  S    
C64   C81   A    
C79   C89   A    
C10   C11   S    
C52   H92   S    
C116  O5    A    
C45   H72   S    
C14   C15   S    
C97   C114  A    
C70   C85   A    
C46   C73   A    
C9    H167  S    
C106  C109  S    
C26   H17   S    
C143  H139  S    
C8    H165  S    
C144  H140  S    
C93   H1    S    
O3    Zn3   S    
C52   O49   S    
C119  N4    A    
C38   H51   S    
C78   C90   A    
O1    Zn1   S    
C137  C139  S    
C68   O28   S    
C28   C29   S    
C95   C112  A    
C31   O28   S    
C82   C92   A    
C133  H115  S    
C18   C19   S    
C4    H156  S    
C50   H86   S    
C83   O54   A    
C90   C127  S    
C136  H121  S    
C54   H100  S    
C3    H154  S    
C60   C108  A    
O53   Zn1   S    
C94   O56   A    
C130  H107  S    
C95   C121  A    
C63   O22   S    
C115  N3    A    
O56   Zn3   S    
C17   H186  S    
C77   C90   A    
C56   C74   A    
C24   C70   A    
C62   C107  A    
C77   O37   S    
C20   H4    S    
C31   H31   S    
C51   H88   S    
C14   O21   S    
C12   H177  S    
C118  N3    A    
C52   H94   S    
C142  H135  S    
C14   H179  S    
C126  H46   S    
C10   O20   S    
C47   H77   S    
C7    H163  S    
C35   O14   S    
C25   H12   S    
C55   H102  S    
C141  H133  S    
C93   C111  A    
C71   C87   A    
C119  O52   S    
C143  H137  S    
C39   H53   S    
C125  C126  S    
C96   C113  A    
C64   O24   S    
C100  C118  A    
C131  C132  S    
N2    Zn1   S    
C30   H27   S    
C24   O13   S    
C124  H2    S    
C140  H129  S    
C125  H13   S    
C44   H69   S    
C141  H132  S    
C38   O35   S    
C41   H60   S    
C124  O9    S    
C33   O30   S    
C5    H157  S    
C147  H147  S    
C2    C103  A    
C6    H162  S    
C19   H191  S    
C136  H123  S    
C24   C102  A    
C30   O27   S    
C54   H98   S    
C66   C109  A    
C3    H152  S    
C27   H18   S    
C76   O36   S    
C28   H21   S    
C148  H151  S    
C142  C143  S    
C137  O14   S    
C51   H91   S    
C6    H161  S    
C127  O6    A    
C74   C88   A    
C59   O19   S    
C39   O36   S    
C47   O43   S    
C101  H171  S    
C134  H118  S    
C47   H76   S    
C129  H90   S    
C23   O25   S    
C68   C86   A    
C51   O48   S    
C81   O41   S    
C43   H67   S    
C59   C77   A    
C22   H8    S    
C143  H136  S    
C101  C123  A    
C31   H29   S    
C37   O33   S    
C32   H34   S    
C15   H181  S    
C61   O12   A    
C15   C16   S    
C46   C106  A    
C102  C138  A    
C125  H24   S    
C79   O39   S    
C145  H143  S    
C16   H184  S    
C146  H144  S    
C10   H172  S    
C112  O46   S    
C8    C9    S    
C1    O1    A    
C21   H6    S    
C102  C108  S    
C29   H22   S    
C46   O15   S    
C71   O31   S    
C41   H61   S    
C94   O4    A    
C89   C116  S    
C3    C148  S    
C131  H109  S    
C135  H119  S    
C140  H131  S    
C72   O45   A    
C44   H71   S    
C65   O25   S    
C70   O30   S    
C137  H124  S    
C132  H111  S    
C133  H114  S    
C40   H58   S    
C101  C119  A    
C37   H48   S    
C62   C79   A    
C74   O33   S    
C113  O47   S    
C134  O13   S    
C114  O48   S    
C132  C133  S    
C49   H83   S    
C61   C88   S    
C141  O15   S    
C64   C110  A    
C117  O50   S    
C40   H55   S    
C32   O29   S    
C38   H49   S    
C51   H89   S    
C34   H40   S    
C15   H180  S    
C12   H176  S    
C50   O47   S    
C55   H103  S    
C139  H128  S    
C43   H65   S    
C99   C123  A    
C16   H185  S    
C8    H166  S    
C55   H104  S    
C96   C120  A    
C34   H41   S    
C115  O49   S    
C29   H25   S    
C11   C12   S    
C144  H141  S    
C59   C108  A    
C60   O20   S    
C11   H174  S    
C122  C123  S    
C141  C142  S    
C43   H66   S    
C10   H170  S    
C128  H79   S    
C137  H125  S    
N4    Zn3   S    
C100  C122  A    
C23   C25   S    
C50   H87   S    
C53   H97   S    
C69   C86   A    
C66   C84   A    
C53   O50   S    
C100  H160  S    
C27   C28   S    
C83   O53   A    
C136  H122  S    
C80   O40   S    
C44   O41   S    
C4    O18   S    
C3    H153  S    
C42   H63   S    
C98   H138  S    
C27   H19   S    
C124  C125  S    
C130  H108  S    
