data_mof_unit_39734.cif
_audit_creation_date              2012-12-10T17:58:20-0500
_audit_creation_method            fapswitch 2.2
_symmetry_space_group_name_H-M    P1
_symmetry_Int_Tables_number       1
_space_group_crystal_system       triclinic
_cell_length_a                    9.521068
_cell_length_b                    10.797857
_cell_length_c                    15.484068
_cell_angle_alpha                 89.77615
_cell_angle_beta                  74.50313
_cell_angle_gamma                 89.845703
_cell_volume                      1533.98620183

loop_
_atom_site_label
_atom_site_type_symbol
_atom_type_description
_atom_site_fract_x
_atom_site_fract_y
_atom_site_fract_z
_atom_type_partial_charge
C1    C     C_R   0.001435 0.262429 0.497302 0.796960
C2    C     C_R   0.998312 0.737674 0.503023 0.810563
C3    C     C_R   0.586021 0.481829 0.095201 -0.226241
C4    C     C_R   0.425063 0.578241 0.910752 -0.229810
C5    C     C_R   0.731907 0.467579 0.050104 -0.244898
C6    C     C_R   0.279683 0.595083 0.956175 -0.241582
C7    C     C_R   0.885022 0.068153 0.554535 -0.244684
C8    C     C_R   0.114570 0.932381 0.446135 -0.242044
C9    C     C_R   0.880859 0.939557 0.560477 0.161302
C10   C     C_R   0.118549 0.060951 0.440429 0.156384
C11   C     C_R   0.997061 0.871653 0.504461 -0.073602
C12   C     C_R   0.002343 0.128655 0.496064 -0.084472
C13   C     C_R   0.548854 0.427774 0.559036 -0.020775
C14   C     C_R   0.451164 0.572142 0.440908 -0.018520
C15   C     C_R   0.400037 0.427918 0.559076 -0.038666
C16   C     C_R   0.599970 0.572064 0.440907 -0.036295
C17   C     C_R   0.918300 0.498879 0.672173 0.790254
C18   C     C_R   0.081722 0.501626 0.327883 0.785292
C19   C     C_R   0.873505 0.496918 0.770482 -0.049223
C20   C     C_R   0.127223 0.514601 0.230102 -0.048092
C21   C     C_R   0.925636 0.461823 0.912960 -0.215710
C22   C     C_R   0.082491 0.584486 0.091473 -0.222111
C23   C     C_R   0.973363 0.471109 0.820036 -0.195569
C24   C     C_R   0.031257 0.558822 0.182660 -0.200777
C25   C     C_R   0.726872 0.517429 0.814801 -0.265179
C26   C     C_R   0.273380 0.493404 0.185321 -0.260110
C27   C     C_R   0.676557 0.512517 0.908713 0.092907
C28   C     C_R   0.329359 0.523611 0.094255 0.093408
C29   C     C_R   0.778247 0.480978 0.957496 0.169121
C30   C     C_R   0.230296 0.567348 0.047011 0.166908
C31   C     C_R   0.527628 0.533784 0.955035 0.065902
C32   C     C_R   0.480331 0.511817 0.049112 0.068161
Cu1   Cu    Cu3+1 0.140660 0.500020 0.500000 0.935331
Cu2   Cu    Cu3+1 0.859340 0.499980 0.500000 0.933160
H1    H     H_    0.808788 0.444099 0.088127 0.150698
H2    H     H_    0.205175 0.630051 0.919689 0.149789
H3    H     H_    0.341028 0.452929 0.223586 0.147192
H4    H     H_    0.653164 0.533486 0.774051 0.152612
H5    H     H_    0.917866 0.576593 0.216370 0.148510
H6    H     H_    0.087275 0.454626 0.786937 0.151225
H7    H     H_    0.003701 0.437691 0.949941 0.144734
H8    H     H_    0.007067 0.620240 0.056001 0.142832
H9    H     H_    0.560822 0.471636 0.166883 0.141228
H10   H     H_    0.454020 0.604956 0.841180 0.142011
H11   H     H_    0.798311 0.122221 0.597878 0.142850
H12   H     H_    0.202060 0.878961 0.402866 0.148472
H13   H     H_    0.584445 0.369652 0.606223 0.119011
H14   H     H_    0.415592 0.630178 0.393665 0.119145
H15   H     H_    0.323526 0.370031 0.606296 0.116773
H16   H     H_    0.676497 0.629889 0.393643 0.116551
N1    N     N_R   0.352080 0.500030 0.499980 -0.153624
N2    N     N_R   0.647920 0.499970 0.500020 -0.156272
O1    O     O_R   0.118740 0.319660 0.500000 -0.575754
O2    O     O_R   0.881260 0.680340 0.500000 -0.586899
O3    O     O_R   0.881170 0.319630 0.500010 -0.581910
O4    O     O_R   0.118830 0.680370 0.499990 -0.581215
O5    O     O_R   0.055570 0.500030 0.629830 -0.584888
O6    O     O_R   0.944430 0.499970 0.370170 -0.583303
O7    O     O_R   0.818000 0.500000 0.629840 -0.586020
O8    O     O_R   0.182000 0.500000 0.370160 -0.590194
C33   C     C_3   0.755912 0.879933 0.630138 -0.412376
C34   C     C_3   0.806281 0.830248 0.709361 -0.801959
H17   H     H_    0.712950 0.786554 0.758723 0.239008
H18   H     H_    0.893557 0.760129 0.687164 0.240121
H19   H     H_    0.848314 0.907202 0.742766 0.249729
H20   H     H_    0.667855 0.948591 0.656754 0.191932
H21   H     H_    0.704044 0.805542 0.600445 0.226177
C35   C     C_3   0.243581 0.120922 0.371360 -0.398202
C36   C     C_3   0.380391 0.126736 0.404832 -0.781303
H22   H     H_    0.468962 0.173742 0.353987 0.234013
H23   H     H_    0.358773 0.179497 0.468440 0.262251
H24   H     H_    0.417359 0.031862 0.416184 0.236856
H25   H     H_    0.267983 0.066566 0.308225 0.190030
H26   H     H_    0.215152 0.215333 0.352954 0.202877

loop_
_geom_bond_atom_site_label_1
_geom_bond_atom_site_label_2
_ccdc_geom_bond_type
C27   C29   A    
C3    H9    S    
C9    C33   S    
C7    H11   S    
C16   H16   S    
C35   H26   S    
C23   H6    S    
C24   H5    S    
C36   H23   S    
C1    O1    A    
C34   H18   S    
C33   H20   S    
C18   O6    A    
C31   C32   A    
C35   C36   S    
C15   N1    A    
C18   C20   S    
C33   C34   S    
Cu1   O4    S    
Cu2   O3    S    
C36   H22   S    
C1    C12   S    
C2    C11   S    
C5    C29   A    
Cu1   O1    S    
C7    C12   A    
C27   C31   A    
C20   C24   A    
C28   C32   A    
C4    C6    A    
C2    O2    A    
C13   H13   S    
C14   H14   S    
C4    H10   S    
C35   H25   S    
C21   C29   A    
C36   H24   S    
C19   C23   A    
C34   H17   S    
C25   H4    S    
C13   N2    A    
C33   H21   S    
C14   N1    A    
Cu1   Cu2   S    
C9    C11   A    
C10   C12   A    
C17   O7    A    
C21   H7    S    
C18   O8    A    
C6    C30   A    
Cu2   O2    S    
Cu1   O8    S    
C13   C15   A    
Cu2   O7    S    
C14   C16   A    
C25   C27   A    
C7    C9    A    
Cu1   O5    S    
C22   C30   A    
C34   H19   S    
Cu2   N2    S    
C16   N2    A    
C3    C5    A    
C26   H3    S    
C10   C35   S    
Cu1   N1    S    
C26   C28   A    
C21   C23   A    
C1    O3    A    
C2    O4    A    
C22   H8    S    
C20   C26   A    
C8    C11   A    
C5    H1    S    
C28   C30   A    
C17   C19   S    
C6    H2    S    
C22   C24   A    
C15   H15   S    
C3    C32   A    
C19   C25   A    
C8    H12   S    
C4    C31   A    
C8    C10   A    
Cu2   O6    S    
C17   O5    A    
