data_mof_unit_23438.cif
_audit_creation_date              2012-12-10T18:35:46-0500
_audit_creation_method            fapswitch 2.2
_symmetry_space_group_name_H-M    P1
_symmetry_Int_Tables_number       1
_space_group_crystal_system       triclinic
_cell_length_a                    13.41235
_cell_length_b                    13.837829
_cell_length_c                    15.105566
_cell_angle_alpha                 90.581755
_cell_angle_beta                  89.69019
_cell_angle_gamma                 72.391926
_cell_volume                      2671.96417943

loop_
_atom_site_label
_atom_site_type_symbol
_atom_type_description
_atom_site_fract_x
_atom_site_fract_y
_atom_site_fract_z
_atom_type_partial_charge
C1    C     C_R   0.500166 0.500452 0.670520 0.839241
C2    C     C_R   0.980134 0.453827 0.492293 0.081577
C3    C     C_R   0.873909 0.475555 0.467402 0.090380
C4    C     C_R   0.033036 0.526433 0.474423 0.072888
C5    C     C_R   0.983640 0.613001 0.423212 0.170377
C6    C     C_R   0.883472 0.626590 0.390555 -0.254567
C7    C     C_R   0.829409 0.558848 0.412030 -0.209444
C8    C     C_R   0.133458 0.516116 0.506621 -0.276636
C9    C     C_R   0.137676 0.669454 0.433161 -0.193311
C10   C     C_R   0.815362 0.412438 0.497796 -0.099661
C11   C     C_R   0.489211 0.412753 0.904315 0.535953
C12   C     C_R   0.700422 0.445760 0.496782 0.768943
C13   C     C_R   0.489253 0.415899 0.812199 -0.357882
C14   C     C_R   0.499515 0.501093 0.767799 -0.214719
C15   C     C_R   0.508460 0.585205 0.817425 0.469113
C16   C     C_R   0.499733 0.585002 0.909274 -0.330932
C17   C     C_R   0.491000 0.499342 0.953307 -0.049791
C18   C     C_R   0.568601 0.529212 0.094881 -0.262052
C19   C     C_R   0.570756 0.530845 0.186682 -0.204811
C20   C     C_R   0.497414 0.499186 0.234704 -0.072079
C21   C     C_R   0.419902 0.468896 0.191441 -0.278217
C22   C     C_R   0.412847 0.473357 0.099243 0.515106
C23   C     C_R   0.500169 0.499494 0.330276 0.811128
C24   C     C_R   0.490433 0.499922 0.050459 0.038771
C25   C     C_R   0.546237 0.879077 0.431867 -0.369599
C26   C     C_R   0.545239 0.777651 0.432011 0.067623
C27   C     C_R   0.456602 0.803627 0.569850 -0.044578
C28   C     C_R   0.459839 0.905148 0.574547 0.351848
C29   C     C_R   0.503453 0.944441 0.503467 0.064939
C30   C     C_R   0.551629 0.094181 0.569276 -0.248023
C31   C     C_R   0.550402 0.196320 0.566112 -0.039621
C32   C     C_R   0.449011 0.221437 0.435653 0.658521
C33   C     C_R   0.452576 0.118158 0.435057 -0.361006
C34   C     C_R   0.299871 0.554028 0.497949 0.795444
C35   C     C_R   0.502824 0.053451 0.502770 0.123670
C36   C     C_R   0.035834 0.684333 0.403977 -0.196745
C37   C     C_R   0.187284 0.583968 0.482983 -0.054033
C38   C     C_R   0.866596 0.320514 0.538841 -0.192733
C39   C     C_R   0.973237 0.293601 0.554349 -0.150692
C40   C     C_R   0.029377 0.359921 0.533264 -0.194004
Cu1   Cu    Cu3+1 0.500000 0.403570 0.500010 0.961780
Cu2   Cu    Cu3+1 0.500000 0.596430 0.499990 0.938118
H1    H     H_    0.482653 0.350392 0.775615 0.185113
H2    H     H_    0.501491 0.651800 0.946554 0.168352
H3    H     H_    0.628303 0.550484 0.058310 0.151940
H4    H     H_    0.630985 0.554322 0.220226 0.136220
H5    H     H_    0.418415 0.774966 0.622090 0.164337
H6    H     H_    0.846260 0.690426 0.348799 0.141083
H7    H     H_    0.592145 0.046862 0.622556 0.141717
H8    H     H_    0.998893 0.750103 0.364293 0.132507
H9    H     H_    0.111652 0.334140 0.547884 0.126592
H10   H     H_    0.753301 0.571377 0.382707 0.153036
N1    N     N_R   0.500000 0.741310 0.499980 -0.191066
N2    N     N_R   0.500060 0.258650 0.499980 -0.202012
O1    O     O_R   0.499990 0.418570 0.628550 -0.599375
O2    O     O_R   0.499990 0.581440 0.628540 -0.556443
O3    O     O_R   0.650980 0.378820 0.499990 -0.582758
O4    O     O_R   0.650980 0.541690 0.499970 -0.586457
O5    O     O_R   0.500010 0.418560 0.371460 -0.525456
O6    O     O_R   0.500010 0.581430 0.371450 -0.602156
O7    O     O_R   0.349020 0.458310 0.500030 -0.582098
O8    O     O_R   0.349020 0.621180 0.500010 -0.576815
H11   H     H_    0.179085 0.722040 0.413513 0.154282
O9    O     O_3   0.519178 0.670934 0.777278 -0.629527
C41   C     C_3   0.626146 0.657543 0.758388 0.079683
H12   H     H_    0.629553 0.702942 0.698831 0.167922
H13   H     H_    0.671500 0.577525 0.741255 0.124609
C42   C     C_3   0.677763 0.696550 0.835419 -0.399803
H14   H     H_    0.629123 0.774204 0.854658 0.229854
H15   H     H_    0.683669 0.646410 0.893363 0.211170
C43   C     C_3   0.787220 0.699104 0.810159 -0.906291
H16   H     H_    0.837531 0.621946 0.791066 0.260490
H17   H     H_    0.822959 0.726489 0.867562 0.255388
H18   H     H_    0.783277 0.751341 0.754015 0.253393
H19   H     H_    0.363470 0.444694 0.229587 0.157598
O10   O     O_3   0.331619 0.450120 0.056770 -0.582546
C44   C     C_3   0.237026 0.530171 0.068681 0.047210
H20   H     H_    0.202506 0.550805 0.002222 0.171854
H21   H     H_    0.246910 0.601087 0.098316 0.116093
C45   C     C_3   0.160004 0.494395 0.125124 -0.340659
H22   H     H_    0.148438 0.425223 0.094522 0.237285
H23   H     H_    0.191996 0.475283 0.192406 0.209562
C46   C     C_3   0.054412 0.576122 0.133965 -0.925179
H24   H     H_    0.064014 0.645288 0.166121 0.255408
H25   H     H_    0.000945 0.547742 0.175561 0.259244
H26   H     H_    0.018686 0.595694 0.067806 0.255765
H27   H     H_    0.581335 0.906140 0.376392 0.159024
H28   H     H_    0.580666 0.728205 0.377135 0.128655
O11   O     O_3   0.411574 0.969451 0.643418 -0.613462
C47   C     C_3   0.461048 0.933688 0.724199 0.026405
H29   H     H_    0.433787 0.870476 0.748775 0.189741
H30   H     H_    0.548079 0.907419 0.716970 0.130906
C48   C     C_3   0.431196 0.020035 0.792545 -0.299949
H31   H     H_    0.455309 0.085039 0.767718 0.217555
H32   H     H_    0.344892 0.045632 0.802200 0.229914
C49   C     C_3   0.483494 0.986922 0.881336 -0.945013
H33   H     H_    0.460610 0.921818 0.907409 0.260890
H34   H     H_    0.458539 0.050767 0.929766 0.270563
H35   H     H_    0.569939 0.964861 0.873839 0.256337
H36   H     H_    0.590394 0.225435 0.616972 0.140041
O12   O     O_3   0.399917 0.283354 0.367501 -0.598410
C50   C     C_3   0.289907 0.304119 0.373353 0.045306
H37   H     H_    0.254782 0.387703 0.375082 0.181056
H38   H     H_    0.261763 0.274337 0.434003 0.118652
C51   C     C_3   0.249469 0.263795 0.290755 -0.377274
H39   H     H_    0.277383 0.293766 0.230633 0.235931
H40   H     H_    0.280241 0.179794 0.288157 0.215918
C52   C     C_3   0.130048 0.295398 0.290707 -0.904896
H41   H     H_    0.100681 0.262905 0.348618 0.267992
H42   H     H_    0.102819 0.267004 0.229256 0.257024
H43   H     H_    0.097017 0.379342 0.293307 0.258987
H44   H     H_    0.415134 0.088896 0.382374 0.147666
H45   H     H_    0.173255 0.454441 0.548922 0.145289
H46   H     H_    0.823559 0.270440 0.561375 0.151112
H47   H     H_    0.012145 0.222175 0.585612 0.147452
O13   O     O_3   0.481613 0.326368 0.945460 -0.578382
C53   C     C_3   0.582518 0.263538 0.968040 0.065725
H48   H     H_    0.572797 0.217046 0.025096 0.181145
H49   H     H_    0.635716 0.307029 0.990681 0.119584
C54   C     C_3   0.632505 0.192384 0.890646 -0.391095
H50   H     H_    0.574901 0.157235 0.863175 0.238806
H51   H     H_    0.655567 0.236358 0.837406 0.204371
C55   C     C_3   0.729353 0.108805 0.919828 -0.911992
H52   H     H_    0.788362 0.142278 0.947249 0.257731
H53   H     H_    0.764329 0.059813 0.862028 0.254576
H54   H     H_    0.707985 0.061118 0.970859 0.256767

loop_
_geom_bond_atom_site_label_1
_geom_bond_atom_site_label_2
_ccdc_geom_bond_type
C49   H35   S    
C48   H31   S    
C34   C37   S    
Cu1   Cu2   S    
C19   C20   A    
C22   O10   S    
C4    C8    A    
Cu2   O4    S    
C19   H4    S    
C55   H52   S    
C44   H20   S    
O13   C53   S    
C23   O5    A    
C51   H40   S    
O12   C50   S    
C6    H6    S    
C30   C35   A    
C18   C24   A    
C28   C29   A    
C1    O2    A    
C7    H10   S    
C3    C7    A    
C53   H49   S    
Cu2   N1    S    
C30   C31   A    
C38   H46   S    
C55   H53   S    
C15   C16   A    
C29   C35   S    
C5    C36   A    
C25   H27   S    
C52   H41   S    
C50   C51   S    
C18   C19   A    
Cu1   O1    S    
Cu2   O2    S    
C42   H14   S    
C41   H13   S    
C49   H34   S    
C9    C36   A    
C15   O9    S    
C28   O11   S    
Cu1   O7    S    
Cu2   O8    S    
C54   C55   S    
C12   O4    A    
C48   H32   S    
C21   C22   A    
C45   C46   S    
C32   N2    A    
C54   H51   S    
C44   H21   S    
C25   C29   A    
C23   O6    A    
C51   C52   S    
C17   C24   S    
C38   C39   A    
O10   C44   S    
Cu1   O5    S    
C45   H23   S    
C53   C54   S    
Cu2   O6    S    
C39   C40   A    
C43   H17   S    
C16   C17   A    
C55   H54   S    
C25   C26   A    
C34   O7    A    
C2    C4    A    
C47   H30   S    
C46   H24   S    
C14   C15   A    
C20   C23   S    
C41   C42   S    
C49   H33   S    
C9    C37   A    
C18   H3    S    
C33   H44   S    
C31   H36   S    
C50   H38   S    
C11   O13   S    
C10   C12   S    
C8    H45   S    
C12   O3    A    
C42   H15   S    
C46   H25   S    
C30   H7    S    
C48   C49   S    
C39   H47   S    
C22   C24   A    
C8    C37   A    
C26   N1    A    
C13   H1    S    
C36   H8    S    
C54   H50   S    
C47   C48   S    
C44   C45   S    
C27   H5    S    
C16   H2    S    
C11   C17   A    
C9    H11   S    
C45   H22   S    
C43   H18   S    
C27   N1    A    
C6    C7    A    
C40   H9    S    
C51   H39   S    
C21   H19   S    
C52   H43   S    
C10   C38   A    
C32   C33   A    
C2    C3    A    
C1    O1    A    
Cu1   O3    S    
C43   H16   S    
C34   O8    A    
C53   H48   S    
O9    C41   S    
C11   C13   A    
C47   H29   S    
C5    C6    A    
C42   C43   S    
C33   C35   A    
C52   H42   S    
C31   N2    A    
C50   H37   S    
Cu1   N2    S    
C2    C40   A    
C4    C5    A    
C46   H26   S    
C20   C21   A    
C26   H28   S    
C41   H12   S    
C27   C28   A    
C3    C10   A    
C32   O12   S    
C1    C14   S    
O11   C47   S    
C13   C14   A    
