data_mof_unit_26071.cif
_audit_creation_date              2013-03-05T15:45:30-0500
_audit_creation_method            fapswitch 2.2
_symmetry_space_group_name_H-M    P1
_symmetry_Int_Tables_number       1
_space_group_crystal_system       triclinic
_cell_length_a                    9.97092
_cell_length_b                    11.156129
_cell_length_c                    13.549861
_cell_angle_alpha                 95.33985
_cell_angle_beta                  83.774318
_cell_angle_gamma                 109.952431
_cell_volume                      1405.88153923

loop_
_atom_site_label
_atom_site_type_symbol
_atom_site_description
_atom_site_fract_x
_atom_site_fract_y
_atom_site_fract_z
_atom_type_partial_charge
O1    O     O_R   0.426290 0.668220 0.490680 -0.598485
O2    O     O_R   0.659360 0.703290 0.520190 -0.547804
C1    C     C_R   0.553315 0.742952 0.511347 0.812463
O3    O     O_R   0.326580 0.473880 0.629020 -0.576950
O4    O     O_R   0.559660 0.508940 0.658530 -0.576758
C2    C     C_R   0.424174 0.484824 0.690441 0.789386
Cu1   Cu    Cu3+1 0.362000 0.479240 0.482530 1.020977
Cu2   Cu    Cu3+1 0.638000 0.520760 0.517470 1.026742
O5    O     O_R   0.340640 0.296710 0.479810 -0.564951
O6    O     O_R   0.573710 0.331780 0.509320 -0.574062
O7    O     O_R   0.440340 0.491060 0.341470 -0.569609
O8    O     O_R   0.673420 0.526120 0.370980 -0.595699
C3    C     C_R   0.445666 0.255232 0.492664 0.809637
C4    C     C_R   0.575373 0.517520 0.311564 0.793454
C5    C     C_R   0.776746 0.693699 0.087854 -0.166415
H1    H     H_    0.880764 0.762917 0.068143 0.168464
C6    C     C_R   0.617409 0.553665 0.208673 -0.118650
C7    C     C_R   0.231440 0.422498 0.833319 -0.139359
C8    C     C_R   0.183778 0.440779 0.933831 -0.080539
C9    C     C_R   0.284447 0.497838 0.004833 -0.083239
C10   C     C_R   0.432576 0.525235 0.975663 -0.000846
C11   C     C_R   0.480232 0.523038 0.873232 0.002869
C12   C     C_R   0.538732 0.557878 0.045372 0.062197
C13   C     C_R   0.677446 0.639999 0.016498 0.050008
C14   C     C_R   0.717295 0.653046 0.914890 -0.098562
C15   C     C_R   0.629776 0.563240 0.848948 -0.038781
C16   C     C_R   0.517180 0.501310 0.136905 -0.084601
C17   C     C_R   0.745766 0.654067 0.184409 -0.046192
C18   C     C_R   0.379098 0.474345 0.800082 -0.139407
H2    H     H_    0.430706 0.875553 0.428791 0.181530
C19   C     C_2   0.575587 0.876735 0.531694 -0.178342
C20   C     C_2   0.504389 0.932217 0.482572 -0.227993
C21   C     C_2   0.420585 0.116886 0.488202 -0.267611
C22   C     C_2   0.528960 0.069795 0.493298 -0.036596
N1    N     N_2   0.845330 0.551960 0.543750 -0.259661
C23   C     C_2   0.925332 0.497758 0.484678 -0.084107
N2    N     N_2   0.154690 0.448120 0.456210 -0.283663
C24   C     C_2   0.083340 0.523958 0.493879 -0.026933
C25   C     C_1   0.849462 0.716808 0.255777 0.316878
N3    N     N_1   0.932611 0.767073 0.312790 -0.237055
C26   C     C_1   0.275205 0.031946 0.477006 0.335909
N4    N     N_1   0.159045 0.964768 0.467973 -0.197708
C27   C     C_1   0.665057 0.940472 0.611692 0.358431
N5    N     N_1   0.736314 0.990111 0.675732 -0.164933
C28   C     C_1   0.159736 0.648899 0.536719 0.392915
N6    N     N_1   0.215391 0.749219 0.573454 -0.273814
C29   C     C_1   0.869039 0.425302 0.395557 0.400554
N7    N     N_1   0.826283 0.367274 0.323343 -0.195144
C30   C     C_2   0.082387 0.318407 0.427321 1.053220
O9    O     O_2   0.042318 0.238802 0.489893 -0.566673
O10   O     O_R   0.073059 0.280447 0.326393 -0.707218
H3    H     H_    0.026307 0.184756 0.314469 0.358974
C31   C     C_2   0.888572 0.610937 0.637610 1.010707
O11   O     O_2   0.858526 0.705627 0.668441 -0.570750
O12   O     O_R   0.963403 0.559990 0.694357 -0.795385
H4    H     H_    0.997879 0.614338 0.756540 0.328792
C32   C     C_1   0.855329 0.740619 0.880872 0.327750
N8    N     N_1   0.965774 0.812826 0.855886 -0.218951
C33   C     C_1   0.406873 0.377730 0.150484 0.283466
N9    N     N_1   0.319579 0.278995 0.161101 -0.200340
C34   C     C_1   0.125998 0.350835 0.764832 0.384938
N10   N     N_1   0.041299 0.293136 0.710824 -0.164597
C35   C     C_2   0.236648 0.537889 0.107090 0.887684
O13   O     O_2   0.131161 0.467404 0.152996 -0.536948
O14   O     O_R   0.314539 0.656170 0.151211 -0.743173
H5    H     H_    0.273325 0.671960 0.221004 0.336525
C36   C     C_2   0.027612 0.406380 0.962874 0.909921
O15   O     O_2   0.948932 0.295527 0.952063 -0.546831
O16   O     O_R   0.971009 0.501268 0.001555 -0.757295
H6    H     H_    0.863646 0.466094 0.018107 0.337756
C37   C     C_1   0.682649 0.460853 0.810768 0.300152
N11   N     N_1   0.722430 0.376829 0.782157 -0.169132
C38   C     C_2   0.680300 0.150562 0.501213 0.907740
O17   O     O_2   0.769733 0.142326 0.434366 -0.585761
O18   O     O_R   0.721213 0.224709 0.588987 -0.713226
H7    H     H_    0.827597 0.272447 0.587478 0.360708

loop_
_geom_bond_atom_site_label_1
_geom_bond_atom_site_label_2
_geom_bond_distance
_ccdc_geom_bond_type
O4    Cu2   1.983322 S    
Cu1   O7    1.983322 S    
C12   C13   1.410653 A    
C35   O14   1.398669 S    
C7    C34   1.451055 S    
C3    C21   1.473371 S    
N2    C24   1.316857 D    
O10   H3    1.013729 S    
C11   C18   1.427279 A    
C12   C16   1.406411 A    
N1    C31   1.416278 S    
N2    C30   1.418037 S    
C38   O17   1.220356 D    
C8    C9    1.413405 A    
C19   C20   1.345044 D    
Cu2   O8    1.980870 S    
C21   C26   1.451097 S    
C30   O9    1.221332 D    
C9    C35   1.494472 S    
C23   C24   1.518119 S    
C21   C22   1.363386 D    
C5    C17   1.389017 A    
C33   N9    1.157415 T    
O14   H5    1.014067 S    
C7    C18   1.424244 A    
C16   C33   1.453530 S    
C10   C11   1.418204 A    
C9    C10   1.420872 A    
C1    C19   1.436439 S    
H2    C20   1.088043 S    
C15   C37   1.446420 S    
C38   O18   1.398920 S    
C4    C6    1.464411 S    
C32   N8    1.157892 T    
O4    C2    1.315765 A    
C19   C27   1.452512 S    
O3    Cu1   1.980871 S    
O1    Cu1   1.979304 S    
Cu2   O6    1.979306 S    
C5    C13   1.403232 A    
O8    C4    1.305914 A    
O6    C3    1.301052 A    
O2    C1    1.298007 A    
O16   H6    1.013846 S    
C31   O12   1.402204 S    
C27   N5    1.157657 T    
Cu1   N2    2.041462 S    
C34   N10   1.156919 T    
O7    C4    1.302619 A    
O12   H4    1.010555 S    
C22   C38   1.479740 S    
C36   O15   1.222862 D    
C6    C16   1.411470 A    
C29   N7    1.158650 T    
C28   N6    1.157853 T    
C14   C32   1.445603 S    
Cu1   Cu2   2.717324 S    
C2    C18   1.508109 S    
C37   N11   1.157192 T    
C13   C14   1.397762 A    
C23   C29   1.443049 S    
O3    C2    1.315337 A    
C7    C8    1.412924 A    
C11   C15   1.413299 A    
C36   O16   1.397914 S    
C25   N3    1.157407 T    
Cu1   O5    1.971066 S    
O5    C3    1.313910 A    
C24   C28   1.442469 S    
O18   H7    1.010450 S    
C17   C25   1.446050 S    
C30   O10   1.396829 S    
C14   C15   1.403373 A    
C35   O13   1.223199 D    
C6    C17   1.414081 A    
C26   N4    1.157324 T    
C10   C12   1.426502 A    
Cu2   N1    2.041340 S    
O2    Cu2   1.971064 S    
C5    H1    1.083989 S    
C31   O11   1.219388 D    
C8    C36   1.487994 S    
O1    C1    1.300183 A    
N1    C23   1.320321 D    
C20   C22   1.465082 S    
