data_mof_unit_23155.cif
_audit_creation_date              2012-12-10T18:43:34-0500
_audit_creation_method            fapswitch 2.2
_symmetry_space_group_name_H-M    P1
_symmetry_Int_Tables_number       1
_space_group_crystal_system       triclinic
_cell_length_a                    19.485199
_cell_length_b                    18.397259
_cell_length_c                    10.917176
_cell_angle_alpha                 89.999291
_cell_angle_beta                  92.385882
_cell_angle_gamma                 90.000349
_cell_volume                      3910.13394245

loop_
_atom_site_label
_atom_site_type_symbol
_atom_type_description
_atom_site_fract_x
_atom_site_fract_y
_atom_site_fract_z
_atom_type_partial_charge
C1    C     C_R   0.367763 0.500238 0.502702 0.929545
C2    C     C_R   0.632237 0.500239 0.497289 0.929770
C3    C     C_R   0.708104 0.502142 0.491154 -0.259499
C4    C     C_R   0.291896 0.502138 0.508832 -0.259557
C5    C     C_R   0.964144 0.583290 0.498078 -0.134227
C6    C     C_R   0.035855 0.583292 0.501914 -0.134282
C7    C     C_R   0.071968 0.517268 0.504977 0.117103
C8    C     C_R   0.928034 0.517263 0.495010 0.117119
C9    C     C_R   0.035713 0.451433 0.502483 -0.137648
C10   C     C_R   0.964291 0.451430 0.497501 -0.137673
C11   C     C_R   0.443369 0.722110 0.457770 0.048537
C12   C     C_R   0.556631 0.722107 0.542235 0.048491
C13   C     C_R   0.438652 0.797930 0.477966 0.249206
C14   C     C_R   0.561352 0.797927 0.522042 0.249219
C15   C     C_R   0.500003 0.838349 0.500003 -0.165235
C16   C     C_R   0.529610 0.960854 0.599333 -0.075977
C17   C     C_R   0.470398 0.960854 0.400668 -0.075990
C18   C     C_R   0.540562 0.036661 0.588178 0.323790
C19   C     C_R   0.459446 0.036660 0.411820 0.323788
C20   C     C_R   0.500003 0.077389 0.499999 -0.151930
C21   C     C_R   0.498856 0.500228 0.265395 0.946392
C22   C     C_R   0.501147 0.500228 0.734605 0.946623
C23   C     C_R   0.500004 0.920940 0.500001 0.028969
C24   C     C_R   0.496911 0.200418 0.391467 -0.171793
C25   C     C_R   0.503092 0.200416 0.608532 -0.171790
C26   C     C_R   0.487351 0.276326 0.393904 0.113169
C27   C     C_R   0.512649 0.276324 0.606095 0.113184
C28   C     C_R   0.500002 0.160123 0.499999 0.186745
C29   C     C_2   0.493993 0.443249 0.933812 -0.069057
C30   C     C_2   0.506012 0.443249 0.066191 -0.069072
C31   C     C_2   0.506988 0.501997 0.867084 -0.181300
C32   C     C_2   0.493018 0.501999 0.132916 -0.181122
C33   C     C_R   0.749893 0.471291 0.586728 0.304768
C34   C     C_R   0.250106 0.471298 0.413249 0.304452
C35   C     C_R   0.820913 0.478033 0.585193 -0.188505
C36   C     C_R   0.179086 0.478042 0.414784 -0.188378
C37   C     C_R   0.852246 0.515830 0.492266 -0.080261
C38   C     C_R   0.147755 0.515838 0.507714 -0.080330
C39   C     C_R   0.811980 0.546791 0.395605 -0.110894
C40   C     C_R   0.188023 0.546793 0.604377 -0.110995
C41   C     C_R   0.739556 0.538373 0.392267 0.330474
C42   C     C_R   0.260444 0.538356 0.607728 0.330759
Cu1   Cu    Cu3+1 0.500000 0.573360 0.500000 1.056990
Cu2   Cu    Cu3+1 0.500000 0.426640 0.500000 1.067426
H1    H     H_    0.475979 0.393251 0.891019 0.172776
H2    H     H_    0.524023 0.393251 0.108987 0.172741
H3    H     H_    0.495965 0.172565 0.304300 0.185028
H4    H     H_    0.504038 0.172562 0.695698 0.185028
H5    H     H_    0.525069 0.552165 0.909784 0.150028
H6    H     H_    0.474939 0.552167 0.090213 0.150016
H7    H     H_    0.852818 0.453637 0.657719 0.202428
H8    H     H_    0.147181 0.453651 0.342256 0.202419
H9    H     H_    0.936825 0.634563 0.497711 0.154071
H10   H     H_    0.063171 0.634567 0.502283 0.154051
H11   H     H_    0.062862 0.400025 0.504693 0.167467
H12   H     H_    0.937144 0.400021 0.495286 0.167464
N1    N     N_R   0.500000 0.683620 0.500000 -0.257125
N2    N     N_R   0.500000 0.316380 0.500000 -0.218347
O1    O     O_R   0.400190 0.561980 0.499980 -0.575350
O2    O     O_R   0.599810 0.561980 0.500020 -0.575305
O3    O     O_R   0.400190 0.438070 0.500040 -0.536418
O4    O     O_R   0.599810 0.438070 0.499960 -0.536449
O5    O     O_R   0.500000 0.561940 0.321950 -0.570933
O6    O     O_R   0.500000 0.561940 0.678050 -0.570930
O7    O     O_R   0.500010 0.438030 0.322010 -0.599454
O8    O     O_R   0.499990 0.438030 0.677990 -0.599425
S1    S     S_3+6 0.355373 0.837198 0.487682 0.040934
O9    O     O_2   0.357871 0.907917 0.556658 -0.238961
O10   O     O_2   0.324347 0.849233 0.361002 -0.251968
O11   O     O_3   0.305348 0.778700 0.561897 -0.501687
H13   H     H_    0.258797 0.800393 0.556244 0.386800
S2    S     S_3+6 0.644633 0.837192 0.512324 0.040901
O12   O     O_2   0.642134 0.907908 0.443335 -0.239148
O13   O     O_2   0.675660 0.849233 0.639000 -0.251797
O14   O     O_3   0.694657 0.778691 0.438122 -0.501776
H14   H     H_    0.741161 0.800509 0.443406 0.386836
C43   C     C_1   0.547918 0.924617 0.713817 0.461270
N3    N     N_1   0.562161 0.895767 0.805605 -0.187839
C44   C     C_1   0.452092 0.924617 0.286184 0.461280
N4    N     N_1   0.437850 0.895767 0.194397 -0.187835
S3    S     S_3+6 0.612189 0.074636 0.673158 0.042529
O15   O     O_2   0.591326 0.093973 0.800113 -0.291794
O16   O     O_2   0.639370 0.140910 0.610842 -0.250030
O17   O     O_3   0.675467 0.012521 0.684532 -0.440495
H15   H     H_    0.711601 0.035121 0.738487 0.396321
S4    S     S_3+6 0.387819 0.074634 0.326837 0.042535
O18   O     O_2   0.408682 0.093973 0.199884 -0.291789
O19   O     O_2   0.360636 0.140906 0.389154 -0.250032
O20   O     O_3   0.324543 0.012516 0.315461 -0.440486
H16   H     H_    0.288407 0.035118 0.261512 0.396325
C45   C     C_1   0.453989 0.305459 0.285109 0.405542
N5    N     N_1   0.425634 0.325784 0.196410 -0.163132
C46   C     C_1   0.546009 0.305457 0.714892 0.405584
N6    N     N_1   0.574362 0.325782 0.803593 -0.163206
S5    S     S_3+6 0.716086 0.421597 0.708752 0.055464
O21   O     O_2   0.691412 0.349632 0.659291 -0.217016
O22   O     O_2   0.769922 0.408288 0.808931 -0.231895
O23   O     O_3   0.650408 0.466977 0.767475 -0.544017
H17   H     H_    0.670403 0.513698 0.796571 0.355249
S6    S     S_3+6 0.283910 0.421609 0.291218 0.055581
O24   O     O_2   0.308571 0.349635 0.340673 -0.217023
O25   O     O_2   0.230074 0.408318 0.191032 -0.231687
O26   O     O_3   0.349600 0.466978 0.232503 -0.543794
H18   H     H_    0.329684 0.513824 0.203890 0.354946
C47   C     C_1   0.846220 0.585058 0.299742 0.370811
N7    N     N_1   0.874390 0.615644 0.223945 -0.216045
C48   C     C_1   0.153792 0.585082 0.700225 0.371150
N8    N     N_1   0.125632 0.615687 0.776012 -0.215939
S7    S     S_3+6 0.688360 0.565038 0.260065 0.029371
O27   O     O_2   0.644954 0.501241 0.220354 -0.299117
O28   O     O_2   0.642145 0.626903 0.292788 -0.270317
O29   O     O_3   0.734087 0.589938 0.139553 -0.482777
H19   H     H_    0.731803 0.643719 0.137128 0.376313
S8    S     S_3+6 0.311634 0.564976 0.739959 0.029376
O30   O     O_2   0.355060 0.501179 0.779592 -0.299129
O31   O     O_2   0.357827 0.626875 0.707301 -0.270433
O32   O     O_3   0.265890 0.589796 0.860496 -0.482842
H20   H     H_    0.268388 0.643559 0.863309 0.376430
C49   C     C_1   0.389701 0.687541 0.383867 0.458755
N9    N     N_1   0.346468 0.660814 0.323416 -0.270118
C50   C     C_1   0.610294 0.687535 0.616146 0.458871
N10   N     N_1   0.653523 0.660803 0.676605 -0.269834

loop_
_geom_bond_atom_site_label_1
_geom_bond_atom_site_label_2
_ccdc_geom_bond_type
C30   C32   D    
C46   N6    T    
Cu2   O8    S    
S5    O21   D    
O14   H14   S    
C19   S4    S    
C11   C49   S    
S8    O30   D    
S5    O23   S    
Cu1   O5    S    
C39   C41   A    
C43   N3    T    
C25   C28   A    
C17   C23   A    
C5    H9    S    
C35   C37   A    
C24   C26   A    
S7    O28   D    
C5    C6    A    
C2    O2    A    
C3    C33   A    
C17   C44   S    
C18   S3    S    
C7    C9    A    
C16   C43   S    
C22   O8    A    
C17   C19   A    
C42   S8    S    
C12   C50   S    
C19   C20   A    
Cu2   N2    S    
C34   S6    S    
C48   N8    T    
O11   H13   S    
C9    H11   S    
C10   H12   S    
C9    C10   A    
C18   C20   A    
C36   H8    S    
Cu1   O1    S    
C15   C23   S    
C40   C42   A    
C41   S7    S    
Cu2   O7    S    
C31   H5    S    
S2    O14   S    
C33   S5    S    
O29   H19   S    
S3    O16   D    
Cu1   O6    S    
S3    O15   D    
C37   C39   A    
C21   C32   S    
C4    C34   A    
C22   C31   S    
S4    O19   D    
S1    O9    D    
O17   H15   S    
S2    O13   D    
S7    O29   S    
C45   N5    T    
S4    O18   D    
C20   C28   S    
Cu2   O4    S    
C26   C45   S    
C27   N2    A    
S6    O26   S    
C29   H1    S    
S1    O10   D    
Cu1   Cu2   S    
C29   C30   S    
S6    O25   D    
C26   N2    A    
C25   H4    S    
C32   H6    S    
C50   N10   T    
Cu1   O2    S    
C40   C48   S    
C12   N1    A    
C8    C10   A    
C12   C14   A    
C6    H10   S    
C16   C23   A    
C13   C15   A    
C35   H7    S    
C27   C46   S    
C8    C37   S    
S3    O17   S    
C13   S1    S    
C39   C47   S    
C3    C41   A    
C21   O7    A    
C24   H3    S    
C14   S2    S    
C30   H2    S    
C24   C28   A    
S2    O12   D    
S4    O20   S    
C1    O3    A    
C5    C8    A    
S8    O31   D    
C49   N9    T    
S5    O22   D    
C6    C7    A    
Cu2   O3    S    
C25   C27   A    
C47   N7    T    
C1    C4    S    
S1    O11   S    
C1    O1    A    
C2    C3    S    
C29   C31   D    
O32   H20   S    
C38   C40   A    
C11   C13   A    
C4    C42   A    
C36   C38   A    
S6    O24   D    
C33   C35   A    
C7    C38   S    
C34   C36   A    
C21   O5    A    
S8    O32   S    
Cu1   N1    S    
C22   O6    A    
C44   N4    T    
C16   C18   A    
O23   H17   S    
S7    O27   D    
O26   H18   S    
C14   C15   A    
O20   H16   S    
C11   N1    A    
C2    O4    A    
