data_mof_unit_39089.cif
_audit_creation_date              2012-12-10T18:25:34-0500
_audit_creation_method            fapswitch 2.2
_symmetry_space_group_name_H-M    P1
_symmetry_Int_Tables_number       1
_space_group_crystal_system       triclinic
_cell_length_a                    26.079456
_cell_length_b                    26.27709
_cell_length_c                    18.479793
_cell_angle_alpha                 89.830271
_cell_angle_beta                  135.147819
_cell_angle_gamma                 89.936153
_cell_volume                      8931.57687187

loop_
_atom_site_label
_atom_site_type_symbol
_atom_type_description
_atom_site_fract_x
_atom_site_fract_y
_atom_site_fract_z
_atom_type_partial_charge
C1    C     C_R   0.109066 0.250206 0.500106 0.431121
C2    C     C_3   0.447764 0.750715 0.898509 -0.046798
C3    C     C_R   0.749204 0.390975 0.499528 0.501488
C4    C     C_R   0.110895 0.251942 0.218689 0.515125
C5    C     C_R   0.108813 0.749821 0.218329 0.533754
C6    C     C_R   0.610450 0.751670 0.218676 0.508538
C7    C     C_R   0.609353 0.249138 0.218186 0.527276
C8    C     C_R   0.391527 0.249534 0.781631 0.554938
C9    C     C_R   0.390766 0.749940 0.782089 0.567192
C10   C     C_R   0.891015 0.750224 0.781794 0.558136
C11   C     C_R   0.890978 0.250041 0.782013 0.583834
C12   C     C_3   0.474094 0.190226 0.937963 -0.071131
C13   C     C_3   0.949506 0.749934 0.897769 -0.051781
C14   C     C_3   0.438982 0.802434 0.938791 -0.088551
C15   C     C_3   0.976681 0.692121 0.938863 -0.072583
C16   C     C_3   0.949786 0.307028 0.938604 -0.080828
C17   C     C_3   0.544533 0.191063 0.061244 -0.079730
C18   C     C_3   0.496278 0.799797 0.062192 -0.059657
C19   C     C_3   0.046105 0.693211 0.062123 -0.083119
C20   C     C_3   0.004172 0.304260 0.061520 -0.062114
C21   C     C_3   0.419974 0.278017 0.937495 -0.099056
C22   C     C_3   0.442389 0.700213 0.942267 -0.066164
C23   C     C_3   0.917890 0.777087 0.937809 -0.101252
C24   C     C_3   0.948764 0.251142 0.898318 -0.049195
C25   C     C_3   0.936168 0.205425 0.942349 -0.064401
C26   C     C_2   0.410972 0.159710 0.908498 0.264131
C27   C     C_2   0.361973 0.811963 0.892023 0.234048
C28   C     C_2   0.914606 0.659232 0.907598 0.269048
C29   C     C_2   0.875535 0.327448 0.890139 0.264328
C30   C     C_1   0.580846 0.338458 0.087707 0.225891
C31   C     C_1   0.656133 0.737487 0.113895 0.314703
C32   C     C_1   0.076063 0.841692 0.089939 0.213167
C33   C     C_1   0.153703 0.223308 0.112620 0.306018
C34   C     C_1   0.416232 0.333423 0.915344 0.294975
C35   C     C_3   0.550398 0.247593 0.102236 -0.060797
C36   C     C_1   0.443573 0.653459 0.899057 0.370430
C37   C     C_1   0.910844 0.832682 0.914570 0.293222
C38   C     C_1   0.928979 0.155766 0.898673 0.376650
C39   C     C_2   0.482983 0.314995 0.114321 0.313911
C40   C     C_2   0.566489 0.655074 0.105672 0.330102
C41   C     C_2   0.979812 0.813520 0.114744 0.339189
C42   C     C_2   0.055630 0.155630 0.106919 0.314211
C43   C     C_2   0.486814 0.341163 0.571729 0.284223
C44   C     C_2   0.513167 0.671443 0.633599 0.233700
C45   C     C_2   0.989851 0.840421 0.576404 0.273111
C46   C     C_3   0.551356 0.752357 0.103395 -0.035895
C47   C     C_2   0.006674 0.166222 0.621308 0.219471
C48   C     C_2   0.549883 0.278129 0.707321 0.396515
C49   C     C_2   0.551107 0.755741 0.700565 0.365730
C50   C     C_2   0.049875 0.776104 0.708734 0.406275
C51   C     C_2   0.052595 0.247062 0.703215 0.366366
C52   C     C_2   0.653865 0.257940 0.702479 0.264020
C53   C     C_2   0.657392 0.731313 0.699779 0.411345
C54   C     C_2   0.154711 0.754832 0.703589 0.273444
C55   C     C_2   0.156347 0.224848 0.697921 0.405166
C56   C     C_2   0.609686 0.337048 0.614583 0.199304
C57   C     C_3   0.049639 0.748982 0.102668 -0.068849
C58   C     C_2   0.586882 0.660298 0.583571 0.292096
C59   C     C_2   0.112225 0.834892 0.618881 0.209609
C60   C     C_2   0.081690 0.157546 0.572727 0.313942
C61   C     C_1   0.363368 0.308502 0.352368 0.183514
C62   C     C_1   0.398329 0.668319 0.394424 0.246265
C63   C     C_1   0.866586 0.810972 0.357565 0.202370
C64   C     C_1   0.890888 0.172602 0.384536 0.225774
C65   C     C_2   0.486688 0.332031 0.386908 0.187988
C66   C     C_2   0.492608 0.675492 0.369018 0.234277
C67   C     C_2   0.989067 0.831126 0.388221 0.236057
C68   C     C_3   0.052305 0.252702 0.103215 -0.034920
C69   C     C_2   0.986295 0.178898 0.359823 0.225441
C70   C     C_2   0.421738 0.151784 0.448081 0.267330
C71   C     C_2   0.396102 0.831440 0.388170 0.259415
C72   C     C_2   0.919250 0.652429 0.444676 0.194244
C73   C     C_2   0.903098 0.335857 0.402919 0.270664
C74   C     C_2   0.492262 0.160051 0.886880 0.271616
C75   C     C_2   0.449610 0.850542 0.901902 0.281515
C76   C     C_2   0.998271 0.664592 0.890103 0.284876
C77   C     C_2   0.972765 0.347303 0.904318 0.267250
C78   C     C_2   0.512019 0.168939 0.626525 0.387009
C79   C     C_3   0.473528 0.267118 0.058242 -0.054845
C80   C     C_2   0.479377 0.845769 0.571569 0.335154
C81   C     C_2   0.009096 0.667695 0.624106 0.373984
C82   C     C_2   0.988638 0.341997 0.588552 0.370743
C83   C     C_1   0.607322 0.165074 0.594452 0.327045
C84   C     C_1   0.598701 0.833100 0.601909 0.193802
C85   C     C_1   0.106820 0.664085 0.596580 0.317961
C86   C     C_1   0.104622 0.329563 0.611807 0.188170
C87   C     C_1   0.508890 0.162834 0.420959 0.254932
C88   C     C_1   0.515894 0.842435 0.426913 0.210629
C89   C     C_1   0.010192 0.660699 0.423809 0.221994
C90   C     C_3   0.510607 0.698187 0.065604 -0.090032
C91   C     C_1   0.021258 0.343473 0.437849 0.210266
C92   C     C_2   0.451625 0.253867 0.301455 0.325240
C93   C     C_2   0.442577 0.755629 0.297391 0.236242
C94   C     C_2   0.946803 0.752500 0.300734 0.311695
C95   C     C_2   0.942095 0.261332 0.298024 0.243001
C96   C     C_2   0.119615 0.053045 0.438772 0.293149
C97   C     C_2   0.152066 0.947525 0.499315 0.206043
C98   C     C_2   0.761950 0.548640 0.655336 0.334479
C99   C     C_2   0.723776 0.445505 0.620455 0.315624
C100  C     C_1   0.120147 0.043023 0.317869 0.202311
C101  C     C_3   0.972146 0.766349 0.058802 -0.057246
C102  C     C_1   0.114669 0.941893 0.342434 0.214215
C103  C     C_1   0.645471 0.555288 0.491483 0.231082
C104  C     C_1   0.627155 0.455674 0.444562 0.246711
C105  C     C_1   0.264643 0.043749 0.650589 0.384340
C106  C     C_1   0.305851 0.945540 0.685589 0.350346
C107  C     C_1   0.880777 0.555724 0.672519 0.250102
C108  C     C_1   0.866591 0.455688 0.688434 0.230964
C109  C     C_2   0.363692 0.047632 0.533383 0.281214
C110  C     C_2   0.341028 0.944928 0.476954 0.206319
C111  C     C_2   0.710480 0.554037 0.319019 0.215607
C112  C     C_R   0.109088 0.750274 0.500217 0.494222
C113  C     C_3   0.004397 0.202204 0.065488 -0.086637
C114  C     C_2   0.750908 0.455640 0.360994 0.378444
C115  C     C_2   0.252862 0.055282 0.355371 0.414236
C116  C     C_2   0.215993 0.952028 0.326706 0.329039
C117  C     C_2   0.619224 0.552094 0.317648 0.330502
C118  C     C_2   0.633727 0.442684 0.299268 0.375596
C119  C     C_2   0.616981 0.180545 0.093608 0.271849
C120  C     C_2   0.536331 0.851435 0.109225 0.307714
C121  C     C_2   0.119659 0.684756 0.096483 0.267907
C122  C     C_2   0.051627 0.352579 0.111921 0.282627
C123  C     C_2   0.346746 0.445028 0.491749 0.234024
C124  C     C_3   0.573861 0.284180 0.060856 -0.192811
C125  C     C_2   0.325255 0.552813 0.445012 0.355655
C126  C     C_2   0.853800 0.944860 0.506335 0.297888
C127  C     C_2   0.837193 0.054043 0.468119 0.350091
C128  C     C_2   0.371267 0.059245 0.695398 0.206687
C129  C     C_2   0.388301 0.954639 0.672826 0.209118
C130  C     C_2   0.864418 0.551586 0.534029 0.170863
C131  C     C_2   0.886502 0.443619 0.589219 0.294202
C132  C     C_1   0.289052 0.454390 0.670121 0.255185
C133  C     C_1   0.311314 0.555670 0.681130 0.282236
C134  C     C_1   0.779606 0.953411 0.663278 0.249774
C135  C     C_3   0.584698 0.761551 0.058203 -0.139543
C136  C     C_1   0.797915 0.055194 0.673335 0.302355
C137  C     C_2   0.387115 0.446000 0.690206 0.249153
C138  C     C_2   0.390645 0.545640 0.658120 0.360654
C139  C     C_2   0.882523 0.946719 0.695152 0.253338
C140  C     C_2   0.887405 0.047424 0.668722 0.289553
C141  C     C_2   0.226828 0.441391 0.335158 0.153994
C142  C     C_2   0.199429 0.547826 0.314901 0.212691
C143  C     C_2   0.736545 0.941705 0.343783 0.161430
C144  C     C_2   0.711031 0.048249 0.322849 0.280825
C145  C     C_2   0.110881 0.451757 0.325624 0.295383
C146  C     C_3   0.071428 0.787770 0.061639 -0.186437
C147  C     C_2   0.102325 0.553243 0.342965 0.238332
C148  C     C_2   0.613246 0.950945 0.318784 0.299326
C149  C     C_2   0.603690 0.053343 0.330091 0.232129
C150  C     C_1   0.145438 0.446787 0.485028 0.334610
C151  C     C_1   0.161161 0.546952 0.512739 0.257405
C152  C     C_1   0.638950 0.947823 0.471495 0.335688
C153  C     C_1   0.650253 0.048334 0.492940 0.272874
C154  C     C_2   0.540532 0.146312 0.110776 0.273307
C155  C     C_2   0.456753 0.793828 0.096199 0.259589
C156  C     C_2   0.042234 0.647562 0.110381 0.285602
C157  C     C_3   0.086565 0.253666 0.057834 -0.142666
C158  C     C_2   0.961500 0.305474 0.091086 0.248619
C159  C     C_2   0.340781 0.265971 0.877399 0.187365
C160  C     C_2   0.367538 0.697315 0.903602 0.220130
C161  C     C_2   0.839705 0.762672 0.878780 0.186465
C162  C     C_2   0.861485 0.210774 0.903763 0.206637
C163  C     C_2   0.440193 0.229061 0.079282 0.235110
C164  C     C_2   0.487245 0.683607 0.119382 0.120119
C165  C     C_2   0.941047 0.726908 0.081141 0.244174
C166  C     C_2   0.979394 0.193839 0.118920 0.133508
C167  C     C_1   0.517879 0.322110 0.892497 0.290167
C168  C     C_3   0.518009 0.286146 0.598601 -0.015687
C169  C     C_1   0.543605 0.709739 0.908504 0.270836
C170  C     C_1   0.013275 0.827128 0.893385 0.287339
C171  C     C_1   0.037428 0.196848 0.908488 0.280668
C172  C     C_3   0.524323 0.723979 0.608757 -0.070247
C173  C     C_3   0.019174 0.784919 0.601000 -0.019491
C174  C     C_3   0.022583 0.219638 0.605562 -0.055581
C175  C     C_3   0.582245 0.282665 0.603669 -0.084002
C176  C     C_R   0.609399 0.750599 0.500634 0.427234
C177  C     C_3   0.580101 0.717275 0.598441 -0.032918
C178  C     C_3   0.083487 0.780853 0.606151 -0.083325
C179  C     C_3   0.078131 0.213756 0.594595 -0.040478
C180  C     C_3   0.418281 0.267076 0.400562 -0.181894
C181  C     C_3   0.422671 0.720808 0.405723 -0.163624
C182  C     C_3   0.919131 0.768102 0.402647 -0.186253
C183  C     C_3   0.920475 0.224009 0.402914 -0.163532
C184  C     C_3   0.482771 0.190447 0.525499 -0.084351
C185  C     C_3   0.465344 0.808784 0.494241 -0.048022
C186  C     C_3   0.981517 0.689937 0.524435 -0.062185
C187  C     C_R   0.608812 0.250810 0.499497 0.490804
C188  C     C_3   0.970466 0.308619 0.504238 -0.059253
C189  C     C_3   0.452932 0.247818 0.509171 -0.094175
C190  C     C_3   0.450632 0.750240 0.503763 -0.091956
C191  C     C_3   0.953177 0.747608 0.510037 -0.084509
C192  C     C_3   0.951058 0.250078 0.504924 -0.091002
C193  C     C_R   0.392857 0.248150 0.504540 0.498539
C194  C     C_R   0.390745 0.749427 0.499675 0.533183
C195  C     C_R   0.892870 0.748129 0.504709 0.498005
C196  C     C_R   0.891097 0.249722 0.500513 0.528482
C197  C     C_3   0.552519 0.251012 0.503364 -0.074696
C198  C     C_3   0.523316 0.275807 0.944136 -0.165741
C199  C     C_3   0.551046 0.750642 0.499937 -0.108875
C200  C     C_3   0.052887 0.749951 0.504438 -0.096177
C201  C     C_3   0.050941 0.250111 0.500077 -0.111956
C202  C     C_3   0.477490 0.276126 0.399261 -0.070932
C203  C     C_3   0.477564 0.725427 0.394340 -0.066883
C204  C     C_3   0.978039 0.775794 0.400807 -0.065354
C205  C     C_3   0.975354 0.228330 0.391508 -0.065012
C206  C     C_3   0.537914 0.192508 0.512406 -0.077734
C207  C     C_3   0.532799 0.808441 0.506248 -0.118370
C208  C     C_3   0.037747 0.691433 0.513208 -0.074566
C209  C     C_3   0.526197 0.752460 0.940597 -0.170472
C210  C     C_3   0.036902 0.307598 0.514085 -0.118883
C211  C     C_3   0.166749 0.028950 0.426898 -0.057075
C212  C     C_3   0.171801 0.967917 0.443010 -0.088973
C213  C     C_3   0.716279 0.530686 0.543745 -0.060440
C214  C     C_3   0.705358 0.470026 0.528206 -0.080845
C215  C     C_3   0.299298 0.030655 0.614623 -0.114462
C216  C     C_3   0.311029 0.970124 0.617861 -0.073090
C217  C     C_3   0.830687 0.530846 0.570695 -0.093680
C218  C     C_3   0.831599 0.469805 0.583774 -0.069381
C219  C     C_3   0.283292 0.030854 0.455773 -0.038783
C220  C     C_3   0.021207 0.779863 0.944848 -0.161607
C221  C     C_3   0.272643 0.969959 0.440454 -0.079690
C222  C     C_3   0.696453 0.530861 0.380791 -0.068455
C223  C     C_3   0.706532 0.469675 0.385120 -0.058679
C224  C     C_3   0.248704 0.051141 0.497843 -0.085167
C225  C     C_3   0.252205 0.948724 0.500923 -0.079506
C226  C     C_3   0.748322 0.551310 0.498387 -0.099089
C227  C     C_3   0.748439 0.448924 0.499501 -0.101486
C228  C     C_3   0.250706 0.448585 0.498466 -0.113318
C229  C     C_3   0.250061 0.550839 0.495196 -0.073539
C230  C     C_3   0.750486 0.948657 0.498553 -0.125006
C231  C     C_3   0.026665 0.244233 0.940063 -0.175339
C232  C     C_3   0.749718 0.050875 0.495135 -0.122718
C233  C     C_3   0.272002 0.467727 0.438599 -0.107338
C234  C     C_3   0.262764 0.529594 0.425883 -0.040037
C235  C     C_3   0.777879 0.967772 0.446660 -0.077872
C236  C     C_3   0.769786 0.029722 0.434764 -0.044730
C237  C     C_3   0.169915 0.469284 0.439055 -0.068652
C238  C     C_3   0.171680 0.530060 0.447058 -0.109137
C239  C     C_3   0.668165 0.969420 0.431569 -0.069897
C240  C     C_3   0.668886 0.030312 0.437312 -0.098940
C241  C     C_R   0.250119 0.390879 0.500488 0.450068
C242  C     C_3   0.450115 0.248525 0.897312 -0.047695
C243  C     C_R   0.249995 0.608965 0.497185 0.562770
C244  C     C_R   0.750054 0.890904 0.500542 0.445965
C245  C     C_R   0.749963 0.108988 0.497070 0.509918
C246  C     C_3   0.310089 0.469840 0.616200 -0.098772
C247  C     C_3   0.315231 0.530518 0.612569 -0.086446
C248  C     C_3   0.805238 0.969932 0.615868 -0.091693
C249  C     C_3   0.809817 0.030793 0.613144 -0.074444
C250  C     C_R   0.247966 0.109069 0.497762 0.521014
C251  C     C_R   0.252090 0.890829 0.501765 0.507753
C252  C     C_R   0.748808 0.609162 0.498874 0.440257
H1    H     H_    0.383099 0.235793 0.347708 0.174735
H2    H     H_    0.598598 0.802160 0.066357 0.170570
H3    H     H_    0.854439 0.219758 0.953113 0.170195
H4    H     H_    0.384927 0.215796 0.020367 0.168316
H5    H     H_    0.505085 0.705085 0.183883 0.119345
H6    H     H_    0.887929 0.710262 0.022365 0.160480
H7    H     H_    0.997662 0.217941 0.180920 0.128374
H8    H     H_    0.127764 0.779618 0.099291 0.155783
H9    H     H_    0.106284 0.292526 0.066214 0.164922
H10   H     H_    0.401656 0.159033 0.956418 0.103303
H11   H     H_    0.318864 0.784841 0.843579 0.148656
H12   H     H_    0.903018 0.658035 0.952769 0.095746
H13   H     H_    0.829743 0.302806 0.853638 0.139741
H14   H     H_    0.536304 0.329689 0.180755 0.102528
H15   H     H_    0.591209 0.634191 0.174889 0.157675
H16   H     H_    0.032722 0.827229 0.183984 0.123722
H17   H     H_    0.369994 0.738468 0.338358 0.173966
H18   H     H_    0.085768 0.141525 0.183463 0.148452
H19   H     H_    0.469776 0.361177 0.506971 0.111792
H20   H     H_    0.464286 0.649786 0.577141 0.186522
H21   H     H_    0.974751 0.861169 0.513514 0.107225
H22   H     H_    0.954826 0.147833 0.563261 0.134470
H23   H     H_    0.596939 0.300486 0.769836 0.187869
H24   H     H_    0.524061 0.751408 0.725446 0.161906
H25   H     H_    0.096715 0.798281 0.772198 0.191724
H26   H     H_    0.027441 0.240080 0.730374 0.163521
H27   H     H_    0.704342 0.267005 0.725734 0.180898
H28   H     H_    0.881877 0.737988 0.346967 0.155886
H29   H     H_    0.688901 0.759263 0.702349 0.132935
H30   H     H_    0.203000 0.757931 0.718931 0.163214
H31   H     H_    0.189201 0.253359 0.704720 0.134091
H32   H     H_    0.609957 0.353369 0.561398 0.204989
H33   H     H_    0.538884 0.636830 0.531331 0.124621
H34   H     H_    0.108614 0.852495 0.562779 0.173869
H35   H     H_    0.032396 0.135571 0.517534 0.120476
H36   H     H_    0.453815 0.362252 0.376454 0.163953
H37   H     H_    0.547066 0.666102 0.405829 0.123194
H38   H     H_    0.960532 0.862559 0.384433 0.148489
H39   H     H_    0.869365 0.244161 0.338500 0.173387
H40   H     H_    0.039754 0.168072 0.394487 0.152253
H41   H     H_    0.367303 0.162853 0.378128 0.171949
H42   H     H_    0.379008 0.819150 0.318277 0.158642
H43   H     H_    0.866130 0.664516 0.373266 0.163604
H44   H     H_    0.880992 0.323898 0.329687 0.153438
H45   H     H_    0.512277 0.121286 0.912326 0.202746
H46   H     H_    0.452383 0.887860 0.929357 0.154724
H47   H     H_    0.023242 0.627163 0.919108 0.184408
H48   H     H_    0.003810 0.380732 0.949108 0.156084
H49   H     H_    0.476281 0.169564 0.637510 0.183283
H50   H     H_    0.552410 0.249540 0.936485 0.162525
H51   H     H_    0.505381 0.882021 0.586852 0.167727
H52   H     H_    0.971038 0.665487 0.630919 0.142934
H53   H     H_    0.016265 0.377994 0.608065 0.159581
H54   H     H_    0.486913 0.257286 0.290513 0.218790
H55   H     H_    0.475723 0.774905 0.291052 0.188741
H56   H     H_    0.978869 0.728566 0.298924 0.210925
H57   H     H_    0.976102 0.279742 0.292309 0.182131
H58   H     H_    0.071728 0.032913 0.409771 0.183906
H59   H     H_    0.137823 0.907724 0.491359 0.173815
H60   H     H_    0.750333 0.584932 0.669357 0.220889
H61   H     H_    0.529751 0.784889 0.906234 0.175105
H62   H     H_    0.769731 0.420747 0.675225 0.199033
H63   H     H_    0.408598 0.021352 0.582214 0.147190
H64   H     H_    0.363455 0.910452 0.521820 0.216335
H65   H     H_    0.758863 0.574663 0.353366 0.161041
H66   H     H_    0.799285 0.476044 0.395761 0.187488
H67   H     H_    0.204033 0.078135 0.305609 0.146487
H68   H     H_    0.221828 0.915026 0.307066 0.193067
H69   H     H_    0.611320 0.593074 0.308244 0.101597
H70   H     H_    0.620011 0.407778 0.313678 0.092369
H71   H     H_    0.620712 0.179136 0.038935 0.134357
H72   H     H_    0.051689 0.755487 0.937122 0.159079
H73   H     H_    0.505053 0.885116 0.092175 0.182156
H74   H     H_    0.125211 0.688654 0.043962 0.124753
H75   H     H_    0.025557 0.389129 0.095593 0.178756
H76   H     H_    0.351393 0.404076 0.490395 0.183844
H77   H     H_    0.336780 0.537527 0.403137 0.209860
H78   H     H_    0.857782 0.904557 0.497904 0.172463
H79   H     H_    0.865606 0.085295 0.521217 0.116347
H80   H     H_    0.381726 0.094504 0.677461 0.185555
H81   H     H_    0.430659 0.981776 0.704128 0.157406
H82   H     H_    0.863346 0.592282 0.523238 0.157332
H83   H     H_    0.034055 0.273428 0.904687 0.156933
H84   H     H_    0.942805 0.456196 0.646277 0.175140
H85   H     H_    0.406454 0.422628 0.665894 0.197473
H86   H     H_    0.415912 0.524078 0.641139 0.193935
H87   H     H_    0.904160 0.921881 0.675994 0.198788
H88   H     H_    0.917524 0.027120 0.658596 0.178865
H89   H     H_    0.194467 0.408560 0.315977 0.183786
H90   H     H_    0.157926 0.523018 0.252858 0.163303
H91   H     H_    0.704170 0.908253 0.321676 0.169691
H92   H     H_    0.668760 0.023997 0.260116 0.155406
H93   H     H_    0.106076 0.468968 0.268256 0.084837
H94   H     H_    0.629895 0.274427 0.098893 0.161893
H95   H     H_    0.103208 0.579928 0.299593 0.178698
H96   H     H_    0.612178 0.967422 0.264401 0.093319
H97   H     H_    0.609523 0.081474 0.293928 0.177276
H98   H     H_    0.531197 0.150965 0.158349 0.191369
H99   H     H_    0.414552 0.766065 0.061047 0.103041
H100  H     H_    0.032343 0.651243 0.157523 0.182443
H101  H     H_    0.914263 0.282309 0.051617 0.087489
H102  H     H_    0.316378 0.230154 0.838701 0.144905
H103  H     H_    0.359322 0.705110 0.952039 0.168807
H104  H     H_    0.816285 0.727098 0.838449 0.147666
N1    N     N_1   0.586561 0.381105 0.107018 -0.107921
N2    N     N_1   0.378413 0.626983 0.381611 -0.163190
N3    N     N_1   0.825319 0.844093 0.322152 -0.209687
N4    N     N_1   0.866156 0.132575 0.366989 -0.125469
N5    N     N_1   0.661886 0.143874 0.658338 -0.102418
N6    N     N_1   0.649715 0.853327 0.675478 -0.159681
N7    N     N_1   0.161238 0.643119 0.662021 -0.102969
N8    N     N_1   0.156996 0.347811 0.687073 -0.157321
N9    N     N_1   0.486858 0.139250 0.350853 -0.114715
N10   N     N_1   0.500712 0.868472 0.363287 -0.125749
N11   N     N_1   0.989203 0.635944 0.355480 -0.149891
N12   N     N_1   0.712007 0.719054 0.157245 -0.178090
N13   N     N_1   0.006865 0.371014 0.376490 -0.131048
N14   N     N_1   0.080869 0.053569 0.231868 -0.179765
N15   N     N_1   0.069681 0.921687 0.264638 -0.178401
N16   N     N_1   0.590298 0.573590 0.451625 -0.201580
N17   N     N_1   0.566212 0.444892 0.381517 -0.124352
N18   N     N_1   0.239945 0.054216 0.681561 -0.036268
N19   N     N_1   0.302331 0.926716 0.738700 -0.139820
N20   N     N_1   0.921187 0.574517 0.752394 -0.168285
N21   N     N_1   0.896546 0.445206 0.771530 -0.158193
N22   N     N_1   0.275003 0.442546 0.714839 -0.162007
N23   N     N_1   0.079957 0.883802 0.111503 -0.165738
N24   N     N_1   0.307580 0.574639 0.733749 -0.154885
N25   N     N_1   0.761996 0.940660 0.703080 -0.168382
N26   N     N_1   0.788121 0.073539 0.719599 -0.164684
N27   N     N_1   0.126862 0.430576 0.521638 -0.203760
N28   N     N_1   0.150590 0.558862 0.561408 -0.185445
N29   N     N_1   0.616404 0.932387 0.503087 -0.200943
N30   N     N_1   0.633317 0.061456 0.533276 -0.194956
N31   N     N_1   0.514566 0.357960 0.852798 -0.142477
N32   N     N_1   0.557548 0.676875 0.883156 -0.094166
N33   N     N_1   0.008353 0.863757 0.853928 -0.151304
N34   N     N_1   0.206214 0.199898 0.155144 -0.171576
N35   N     N_1   0.046319 0.160355 0.883497 -0.091272
N36   N     N_1   0.412598 0.376366 0.897891 -0.136415
N37   N     N_1   0.446629 0.616249 0.869255 -0.090392
N38   N     N_1   0.904587 0.875745 0.896233 -0.141090
N39   N     N_1   0.924756 0.116104 0.868287 -0.091028
N40   N     N_1   0.320279 0.340519 0.314624 -0.208479
O1    O     O_3   0.249990 0.249990 0.500000 -0.484238
O2    O     O_R   0.249990 0.866860 0.561260 -0.523858
O3    O     O_2   0.687349 0.455477 0.637642 -0.404857
O4    O     O_2   0.379769 0.092413 0.542594 -0.497292
O5    O     O_2   0.367776 0.960597 0.447334 -0.395787
O6    O     O_2   0.667485 0.546762 0.226620 -0.385936
O7    O     O_2   0.731803 0.422866 0.299032 -0.373491
O8    O     O_2   0.282671 0.048056 0.326928 -0.353536
O9    O     O_2   0.164521 0.977519 0.254603 -0.450009
O10   O     O_2   0.566238 0.526312 0.279088 -0.392834
O11   O     O_2   0.592382 0.457331 0.210378 -0.337412
O12   O     O_2   0.673967 0.176289 0.184099 -0.423685
O13   O     O_R   0.749990 0.633140 0.561260 -0.533162
O14   O     O_2   0.601838 0.856229 0.167086 -0.520432
O15   O     O_2   0.175486 0.676946 0.186534 -0.417938
O16   O     O_2   0.117442 0.351774 0.169678 -0.524191
O17   O     O_2   0.400865 0.469375 0.530708 -0.497217
O18   O     O_2   0.359179 0.589997 0.498147 -0.486476
O19   O     O_2   0.910541 0.968502 0.561338 -0.458310
O20   O     O_2   0.857413 0.040880 0.428155 -0.359694
O21   O     O_2   0.416207 0.045404 0.785183 -0.470060
O22   O     O_2   0.405523 0.909817 0.685864 -0.427136
O23   O     O_2   0.898615 0.526238 0.524723 -0.462114
O24   O     O_R   0.749990 0.366860 0.561260 -0.569309
O25   O     O_2   0.871730 0.407675 0.536232 -0.408209
O26   O     O_2   0.431776 0.455610 0.782009 -0.411997
O27   O     O_2   0.425675 0.581397 0.716345 -0.395935
O28   O     O_2   0.924341 0.957661 0.786065 -0.411721
O29   O     O_2   0.918838 0.083203 0.727902 -0.414554
O30   O     O_2   0.232566 0.453155 0.277045 -0.442373
O31   O     O_2   0.193466 0.592794 0.292687 -0.424754
O32   O     O_2   0.746169 0.954058 0.290263 -0.398912
O33   O     O_2   0.708584 0.092780 0.301125 -0.433724
O34   O     O_2   0.064748 0.420100 0.294863 -0.371660
O35   O     O_R   0.102520 0.280640 0.438750 -0.550310
O36   O     O_2   0.042058 0.542177 0.305859 -0.413054
O37   O     O_2   0.566214 0.919408 0.284861 -0.383164
O38   O     O_2   0.541261 0.041676 0.283317 -0.414345
O39   O     O_2   0.544861 0.102570 0.093030 -0.465531
O40   O     O_2   0.468738 0.821737 0.159678 -0.412535
O41   O     O_2   0.047035 0.604230 0.091645 -0.460537
O42   O     O_2   0.977358 0.333977 0.156692 -0.400456
O43   O     O_2   0.305081 0.294611 0.879997 -0.396276
O44   O     O_2   0.313152 0.687562 0.813815 -0.499212
O45   O     O_2   0.803840 0.789035 0.884249 -0.387858
O46   O     O_R   0.102520 0.719360 0.438750 -0.546932
O47   O     O_2   0.805820 0.204171 0.813232 -0.503252
O48   O     O_2   0.471894 0.215916 0.165646 -0.492520
O49   O     O_2   0.453387 0.644432 0.096847 -0.417819
O50   O     O_2   0.972160 0.716210 0.168289 -0.495492
O51   O     O_2   0.942280 0.156981 0.097795 -0.420519
O52   O     O_R   0.602520 0.780640 0.438750 -0.546235
O53   O     O_R   0.602520 0.219360 0.438750 -0.546784
O54   O     O_R   0.336190 0.219350 0.438710 -0.558154
O55   O     O_R   0.336190 0.780650 0.438710 -0.480159
O56   O     O_R   0.836190 0.719350 0.438710 -0.575665
O57   O     O_3   0.249990 0.750010 0.500000 -0.480021
O58   O     O_R   0.836190 0.280650 0.438710 -0.470623
O59   O     O_R   0.163790 0.219360 0.561280 -0.528558
O60   O     O_R   0.163790 0.780640 0.561280 -0.574387
O61   O     O_R   0.663790 0.719360 0.561280 -0.547381
O62   O     O_R   0.663790 0.280640 0.561280 -0.570229
O63   O     O_R   0.397470 0.280620 0.561260 -0.475490
O64   O     O_R   0.397470 0.719380 0.561260 -0.558847
O65   O     O_R   0.897470 0.780620 0.561260 -0.473824
O66   O     O_R   0.897470 0.219380 0.561260 -0.581749
O67   O     O_R   0.188730 0.366850 0.438750 -0.498129
O68   O     O_3   0.749990 0.749990 0.500000 -0.473486
O69   O     O_R   0.188730 0.633150 0.438750 -0.556095
O70   O     O_R   0.688730 0.866850 0.438750 -0.491818
O71   O     O_R   0.688730 0.133150 0.438750 -0.544258
O72   O     O_R   0.249980 0.133140 0.438710 -0.552176
O73   O     O_R   0.249980 0.866860 0.438710 -0.574509
O74   O     O_R   0.749980 0.633140 0.438710 -0.602058
O75   O     O_R   0.749980 0.366860 0.438710 -0.463519
O76   O     O_R   0.102500 0.280640 0.266310 -0.494453
O77   O     O_R   0.102500 0.719360 0.266310 -0.503505
O78   O     O_R   0.602500 0.780640 0.266310 -0.484723
O79   O     O_3   0.749990 0.250010 0.500000 -0.479810
O80   O     O_R   0.602500 0.219360 0.266310 -0.511102
O81   O     O_R   0.336220 0.219350 0.733700 -0.524488
O82   O     O_R   0.336220 0.780650 0.733700 -0.515675
O83   O     O_R   0.836220 0.719350 0.733700 -0.521775
O84   O     O_R   0.836220 0.280650 0.733700 -0.511363
O85   O     O_R   0.163750 0.219360 0.266290 -0.564899
O86   O     O_R   0.163750 0.780640 0.266290 -0.544186
O87   O     O_R   0.663750 0.719360 0.266290 -0.558662
O88   O     O_R   0.663750 0.280640 0.266290 -0.540817
O89   O     O_R   0.397490 0.280620 0.733700 -0.506778
O90   O     O_R   0.311270 0.366840 0.561280 -0.584521
O91   O     O_R   0.397490 0.719380 0.733700 -0.532332
O92   O     O_R   0.897490 0.780620 0.733700 -0.502695
O93   O     O_R   0.897490 0.219380 0.733700 -0.527673
O94   O     O_2   0.370649 0.133247 0.831679 -0.413689
O95   O     O_2   0.347525 0.851340 0.909794 -0.434851
O96   O     O_2   0.877689 0.631669 0.832409 -0.418393
O97   O     O_2   0.867601 0.372423 0.897306 -0.436766
O98   O     O_2   0.430223 0.336556 0.087767 -0.374118
O99   O     O_2   0.587644 0.644329 0.066245 -0.440564
O100  O     O_2   0.926232 0.834746 0.086258 -0.356469
O101  O     O_R   0.311270 0.633160 0.561280 -0.454813
O102  O     O_2   0.068424 0.135491 0.061725 -0.453223
O103  O     O_2   0.483469 0.364942 0.625179 -0.441260
O104  O     O_2   0.561629 0.651601 0.717834 -0.379797
O105  O     O_2   0.986269 0.863791 0.629944 -0.440028
O106  O     O_2   0.054058 0.142299 0.700703 -0.393139
O107  O     O_2   0.523491 0.250478 0.726902 -0.467715
O108  O     O_2   0.599963 0.786911 0.746049 -0.434557
O109  O     O_2   0.022602 0.748098 0.726473 -0.455643
O110  O     O_2   0.102077 0.277852 0.751081 -0.446639
O111  O     O_2   0.657773 0.228382 0.757277 -0.435481
O112  O     O_R   0.811270 0.866840 0.561280 -0.588645
O113  O     O_2   0.686427 0.709246 0.779637 -0.368486
O114  O     O_2   0.160598 0.729704 0.764776 -0.437053
O115  O     O_2   0.184477 0.199906 0.774660 -0.376009
O116  O     O_2   0.635299 0.363220 0.688482 -0.425393
O117  O     O_2   0.645502 0.639220 0.632404 -0.433962
O118  O     O_2   0.141378 0.859725 0.695758 -0.419201
O119  O     O_2   0.139148 0.135222 0.619568 -0.359519
O120  O     O_2   0.528393 0.343820 0.379924 -0.520281
O121  O     O_2   0.443237 0.647926 0.299466 -0.378614
O122  O     O_2   0.028067 0.841186 0.375584 -0.516794
O123  O     O_R   0.811270 0.133160 0.561280 -0.524584
O124  O     O_2   0.934776 0.153454 0.287814 -0.384881
O125  O     O_2   0.435366 0.106170 0.460194 -0.374619
O126  O     O_2   0.358996 0.864640 0.379046 -0.435597
O127  O     O_2   0.930441 0.606518 0.456757 -0.414266
O128  O     O_2   0.874496 0.373197 0.401633 -0.377495
O129  O     O_2   0.484741 0.177514 0.818478 -0.488311
O130  O     O_2   0.448401 0.849558 0.834833 -0.441961
O131  O     O_2   0.988522 0.682700 0.820175 -0.468249
O132  O     O_2   0.951209 0.345245 0.820290 -0.477163
O133  O     O_2   0.570378 0.147336 0.691873 -0.378304
O134  O     O_R   0.249990 0.133140 0.561260 -0.470699
O135  O     O_2   0.456460 0.838221 0.609729 -0.478264
O136  O     O_2   0.069643 0.649942 0.694304 -0.376664
O137  O     O_2   0.967750 0.331893 0.628731 -0.452028
O138  O     O_2   0.391195 0.235761 0.232031 -0.437201
O139  O     O_2   0.377418 0.753137 0.219635 -0.446701
O140  O     O_2   0.885480 0.763413 0.218728 -0.403892
O141  O     O_2   0.876568 0.262402 0.221386 -0.449984
O142  O     O_2   0.127537 0.096475 0.467633 -0.484124
O143  O     O_2   0.151527 0.973162 0.553603 -0.479887
O144  O     O_2   0.810765 0.523823 0.731676 -0.431737
Zn1   Zn    Zn3+2 0.337540 0.293760 0.587540 1.018029
Zn2   Zn    Zn3+2 0.249980 0.793780 0.412450 1.028129
Zn3   Zn    Zn3+2 0.749980 0.706220 0.412450 0.935546
Zn4   Zn    Zn3+2 0.749980 0.293780 0.412450 1.075586
Zn5   Zn    Zn3+2 0.250000 0.206220 0.587540 1.035709
Zn6   Zn    Zn3+2 0.250000 0.793780 0.587540 1.015980
Zn7   Zn    Zn3+2 0.750000 0.706220 0.587540 0.989113
Zn8   Zn    Zn3+2 0.750000 0.293780 0.587540 1.003353
Zn9   Zn    Zn3+2 0.337540 0.706240 0.587540 1.067768
Zn10  Zn    Zn3+2 0.837540 0.793760 0.587540 1.017005
Zn11  Zn    Zn3+2 0.837540 0.206240 0.587540 1.027552
Zn12  Zn    Zn3+2 0.162450 0.293770 0.412470 1.010044
Zn13  Zn    Zn3+2 0.162450 0.706230 0.412470 1.021438
Zn14  Zn    Zn3+2 0.662450 0.793770 0.412470 1.011754
Zn15  Zn    Zn3+2 0.662450 0.206230 0.412470 1.011216
Zn16  Zn    Zn3+2 0.249980 0.206220 0.412450 0.979438

loop_
_geom_bond_atom_site_label_1
_geom_bond_atom_site_label_2
_ccdc_geom_bond_type
C172  C177  S    
C54   H30   S    
C168  C175  S    
C157  H9    S    
C105  C215  S    
C97   C212  S    
C185  C207  S    
C160  H103  S    
C156  H100  S    
C161  H104  S    
C194  O64   A    
C117  C222  S    
C185  C190  S    
C43   C168  S    
C198  C242  S    
C198  H50   S    
C50   H25   S    
O79   Zn4   S    
C149  H97   S    
C10   O83   A    
C7    O80   A    
C35   C124  S    
C83   C206  S    
C12   C74   S    
C37   N38   T    
C56   O116  D    
C38   N39   T    
O79   Zn8   S    
C82   O137  D    
O73   Zn2   S    
C221  C225  S    
C245  O71   A    
O75   Zn4   S    
C141  H89   S    
C116  C221  S    
C64   N4    T    
C213  C226  S    
C64   C183  S    
C188  C210  S    
C137  H85   S    
C11   O84   A    
C2    C22   S    
C114  C223  S    
O56   Zn3   S    
C129  H81   S    
C43   H19   S    
O79   Zn15  S    
C217  C226  S    
C44   H20   S    
C81   O136  D    
C146  C220  S    
C93   H55   S    
C1    C201  S    
C225  C251  S    
C96   C211  S    
C94   H56   S    
C183  C192  S    
C55   H31   S    
C21   C159  S    
C125  H77   S    
C197  C206  S    
C91   C210  S    
C134  C248  S    
C141  O30   D    
C171  C231  S    
C250  O134  A    
C92   O138  D    
C139  O28   D    
C47   H22   S    
C94   O140  D    
O46   Zn13  S    
C145  O34   D    
C113  C166  S    
O24   Zn8   S    
O1    Zn12  S    
C182  H28   S    
C172  C190  S    
C23   C37   S    
C173  C191  S    
C54   C178  S    
C90   C164  S    
C142  O31   D    
C62   N2    T    
C130  O23   D    
C226  C252  S    
C215  C216  S    
C44   C172  S    
C45   C173  S    
C106  N19   T    
C181  C190  S    
O88   Zn4   S    
C108  N21   T    
C16   C20   S    
C21   C79   S    
O61   Zn7   S    
C52   C175  S    
C140  H88   S    
O53   Zn15  S    
C212  C225  S    
C82   H53   S    
O79   Zn11  S    
C229  C234  S    
C12   C242  S    
C131  C218  S    
C176  C199  S    
C76   O131  D    
C73   C188  S    
C145  H93   S    
C36   N37   T    
C147  C238  S    
C161  O45   D    
C6    O78   A    
C20   C68   S    
C99   H62   S    
C53   C177  S    
C180  H1    S    
C60   H35   S    
C117  O10   D    
C186  C208  S    
C22   C36   S    
C27   O95   D    
C88   N10   T    
C75   H46   S    
C194  O55   A    
C183  H39   S    
C241  O90   A    
C62   C181  S    
C23   C101  S    
C129  C216  S    
C170  N33   T    
O90   Zn1   S    
C136  N26   T    
C167  C198  S    
C78   C184  S    
C93   C203  S    
C47   C174  S    
C230  C244  S    
C40   H15   S    
C32   C146  S    
O57   Zn6   S    
C196  O58   A    
C12   C26   S    
O60   Zn6   S    
C244  O70   A    
O65   Zn10  S    
C110  C221  S    
C112  C200  S    
C80   H51   S    
C50   C173  S    
C138  O27   D    
C63   N3    T    
C51   C174  S    
C146  H8    S    
O68   Zn14  S    
C24   C231  S    
O78   Zn14  S    
O57   Zn13  S    
C60   C179  S    
C158  O42   D    
C150  N27   T    
C50   O109  D    
O112  Zn10  S    
O91   Zn9   S    
C180  C189  S    
O101  Zn9   S    
C118  H70   S    
C223  C227  S    
C121  H74   S    
C228  C246  S    
C243  O69   A    
C164  O49   D    
C123  H76   S    
C232  C236  S    
C13   C23   S    
C70   O125  D    
C121  O15   D    
C219  C224  S    
C107  C217  S    
C122  O16   D    
C175  C197  S    
C151  N28   T    
C156  O41   D    
C125  C234  S    
C69   O124  D    
C233  C234  S    
C14   C27   S    
C20   C122  S    
C224  C250  S    
C9    O91   A    
O63   Zn1   S    
C120  H73   S    
O89   Zn1   S    
C237  C238  S    
C171  N35   T    
C133  N24   T    
C230  C239  S    
C181  C203  S    
C71   C185  S    
C2    C14   S    
C30   N1    T    
O68   Zn10  S    
C111  H65   S    
C181  H17   S    
C251  O73   A    
O52   Zn14  S    
C118  O11   D    
C52   O111  D    
C250  O72   A    
C228  C241  S    
O72   Zn16  S    
C197  C202  S    
C159  H102  S    
C4    C68   S    
O68   Zn3   S    
C217  C218  S    
C85   N7    T    
C47   O106  D    
C8    O81   A    
C82   C188  S    
C111  C222  S    
C42   H18   S    
C169  N32   T    
O68   Zn7   S    
C148  O37   D    
C25   C38   S    
O81   Zn5   S    
C200  C204  S    
C150  C237  S    
O64   Zn9   S    
C214  C227  S    
C228  C233  S    
C52   H27   S    
C131  H84   S    
C251  O2    A    
C70   C184  S    
C48   O107  D    
C119  H71   S    
C112  O46   A    
C183  C205  S    
C176  O52   A    
C94   C204  S    
C7    O88   A    
C3    O75   A    
C81   C186  S    
C92   C202  S    
C5    O86   A    
C157  C231  S    
C151  C238  S    
C246  C247  S    
C19   C121  S    
C2    C209  S    
O59   Zn5   S    
C139  H87   S    
C55   C179  S    
C59   C178  S    
O86   Zn2   S    
C30   C124  S    
C220  H72   S    
O71   Zn15  S    
C144  O33   D    
C143  O32   D    
C76   H47   S    
C53   H29   S    
C66   O121  D    
C57   C101  S    
C100  C211  S    
C69   C205  S    
C188  C192  S    
O77   Zn13  S    
C252  O74   A    
C132  C246  S    
C152  C239  S    
C22   C160  S    
C173  C178  S    
C45   H21   S    
C29   O97   D    
C74   O129  D    
C15   C76   S    
C13   C220  S    
C191  C195  S    
C96   H58   S    
O92   Zn10  S    
C229  C247  S    
C189  C193  S    
C65   O120  D    
C134  N25   T    
C200  C208  S    
C177  C199  S    
O57   Zn9   S    
C201  C205  S    
C147  O36   D    
C163  O48   D    
C20   C158  S    
C232  C249  S    
C2    C9    S    
C152  N29   T    
C42   O102  D    
C72   O127  D    
C91   N13   T    
C174  C192  S    
O2    Zn6   S    
C199  C203  S    
C73   O128  D    
O83   Zn7   S    
C29   H13   S    
C239  C240  S    
C195  O65   A    
C34   N36   T    
C115  H67   S    
C215  C224  S    
C10   O92   A    
C165  O50   D    
C116  H68   S    
C77   O132  D    
C213  C214  S    
C19   C57   S    
C15   C19   S    
C142  H90   S    
C3    O24   A    
C73   H44   S    
C182  C204  S    
C192  C196  S    
C71   O126  D    
C180  C202  S    
C147  H95   S    
C17   C154  S    
O80   Zn15  S    
C245  O123  A    
C124  C198  S    
C184  C206  S    
C155  O40   D    
C16   C77   S    
C70   H41   S    
O1    Zn1   S    
C186  C191  S    
C95   H57   S    
C138  C247  S    
C244  O112  A    
C46   C135  S    
C176  O61   A    
C86   N8    T    
C65   C202  S    
C179  C201  S    
C66   H37   S    
C12   C17   S    
C154  H98   S    
C235  C236  S    
O67   Zn12  S    
C89   N11   T    
C106  C216  S    
C68   C113  S    
C108  C218  S    
C103  N16   T    
C57   C146  S    
C126  H78   S    
O62   Zn8   S    
C19   C156  S    
C127  H79   S    
C139  C248  S    
C18   C46   S    
C33   C157  S    
C129  O22   D    
C109  O4    D    
C93   O139  D    
C144  C236  S    
C31   C135  S    
C21   C34   S    
C159  O43   D    
C160  O44   D    
C39   O98   D    
C168  C189  S    
O84   Zn8   S    
C39   C79   S    
C11   O93   A    
O70   Zn14  S    
C87   C206  S    
C140  O29   D    
C109  C219  S    
O87   Zn3   S    
C122  H75   S    
C49   C172  S    
C211  C212  S    
C27   H11   S    
C22   C90   S    
C230  C235  S    
C126  O19   D    
C101  C165  S    
O85   Zn16  S    
C72   C186  S    
C133  C247  S    
C130  H82   S    
C60   O119  D    
O54   Zn16  S    
C11   C24   S    
C135  C209  S    
C98   C213  S    
C28   O96   D    
C40   O99   D    
C98   O144  D    
C136  C249  S    
C182  C191  S    
C88   C207  S    
C68   C157  S    
C110  O5    D    
C3    C227  S    
C218  C227  S    
C248  C249  S    
C166  O51   D    
C178  C200  S    
C153  C240  S    
C118  C223  S    
C9    O82   A    
C5    O77   A    
C86   C210  S    
C162  H3    S    
C95   O141  D    
C31   N12   T    
C59   O118  D    
O1    Zn5   S    
C46   C90   S    
C99   C214  S    
O74   Zn3   S    
O82   Zn6   S    
C216  C225  S    
C69   H40   S    
C5    C57   S    
C56   H32   S    
C14   C75   S    
C26   O94   D    
C228  C237  S    
C154  O39   D    
C187  O53   A    
C102  C212  S    
C15   C28   S    
O13   Zn7   S    
C211  C224  S    
C241  O67   A    
C137  O26   D    
C41   C101  S    
O55   Zn2   S    
C124  H94   S    
C72   H43   S    
C17   C119  S    
C58   O117  D    
C104  C214  S    
O93   Zn11  S    
C100  N14   T    
C61   C180  S    
C128  H80   S    
C111  O6    D    
O123  Zn11  S    
C41   H16   S    
C17   C35   S    
C40   C90   S    
C229  C238  S    
C243  O101  A    
C115  O8    D    
C80   O135  D    
C18   C155  S    
C83   N5    T    
C21   C242  S    
C95   C205  S    
C78   H49   S    
C148  C239  S    
C8    O89   A    
C14   C18   S    
C32   N23   T    
C6    O87   A    
C67   O122  D    
C120  O14   D    
O57   Zn2   S    
C39   H14   S    
C4    O85   A    
C67   H38   S    
C127  C236  S    
C92   H54   S    
C187  C197  S    
C65   H36   S    
C153  N30   T    
C232  C245  S    
C25   C113  S    
C229  C243  S    
C105  N18   T    
C89   C208  S    
C117  H69   S    
C222  C226  S    
C143  C235  S    
C107  N20   T    
C149  C240  S    
C165  H6    S    
C44   O104  D    
C104  N17   T    
C35   C79   S    
C119  O12   D    
C144  H92   S    
C1    O35   A    
C67   C204  S    
C123  C233  S    
O1    Zn16  S    
C49   H24   S    
O76   Zn12  S    
C145  C237  S    
C80   C185  S    
C61   N40   T    
C114  H66   S    
C75   O130  D    
O69   Zn13  S    
C103  C213  S    
C155  H99   S    
C193  O63   A    
C135  H2    S    
C63   C182  S    
C109  H63   S    
O35   Zn12  S    
C148  H96   S    
C158  H101  S    
C115  C219  S    
C222  C223  S    
C209  H61   S    
C149  O38   D    
C55   O115  D    
O58   Zn4   S    
C196  O66   A    
C59   H34   S    
C49   O108  D    
C56   C175  S    
C141  C233  S    
C195  O56   A    
C24   C25   S    
C131  O25   D    
C193  O54   A    
C78   O133  D    
C16   C29   S    
C28   H12   S    
C127  O20   D    
C112  O60   A    
C51   H26   S    
C41   O100  D    
C130  C217  S    
C4    O76   A    
C219  C221  S    
C42   C113  S    
C48   C168  S    
C8    C242  S    
C25   C162  S    
C169  C209  S    
C199  C207  S    
C126  C235  S    
C187  O62   A    
O66   Zn11  S    
C167  N31   T    
C71   H42   S    
C77   H48   S    
C87   N9    T    
C66   C203  S    
C143  H91   S    
C231  H83   S    
C114  O7    D    
C97   H59   S    
C13   C15   S    
C98   H60   S    
C162  O47   D    
C128  O21   D    
C81   H52   S    
C18   C120  S    
C201  C210  S    
C230  C248  S    
C99   O3    D    
C51   O110  D    
C102  N15   T    
C6    C46   S    
C125  O18   D    
C7    C35   S    
C33   N34   T    
C138  H86   S    
C140  C249  S    
C79   C163  S    
C10   C13   S    
C84   N6    T    
C26   H10   S    
C166  H7    S    
C97   O143  D    
C132  N22   T    
C137  C246  S    
C54   O114  D    
C84   C207  S    
C1    O59   A    
C53   O113  D    
C252  O13   A    
C116  O9    D    
C110  H64   S    
C58   C177  S    
C163  H4    S    
O134  Zn5   S    
C190  C194  S    
C128  C215  S    
C48   H23   S    
C142  C234  S    
C16   C24   S    
C170  C220  S    
C45   O105  D    
C232  C240  S    
C184  C189  S    
C74   H45   S    
C123  O17   D    
C43   O103  D    
C164  H5    S    
C174  C179  S    
C96   O142  D    
C85   C208  S    
C23   C161  S    
C58   H33   S    
