data_mof_unit_45756.cif
_audit_creation_date              2012-12-11T15:55:49-0500
_audit_creation_method            fapswitch 2.2
_symmetry_space_group_name_H-M    P1
_symmetry_Int_Tables_number       1
_space_group_crystal_system       triclinic
_cell_length_a                    11.140097
_cell_length_b                    11.12939
_cell_length_c                    18.733592
_cell_angle_alpha                 90.116723
_cell_angle_beta                  89.476492
_cell_angle_gamma                 58.422697
_cell_volume                      1978.58864552

loop_
_atom_site_label
_atom_site_type_symbol
_atom_type_description
_atom_site_fract_x
_atom_site_fract_y
_atom_site_fract_z
_atom_type_partial_charge
C1    C     C_R   0.388419 0.708182 0.390134 0.563838
C2    C     C_R   0.613102 0.132875 0.155081 0.065846
C3    C     C_R   0.349354 0.326306 0.165162 0.010895
C4    C     C_R   0.479425 0.229691 0.272765 -0.131876
C5    C     C_R   0.479039 0.231443 0.198191 0.000183
C6    C     C_R   0.022088 0.668153 0.305504 -0.079001
C7    C     C_R   0.910104 0.763613 0.349756 -0.101357
C8    C     C_R   0.641990 0.179195 0.089918 -0.019701
C9    C     C_R   0.755581 0.087989 0.045983 -0.078835
C10   C     C_R   0.229938 0.423154 0.206358 -0.161444
C11   C     C_R   0.233401 0.423930 0.280948 -0.044945
C12   C     C_R   0.387209 0.352317 0.388008 0.537081
C13   C     C_R   0.884393 0.719820 0.414781 -0.101217
C14   C     C_R   0.967190 0.578973 0.434734 -0.088898
C15   C     C_R   0.073105 0.481262 0.388690 -0.062852
C16   C     C_R   0.105372 0.525198 0.324257 0.046525
C17   C     C_R   0.361711 0.329418 0.313976 0.008203
C18   C     C_R   0.963064 0.302467 0.195729 0.022908
C19   C     C_R   0.955439 0.199014 0.232663 -0.012397
C20   C     C_R   0.929459 0.203334 0.306633 -0.010515
C21   C     C_R   0.878845 0.441478 0.304384 -0.101861
C22   C     C_R   0.914025 0.431243 0.232570 0.081471
C23   C     C_R   0.784904 0.375437 0.405277 0.546719
C24   C     C_3   0.835525 0.180737 0.219627 -0.040389
C25   C     C_3   0.840116 0.142497 0.295920 -0.254709
C26   C     C_R   0.879507 0.331438 0.342273 0.002713
C27   C     C_R   0.365184 0.813895 0.169230 0.051486
C28   C     C_R   0.432325 0.852605 0.217921 0.059980
C29   C     C_R   0.448873 0.811546 0.288781 0.060437
C30   C     C_R   0.332899 0.685016 0.264860 -0.136074
C31   C     C_R   0.320816 0.722951 0.192747 -0.118144
C32   C     C_3   0.395873 0.996839 0.236967 -0.275152
C33   C     C_3   0.418264 0.952175 0.314227 -0.271942
C34   C     C_R   0.341650 0.771920 0.603278 0.549643
C35   C     C_R   0.390192 0.735703 0.314189 0.028193
C36   C     C_R   0.296952 0.303276 0.807402 0.016542
C37   C     C_R   0.401970 0.188788 0.768645 0.043298
C38   C     C_R   0.412744 0.193646 0.696274 0.028690
C39   C     C_R   0.195594 0.420297 0.695235 -0.167810
C40   C     C_R   0.185136 0.414092 0.769783 -0.162583
C41   C     C_3   0.557389 0.105874 0.779615 -0.277215
C42   C     C_3   0.571274 0.109728 0.699712 -0.269911
C43   C     C_R   0.318910 0.316835 0.659519 0.013563
C44   C     C_R   0.856010 0.315319 0.827849 0.013978
C45   C     C_R   0.368123 0.348690 0.594550 0.544726
C46   C     C_R   0.861774 0.419269 0.789593 0.044513
C47   C     C_R   0.851997 0.426999 0.717229 0.031153
C48   C     C_R   0.848043 0.212504 0.714344 -0.162228
C49   C     C_R   0.860910 0.204001 0.789192 -0.162795
C50   C     C_3   0.781543 0.575098 0.800537 -0.275891
C51   C     C_3   0.769787 0.585501 0.720324 -0.271872
C52   C     C_R   0.831053 0.331932 0.678721 0.017987
C53   C     C_R   0.292287 0.866482 0.820904 0.016870
C54   C     C_R   0.181882 0.872205 0.783671 0.037200
C55   C     C_R   0.187601 0.859892 0.710436 0.027773
C56   C     C_R   0.765293 0.375259 0.609313 0.541794
C57   C     C_R   0.399607 0.867652 0.707319 -0.165785
C58   C     C_R   0.396424 0.874621 0.781679 -0.159226
C59   C     C_3   0.117685 0.784640 0.792970 -0.283144
C60   C     C_3   0.124661 0.769575 0.712523 -0.269194
C61   C     C_R   0.303412 0.844355 0.671756 0.016887
C62   C     C_R   0.977422 0.288863 0.117098 0.585483
C63   C     C_R   0.326272 0.294008 0.093007 0.521301
C64   C     C_R   0.309365 0.894478 0.103617 0.536519
C65   C     C_R   0.889858 0.306605 0.902989 0.553715
C66   C     C_R   0.292929 0.285027 0.883607 0.544712
C67   C     C_R   0.851158 0.951772 0.068285 -0.097390
C68   C     C_R   0.274056 0.898647 0.896630 0.546231
C69   C     C_R   0.832003 0.906718 0.134327 -0.113445
C70   C     C_R   0.712316 0.994256 0.176911 -0.110037
Cr1   Cr    Cr6+3 0.601740 0.606840 0.505840 0.992101
Cr2   Cr    Cr6+3 0.291500 0.601560 0.495070 1.013215
Cr3   Cr    Cr6+3 0.606780 0.291630 0.499130 0.997209
Cr4   Cr    Cr6+3 0.062440 0.063060 0.008240 0.983527
Cr5   Cr    Cr6+3 0.062950 0.375000 0.998920 1.028270
Cr6   Cr    Cr6+3 0.374550 0.061770 0.992470 1.025076
H1    H     H_    0.574707 0.152823 0.298937 0.119539
H2    H     H_    0.799282 0.794752 0.449316 0.100737
H3    H     H_    0.946927 0.544553 0.484973 0.123840
H4    H     H_    0.132798 0.371471 0.404174 0.095330
H5    H     H_    0.826413 0.546816 0.326578 0.188881
H6    H     H_    0.870673 0.094184 0.181397 0.170944
H7    H     H_    0.735398 0.199432 0.321502 0.189559
H8    H     H_    0.901296 0.027111 0.304867 0.110916
H9    H     H_    0.292696 0.621147 0.282923 0.142524
H10   H     H_    0.770283 0.124141 0.995076 0.129699
H11   H     H_    0.267273 0.690169 0.156900 0.131914
H12   H     H_    0.285245 0.079315 0.224415 0.124621
H13   H     H_    0.476930 0.012027 0.214094 0.168646
H14   H     H_    0.512511 0.946448 0.337612 0.144646
H15   H     H_    0.320452 0.009581 0.347367 0.143185
H16   H     H_    0.115491 0.512172 0.667242 0.119467
H17   H     H_    0.094983 0.498603 0.797850 0.127797
H18   H     H_    0.596889 0.998180 0.800117 0.132523
H19   H     H_    0.595388 0.166634 0.808799 0.135466
H20   H     H_    0.620098 0.170766 0.684188 0.168906
H21   H     H_    0.842988 0.872000 0.334132 0.093687
H22   H     H_    0.618196 0.004250 0.673864 0.123236
H23   H     H_    0.843078 0.131096 0.685384 0.121532
H24   H     H_    0.870865 0.113665 0.816501 0.127669
H25   H     H_    0.847312 0.614107 0.822566 0.138521
H26   H     H_    0.678869 0.614449 0.828448 0.139352
H27   H     H_    0.659762 0.631785 0.702513 0.168534
H28   H     H_    0.828210 0.631219 0.695760 0.125285
H29   H     H_    0.485430 0.865806 0.678686 0.124102
H30   H     H_    0.477559 0.882481 0.808398 0.134909
H31   H     H_    0.008125 0.846780 0.814401 0.131538
H32   H     H_    0.942578 0.882643 0.035522 0.120833
H33   H     H_    0.188139 0.683868 0.820986 0.137427
H34   H     H_    0.200834 0.660246 0.694346 0.165516
H35   H     H_    0.019234 0.821283 0.687364 0.127550
H36   H     H_    0.913905 0.805427 0.153199 0.134621
H37   H     H_    0.701030 0.954781 0.227536 0.109561
H38   H     H_    0.044412 0.706163 0.257180 0.095129
H39   H     H_    0.572132 0.285858 0.071491 0.133455
H40   H     H_    0.131042 0.493180 0.180425 0.155023
O1    O     O_R   0.748670 0.497520 0.427970 -0.537645
O2    O     O_R   0.300170 0.471020 0.567120 -0.511026
O3    O     O_R   0.491630 0.259030 0.574940 -0.524591
O4    O     O_R   0.718640 0.304340 0.577850 -0.510401
O5    O     O_3   0.500010 0.500010 0.500020 -0.264962
O6    O     O_R   0.186620 0.923750 0.087000 -0.544389
O7    O     O_R   0.957350 0.194160 0.084660 -0.494496
O8    O     O_R   0.935120 0.407280 0.085350 -0.457553
O9    O     O_R   0.203800 0.365060 0.067090 -0.522880
O10   O     O_R   0.417470 0.174910 0.067830 -0.514960
O11   O     O_R   0.375160 0.946380 0.070880 -0.482427
O12   O     O_R   0.476470 0.723930 0.429450 -0.496572
O13   O     O_R   0.160500 0.919670 0.926690 -0.522625
O14   O     O_R   0.933140 0.190380 0.936050 -0.519117
O15   O     O_R   0.909010 0.403210 0.925030 -0.508173
O16   O     O_R   0.179590 0.361290 0.918480 -0.508800
O17   O     O_R   0.391360 0.170840 0.907510 -0.522805
O18   O     O_R   0.350950 0.942600 0.922260 -0.507614
O19   O     O_3   0.166650 0.166610 0.999880 -0.281820
O20   O     O_R   0.264730 0.744140 0.416740 -0.514694
O21   O     O_R   0.309440 0.472410 0.418220 -0.504739
O22   O     O_R   0.501630 0.260530 0.414310 -0.537538
O23   O     O_R   0.727920 0.305730 0.428950 -0.503901
O24   O     O_R   0.738670 0.496020 0.588600 -0.531736
O25   O     O_R   0.467190 0.722540 0.578350 -0.508172
O26   O     O_R   0.254720 0.742640 0.577370 -0.518287
I1    I     I_    0.805903 0.634351 0.185257 -0.418109
I2    I     I_    0.646313 0.393126 0.202127 -0.425207

loop_
_geom_bond_atom_site_label_1
_geom_bond_atom_site_label_2
_ccdc_geom_bond_type
C44   C49   A    
C45   O2    A    
C7    C13   A    
C57   H29   S    
C21   C26   A    
C34   O25   A    
Cr3   O3    S    
Cr2   O5    S    
Cr6   O10   S    
C41   C42   S    
Cr1   O24   S    
C19   C20   A    
C1    O12   A    
C40   H17   S    
C62   O8    A    
C65   O14   A    
C53   C54   A    
Cr2   O26   S    
C30   C35   A    
C64   O6    A    
C42   H20   S    
C23   O23   A    
C36   C37   A    
C38   C42   S    
C33   H15   S    
C30   C31   A    
C56   O24   A    
C69   H36   S    
Cr5   O19   S    
C67   H32   S    
Cr2   O20   S    
C20   C25   S    
C51   H27   S    
C15   C16   A    
C32   H12   S    
C29   C33   S    
C18   C19   A    
C23   C26   S    
C4    H1    S    
C53   C68   S    
C24   H6    S    
C6    H38   S    
C8    H39   S    
C21   C22   A    
C54   C55   A    
C11   C17   A    
C41   H18   S    
Cr5   O15   S    
C8    C9    A    
C12   C17   S    
C25   H8    S    
C1    O20   A    
Cr1   O25   S    
C45   O3    A    
Cr4   O7    S    
C59   C60   S    
Cr3   O4    S    
C13   C14   A    
C56   O4    A    
C44   C65   S    
C69   C70   A    
C62   O7    A    
C65   O15   A    
Cr6   O19   S    
C44   C46   A    
C66   O16   A    
C54   C59   S    
C70   H37   S    
C31   H11   S    
Cr1   O1    S    
C27   C31   A    
Cr5   O8    S    
C28   C32   S    
C24   C25   S    
C27   C64   S    
C39   C40   A    
Cr6   O18   S    
C18   C62   S    
C39   C43   A    
Cr3   O23   S    
C51   H28   S    
C34   C61   S    
C59   H31   S    
C58   H30   S    
C22   I1    S    
C47   C52   A    
C9    C67   A    
C37   C38   A    
C9    H10   S    
C66   O17   A    
C34   O26   A    
C11   C16   S    
Cr5   O9    S    
C15   H4    S    
C14   C15   A    
C36   C40   A    
Cr6   O17   S    
C64   O11   A    
Cr4   O19   S    
C50   C51   S    
C14   H3    S    
C30   H9    S    
C43   C45   S    
C63   O9    A    
C4    C17   A    
Cr2   O21   S    
Cr4   O6    S    
C21   H5    S    
C50   H26   S    
Cr3   O5    S    
Cr4   O14   S    
C32   H13   S    
C12   O22   A    
Cr1   O12   S    
C2    C5    S    
C39   H16   S    
C10   H40   S    
Cr5   O16   S    
C1    C35   S    
C25   H7    S    
C48   H23   S    
C46   C50   S    
C46   C47   A    
C28   C29   A    
C7    H21   S    
C18   C22   A    
Cr1   O5    S    
C2    C8    A    
C4    C5    A    
C3    C5    A    
C23   O1    A    
C47   C51   S    
C53   C58   A    
C57   C61   A    
C6    C7    A    
C3    C63   S    
C29   C35   A    
C32   C33   S    
C42   H22   S    
C19   C24   S    
C38   C43   A    
C3    C10   A    
C2    C70   A    
C33   H14   S    
C49   H24   S    
C57   C58   A    
C41   H19   S    
C20   C26   A    
C24   I2    S    
C48   C49   A    
C55   C61   A    
C68   O18   A    
C59   H33   S    
C36   C66   S    
C37   C41   S    
C68   O13   A    
C63   O10   A    
C60   H34   S    
C10   C11   A    
C13   H2    S    
C6    C16   A    
C48   C52   A    
C50   H25   S    
Cr3   O22   S    
Cr4   O13   S    
Cr2   O2    S    
C27   C28   A    
C60   H35   S    
Cr6   O11   S    
C12   O21   A    
C67   C69   A    
C55   C60   S    
C52   C56   S    
