data_mof_unit_35010.cif
_audit_creation_date              2012-12-10T19:01:23-0500
_audit_creation_method            fapswitch 2.2
_symmetry_space_group_name_H-M    P1
_symmetry_Int_Tables_number       1
_space_group_crystal_system       triclinic
_cell_length_a                    9.549677
_cell_length_b                    10.82478
_cell_length_c                    15.466909
_cell_angle_alpha                 89.896001
_cell_angle_beta                  74.272803
_cell_angle_gamma                 89.881344
_cell_volume                      1539.00220289

loop_
_atom_site_label
_atom_site_type_symbol
_atom_type_description
_atom_site_fract_x
_atom_site_fract_y
_atom_site_fract_z
_atom_type_partial_charge
C1    C     C_R   0.000705 0.262384 0.498646 0.801347
C2    C     C_R   0.668376 0.461351 0.904252 0.110479
C3    C     C_R   0.766406 0.415802 0.951113 0.159406
C4    C     C_R   0.516886 0.469183 0.948635 -0.060121
C5    C     C_R   0.470339 0.452655 0.043535 -0.001494
C6    C     C_R   0.572164 0.409088 0.088210 -0.187052
C7    C     C_R   0.716534 0.388393 0.042179 -0.234767
C8    C     C_R   0.409535 0.487920 0.901697 0.557774
C9    C     C_R   0.264653 0.505748 0.947834 -0.295131
C10   C     C_R   0.220146 0.502436 0.041156 0.067979
C11   C     C_R   0.322403 0.476498 0.090196 0.086388
C12   C     C_R   0.918118 0.497451 0.672116 0.803388
C13   C     C_R   0.073327 0.523108 0.085991 -0.176777
C14   C     C_R   0.026669 0.519929 0.179359 -0.191421
C15   C     C_R   0.273533 0.478725 0.184501 -0.226569
C16   C     C_R   0.128020 0.063524 0.495377 0.129020
C17   C     C_R   0.004605 0.129338 0.490531 -0.095664
C18   C     C_R   0.886752 0.064863 0.474251 -0.210962
C19   C     C_R   0.886494 0.936146 0.474672 -0.210578
C20   C     C_R   0.004149 0.870971 0.491109 -0.097041
C21   C     C_R   0.127863 0.936287 0.495677 0.113576
C22   C     C_3   0.211656 0.930113 0.564392 -0.454639
C23   C     C_R   0.000426 0.737709 0.498866 0.802360
C24   C     C_3   0.212048 0.070319 0.563800 -0.463753
C25   C     C_R   0.606224 0.536317 0.425475 0.245519
C26   C     C_R   0.543705 0.451352 0.569759 -0.040245
C27   C     C_R   0.394906 0.451617 0.569855 -0.057511
C28   C     C_R   0.459039 0.535909 0.425385 0.252783
C29   C     C_3   0.471999 0.658191 0.379615 -0.491579
C30   C     C_3   0.630633 0.659391 0.380512 -0.503103
C31   C     C_R   0.081926 0.500200 0.327752 0.791136
C32   C     C_R   0.872182 0.479608 0.769713 -0.087270
C33   C     C_R   0.127015 0.499285 0.229116 -0.052333
C34   C     C_R   0.913915 0.398520 0.906276 -0.221819
C35   C     C_R   0.966218 0.428582 0.815618 -0.190795
C36   C     C_R   0.726568 0.500965 0.815284 -0.185353
Cu1   Cu    Cu3+1 0.140670 0.499980 0.500000 0.943142
Cu2   Cu    Cu3+1 0.859330 0.500020 0.500000 0.949348
H1    H     H_    0.790337 0.352955 0.078656 0.144846
H2    H     H_    0.994567 0.542372 0.048804 0.142670
H3    H     H_    0.792273 0.113231 0.465262 0.165303
H4    H     H_    0.791784 0.888534 0.466172 0.155765
H5    H     H_    0.147416 0.889786 0.629174 0.203409
H6    H     H_    0.321795 0.889670 0.537102 0.195317
H7    H     H_    0.148207 0.111684 0.628270 0.198173
H8    H     H_    0.322146 0.110393 0.535676 0.199090
H9    H     H_    0.573781 0.413134 0.626806 0.189722
H10   H     H_    0.314357 0.414118 0.626999 0.156500
H11   H     H_    0.457447 0.650973 0.310890 0.193824
H12   H     H_    0.348323 0.467763 0.224972 0.142020
H13   H     H_    0.405712 0.731112 0.422281 0.214389
H14   H     H_    0.707268 0.654443 0.312269 0.189090
H15   H     H_    0.655079 0.732307 0.424538 0.208787
H16   H     H_    0.912847 0.535913 0.212481 0.143894
H17   H     H_    0.186369 0.521683 0.909763 0.174055
H18   H     H_    0.988225 0.359820 0.941084 0.146007
H19   H     H_    0.079091 0.410119 0.781256 0.167384
H20   H     H_    0.661566 0.551577 0.780219 0.215516
H21   H     H_    0.542558 0.384854 0.158407 0.137480
N1    N     N_R   0.648210 0.500930 0.499430 -0.196787
N2    N     N_R   0.352300 0.500890 0.499430 -0.193362
O1    O     O_R   0.118810 0.319640 0.500000 -0.580838
O2    O     O_R   0.881230 0.319680 0.499990 -0.585536
O3    O     O_R   0.055580 0.499970 0.629840 -0.585128
O4    O     O_R   0.818000 0.500010 0.629830 -0.577242
O5    O     O_R   0.118770 0.680320 0.500010 -0.576138
O6    O     O_R   0.881190 0.680360 0.500000 -0.580747
O7    O     O_R   0.182000 0.499990 0.370170 -0.586568
O8    O     O_R   0.944420 0.500030 0.370160 -0.583476
F1    F     F_    0.438698 0.477405 0.811206 -0.715089

loop_
_geom_bond_atom_site_label_1
_geom_bond_atom_site_label_2
_ccdc_geom_bond_type
C27   H10   S    
C8    C9    A    
C2    C4    A    
C19   H4    S    
C34   H18   S    
C16   C21   A    
C9    H17   S    
C25   N1    A    
C9    C10   A    
C8    F1    S    
C19   C20   A    
C20   C23   S    
C35   H19   S    
C4    C8    A    
C6    H21   S    
C24   H8    S    
Cu1   O5    S    
C14   C33   A    
C31   C33   S    
C2    C3    A    
Cu2   O8    S    
C16   C24   S    
C29   H11   S    
C13   C14   A    
C28   N2    A    
C25   C28   A    
C26   C27   A    
C29   C30   S    
C26   N1    A    
C30   H14   S    
C26   H9    S    
Cu2   N1    S    
C24   H7    S    
C1    O2    A    
C23   O5    A    
C28   C29   S    
C14   H16   S    
Cu1   Cu2   S    
C5    C11   A    
C6    C7    A    
C3    C7    A    
C29   H13   S    
C5    C6    A    
C12   O3    A    
C30   H15   S    
Cu2   O2    S    
C15   H12   S    
C16   C17   A    
C10   C11   A    
C1    C17   S    
C36   H20   S    
C2    C36   A    
Cu2   O6    S    
Cu1   O7    S    
C32   C36   A    
C31   O8    A    
Cu1   O3    S    
C20   C21   A    
C1    O1    A    
C17   C18   A    
C34   C35   A    
C12   O4    A    
C18   H3    S    
C23   O6    A    
C25   C30   S    
Cu1   O1    S    
C22   H6    S    
C18   C19   A    
C13   H2    S    
C7    H1    S    
Cu1   N2    S    
C27   N2    A    
C3    C34   A    
C21   C22   S    
Cu2   O4    S    
C11   C15   A    
C31   O7    A    
C15   C33   A    
C12   C32   S    
C32   C35   A    
C22   H5    S    
C22   C24   S    
C4    C5    A    
C10   C13   A    
