data_mof_unit_42487.cif
_audit_creation_date              2012-10-26T19:59:15-0400
_audit_creation_method            fapswitch 2.2
_symmetry_space_group_name_H-M    P1
_symmetry_Int_Tables_number       1
_space_group_crystal_system       triclinic
_cell_length_a                    7.440964
_cell_length_b                    8.723513
_cell_length_c                    15.720778
_cell_angle_alpha                 93.892706
_cell_angle_beta                  74.92692
_cell_angle_gamma                 102.403205
_cell_volume                      962.271875134

loop_
_atom_site_label
_atom_site_type_symbol
_atom_type_description
_atom_site_fract_x
_atom_site_fract_y
_atom_site_fract_z
_atom_type_partial_charge
C1    C     C_R   0.545532 0.799086 0.499274 0.551009
C2    C     C_R   0.616312 0.513570 0.333728 0.532136
C3    C     C_R   0.312603 0.461732 0.761341 0.027945
C4    C     C_R   0.688135 0.541492 0.239031 -0.009827
C5    C     C_R   0.090673 0.321867 0.885777 -0.121690
C6    C     C_R   0.907430 0.689239 0.116614 -0.125938
C7    C     C_R   0.142485 0.356755 0.796380 -0.095409
C8    C     C_R   0.854131 0.652270 0.205758 -0.096972
C9    C     C_R   0.430521 0.528571 0.815848 -0.133103
C10   C     C_R   0.573359 0.473515 0.183393 -0.078718
C11   C     C_R   0.396979 0.475321 0.902073 0.009847
C12   C     C_R   0.454455 0.200915 0.500745 0.544995
C13   C     C_R   0.605986 0.530932 0.098182 0.048002
C14   C     C_R   0.216202 0.381219 0.938887 0.039258
C15   C     C_R   0.784942 0.627943 0.062449 0.000089
C16   C     C_R   0.533057 0.518114 0.953751 -0.026292
C17   C     C_R   0.469989 0.490213 0.046654 0.034841
C18   C     C_2   0.172580 0.439366 0.178009 0.194294
C19   C     C_2   0.827716 0.571063 0.822399 0.200830
C20   C     C_2   0.747656 0.033518 0.414092 0.237142
C21   C     C_2   0.252375 0.966527 0.586001 0.246866
C22   C     C_R   0.273256 0.423900 0.084013 0.005945
C23   C     C_R   0.729481 0.586682 0.916811 0.002843
C24   C     C_R   0.156800 0.356552 0.029091 -0.149982
C25   C     C_R   0.844803 0.654525 0.972468 -0.098546
C26   C     C_2   0.573110 0.963092 0.482817 -0.037930
C27   C     C_2   0.426862 0.036913 0.517227 -0.046517
C28   C     C_R   0.383747 0.486915 0.666320 0.545160
Cu1   Cu    Cu3+1 0.322120 0.483240 0.490330 1.048423
Cu2   Cu    Cu3+1 0.677880 0.516760 0.509670 1.027480
H1    H     H_    0.011191 0.297698 0.057780 0.097715
H2    H     H_    0.996892 0.385788 0.430973 0.248401
H3    H     H_    0.048644 0.351202 0.207631 0.098704
H4    H     H_    0.776500 0.471743 0.783493 0.118064
H5    H     H_    0.752376 0.137020 0.378392 0.094282
H6    H     H_    0.247454 0.862757 0.621512 0.133731
H7    H     H_    0.989840 0.715443 0.944697 0.162718
H8    H     H_    0.456464 0.377648 0.208586 0.133702
H9    H     H_    0.547490 0.623247 0.789339 0.138781
H10   H     H_    0.942104 0.709586 0.248483 0.202287
H11   H     H_    0.049766 0.302900 0.754977 0.153608
H12   H     H_    0.953567 0.247228 0.913219 0.115595
H13   H     H_    0.042394 0.767689 0.090388 0.130713
H14   H     H_    0.003117 0.614229 0.569018 0.256367
N1    N     N_2   0.945180 0.542040 0.524240 -0.238154
N2    N     N_2   0.054820 0.457960 0.475760 -0.232767
O1    O     O_R   0.384450 0.714270 0.493720 -0.530473
O2    O     O_2   0.968201 0.667694 0.787277 -0.522072
O3    O     O_2   0.887409 0.973812 0.394929 -0.475339
O4    O     O_2   0.112940 0.026623 0.605465 -0.465509
O5    O     O_R   0.615550 0.285730 0.506280 -0.538835
O6    O     O_R   0.684880 0.742590 0.510050 -0.432176
O7    O     O_R   0.315120 0.257410 0.489950 -0.441928
O8    O     O_R   0.265540 0.477900 0.617090 -0.495557
O9    O     O_R   0.734460 0.522100 0.382910 -0.504169
O10   O     O_R   0.565970 0.506210 0.633420 -0.512393
O11   O     O_R   0.434030 0.493790 0.366580 -0.471375
O12   O     O_2   0.219053 0.555269 0.221633 -0.500103

loop_
_geom_bond_atom_site_label_1
_geom_bond_atom_site_label_2
_ccdc_geom_bond_type
C2    C4    S    
C5    H12   S    
C4    C8    A    
Cu2   O10   S    
Cu1   Cu2   S    
C3    C9    A    
C11   C16   A    
Cu2   N1    S    
C19   C23   S    
C12   O7    A    
C13   C17   A    
Cu1   N2    S    
C10   H8    S    
C25   H7    S    
C13   C15   A    
C21   C27   S    
C2    O11   A    
C21   H6    S    
C10   C13   A    
N1    N2    D    
C9    C11   A    
C5    C14   A    
C20   O3    D    
Cu1   O7    S    
Cu1   O1    S    
C6    C8    A    
C21   O4    D    
C1    O6    A    
Cu2   O5    S    
Cu1   O11   S    
C2    O9    A    
C16   C23   A    
C3    C7    A    
C6    H13   S    
C7    H11   S    
C26   C27   D    
C1    C26   S    
C18   H3    S    
C22   C24   A    
C15   C25   A    
Cu1   O8    S    
C12   C27   S    
C4    C10   A    
C9    H9    S    
C12   O5    A    
H14   N1    S    
C23   C25   A    
Cu2   O9    S    
C14   C24   A    
C11   C14   A    
C5    C7    A    
Cu2   O6    S    
C19   O2    D    
C3    C28   S    
C28   O8    A    
C8    H10   S    
C24   H1    S    
C6    C15   A    
C18   C22   S    
C20   H5    S    
H2    N2    S    
C18   O12   D    
C1    O1    A    
C28   O10   A    
C17   C22   A    
C16   C17   A    
C20   C26   S    
C19   H4    S    
