data_mof_unit_55504.cif
_audit_creation_date              2013-03-05T15:50:58-0500
_audit_creation_method            fapswitch 2.2
_symmetry_space_group_name_H-M    P1
_symmetry_Int_Tables_number       1
_space_group_crystal_system       triclinic
_cell_length_a                    11.707885
_cell_length_b                    10.86728
_cell_length_c                    9.598735
_cell_angle_alpha                 90.653027
_cell_angle_beta                  89.795607
_cell_angle_gamma                 92.854356
_cell_volume                      1219.67464266

loop_
_atom_site_label
_atom_site_type_symbol
_atom_site_description
_atom_site_fract_x
_atom_site_fract_y
_atom_site_fract_z
_atom_type_partial_charge
O1    O     O_R   0.499990 0.319640 0.618810 -0.546686
O2    O     O_R   0.500000 0.319660 0.381240 -0.585705
C1    C     C_R   0.509361 0.263375 0.499675 0.813889
O3    O     O_R   0.337190 0.500000 0.618790 -0.522209
O4    O     O_R   0.337200 0.500030 0.381210 -0.577408
C2    C     C_R   0.284106 0.499587 0.500193 0.846911
Cu1   Cu    Cu3+1 0.499990 0.499990 0.640660 0.981015
Cu2   Cu    Cu3+1 0.500010 0.500010 0.359340 0.942535
O5    O     O_R   0.500000 0.680340 0.618760 -0.621750
O6    O     O_R   0.500010 0.680360 0.381190 -0.599154
O7    O     O_R   0.662800 0.499970 0.618790 -0.600721
O8    O     O_R   0.662810 0.500000 0.381210 -0.588170
C3    C     C_R   0.495414 0.737845 0.502019 0.766608
C4    C     C_R   0.715893 0.500379 0.499827 0.783103
C5    C     C_1   0.162378 0.499800 0.500526 -0.132959
C6    C     C_1   0.059897 0.500040 0.500349 0.026867
C7    C     C_1   0.940085 0.500298 0.499874 0.012195
C8    C     C_1   0.837605 0.500409 0.499595 -0.170456
H1    H     H_    0.480922 0.107867 0.281062 0.171554
C9    C     C_R   0.595790 0.127594 0.742918 -0.105942
H2    H     H_    0.639670 0.217206 0.735469 0.145768
C10   C     C_R   0.592600 0.071822 0.872810 -0.108695
H3    H     H_    0.629298 0.119830 0.962738 0.133051
C11   C     C_R   0.537088 0.956906 0.887727 -0.122767
H4    H     H_    0.527575 0.916644 0.990053 0.139889
C12   C     C_R   0.496145 0.892145 0.770412 -0.152402
H5    H     H_    0.449150 0.806409 0.790252 0.174762
C13   C     C_R   0.510628 0.941775 0.634861 0.090228
C14   C     C_R   0.543768 0.067840 0.625662 0.113166
C15   C     C_R   0.521452 0.130045 0.500503 -0.115378
C16   C     C_R   0.495337 0.062459 0.378903 -0.203618
H6    H     H_    0.471591 0.885702 0.284353 0.167833
C17   C     C_R   0.486530 0.935224 0.381724 -0.205385
C18   C     C_R   0.493150 0.872885 0.508250 -0.109504
H7    H     H_    0.368117 0.363556 0.129655 0.169456
C19   C     C_R   0.654280 0.662254 0.145184 -0.123210
H8    H     H_    0.660658 0.671172 0.255070 0.196398
C20   C     C_R   0.730427 0.740594 0.073538 -0.217389
H9    H     H_    0.789136 0.802815 0.130141 0.156792
C21   C     C_R   0.730789 0.740059 0.929995 -0.189499
H10   H     H_    0.789374 0.802277 0.874294 0.158175
C22   C     C_R   0.654582 0.661652 0.857208 -0.117077
H11   H     H_    0.659630 0.671524 0.747507 0.198314
C23   C     C_R   0.576153 0.579287 0.925786 0.116733
C24   C     C_R   0.575984 0.579468 0.075345 0.193170
N1    N     N_R   0.501070 0.501210 0.147910 -0.222784
C25   C     C_R   0.427567 0.424781 0.074048 -0.120528
C26   C     C_R   0.426625 0.424852 0.926306 0.413741
N2    N     N_R   0.501110 0.501290 0.852040 -0.265625
N3    N     N_R   0.344207 0.345649 0.856077 0.141919
O9    O     O_R   0.239839 0.380306 0.846173 -0.361287
O10   O     O_R   0.362497 0.228962 0.844507 -0.367768

loop_
_geom_bond_atom_site_label_1
_geom_bond_atom_site_label_2
_geom_bond_distance
_ccdc_geom_bond_type
C23   N2    1.381323 A    
O4    Cu2   1.916953 S    
N3    O10   1.299954 A    
C11   H4    1.082924 S    
C16   C17   1.381973 A    
C14   C15   1.416639 A    
C1    C15   1.462954 S    
H1    C16   1.083504 S    
C4    C8    1.424963 S    
Cu1   O7    1.916951 S    
C25   C26   1.418228 A    
Cu2   O8    1.918318 S    
H7    C25   1.082299 S    
H6    C17   1.083553 S    
C26   N3    1.426552 S    
C7    C8    1.199896 T    
C13   C18   1.430065 A    
C3    C18   1.469611 S    
O1    Cu1   1.968726 S    
C24   N1    1.382951 A    
C23   C24   1.435551 A    
C20   C21   1.377764 A    
C12   H5    1.076726 S    
C20   H9    1.082992 S    
C22   C23   1.415943 A    
O3    Cu1   1.918320 S    
C26   N2    1.376804 A    
O4    C2    1.298288 A    
C10   C11   1.387461 A    
C21   C22   1.387587 A    
C21   H10   1.083012 S    
O8    C4    1.298963 A    
C17   C18   1.401638 A    
O2    C1    1.304577 A    
C9    C14   1.417123 A    
C15   C16   1.398549 A    
O7    C4    1.298120 A    
Cu2   N1    2.029641 S    
O3    C2    1.298789 A    
Cu1   Cu2   2.700318 S    
C22   H11   1.060799 S    
C9    C10   1.392084 A    
C19   C20   1.387774 A    
C19   C24   1.416892 A    
C9    H2    1.081157 S    
Cu1   N2    2.028954 S    
C19   H8    1.060666 S    
Cu1   O5    1.973530 S    
O5    C3    1.291821 A    
C10   H3    1.082572 S    
C13   C14   1.408822 A    
N3    O9    1.300568 A    
C2    C5    1.425284 S    
N1    C25   1.361189 A    
C12   C13   1.420514 A    
Cu2   O6    1.968726 S    
O2    Cu2   1.973530 S    
C5    C6    1.199976 T    
C11   C12   1.394746 A    
C6    C7    1.402915 S    
O1    C1    1.297480 A    
O6    C3    1.313277 A    
