data_mof_unit_40287.cif
_audit_creation_date              2012-12-11T14:29:45-0500
_audit_creation_method            fapswitch 2.2
_symmetry_space_group_name_H-M    P1
_symmetry_Int_Tables_number       1
_space_group_crystal_system       triclinic
_cell_length_a                    6.941252
_cell_length_b                    14.758521
_cell_length_c                    16.231612
_cell_angle_alpha                 90.373899
_cell_angle_beta                  90.03646
_cell_angle_gamma                 90.010693
_cell_volume                      1662.77298041

loop_
_atom_site_label
_atom_site_type_symbol
_atom_type_description
_atom_site_fract_x
_atom_site_fract_y
_atom_site_fract_z
_atom_type_partial_charge
O1    O     O_R   0.494400 0.416610 0.413880 -0.505968
O2    O     O_R   0.823920 0.406790 0.585520 -0.533014
O3    O     O_R   0.994250 0.583390 0.586120 -0.532103
C1    C     C_R   0.654671 0.384818 0.613333 0.801283
O4    O     O_R   0.824110 0.405730 0.414490 -0.555606
O5    O     O_R   0.994440 0.582310 0.413870 -0.547875
C2    C     C_R   0.653728 0.379896 0.390124 0.652765
O6    O     O_R   0.494210 0.417690 0.586130 -0.514809
O7    O     O_3   0.660810 0.557940 0.500000 -0.387483
V1    V     V_3+5 0.935650 0.489250 0.500000 1.518501
O8    O     O_R   0.324160 0.593210 0.414480 -0.551808
C3    C     C_R   0.155409 0.615029 0.386385 0.717077
O9    O     O_R   0.323970 0.594270 0.585510 -0.537400
C4    C     C_R   0.154828 0.615107 0.614816 0.763924
V2    V     V_3+5 0.435660 0.510750 0.500000 1.536127
O10   O     O_3   0.160630 0.442060 0.500000 -0.340282
H1    H     H_    0.896465 0.900303 0.512931 0.140184
C5    C     C_R   0.248848 0.564898 0.790070 0.191025
C6    C     C_R   0.331196 0.548528 0.867878 0.335613
C7    C     C_R   0.344639 0.617696 0.925740 -0.194876
C8    C     C_R   0.272764 0.703024 0.908616 -0.205433
C9    C     C_R   0.197998 0.724101 0.830099 0.045816
C10   C     C_R   0.196557 0.655576 0.767068 -0.027292
C11   C     C_R   0.121115 0.811676 0.815062 -0.142952
C12   C     C_R   0.056376 0.833831 0.735002 0.073078
C13   C     C_R   0.069975 0.769070 0.669825 0.056524
C14   C     C_R   0.140858 0.680255 0.685167 -0.155960
C15   C     C_R   0.983336 0.921291 0.717675 -0.153894
C16   C     C_R   0.925327 0.944439 0.638435 -0.109670
C17   C     C_R   0.940293 0.881781 0.574590 -0.089833
C18   C     C_R   0.012240 0.795336 0.589615 -0.145428
H2    H     H_    0.404821 0.604376 0.986031 0.161424
H3    H     H_    0.278128 0.752301 0.958109 0.130417
H4    H     H_    0.971812 0.973172 0.764792 0.103501
H5    H     H_    0.869977 0.011659 0.626418 0.129535
H6    H     H_    0.022127 0.749750 0.537362 0.096879
C19   C     C_2   0.985257 0.710212 0.283344 -0.124156
C20   C     C_2   0.150242 0.682872 0.319599 -0.294876
H7    H     H_    0.849248 0.682380 0.304464 0.134717
H8    H     H_    0.287868 0.710176 0.300627 0.131725
C21   C     C_2   0.973019 0.777744 0.215386 -0.107411
C22   C     C_2   0.126241 0.814658 0.177237 -0.281698
H9    H     H_    0.829094 0.797028 0.195930 0.137318
H10   H     H_    0.271295 0.796071 0.194883 0.127157
C23   C     C_2   0.778669 0.205481 0.779303 -0.109693
C24   C     C_2   0.614055 0.179316 0.816373 -0.260484
H11   H     H_    0.914266 0.175845 0.798886 0.140217
H12   H     H_    0.476396 0.207046 0.797985 0.153372
C25   C     C_2   0.790626 0.273341 0.711811 -0.097523
C26   C     C_2   0.638248 0.317292 0.679761 -0.238820
H13   H     H_    0.933455 0.287084 0.687723 0.171017
H14   H     H_    0.494036 0.304163 0.701903 0.169767
C27   C     C_2   0.766921 0.196461 0.227003 0.368732
C28   C     C_2   0.621577 0.186736 0.172014 -0.258048
H15   H     H_    0.507127 0.236801 0.170901 0.164912
C29   C     C_2   0.774872 0.275840 0.283196 -0.293432
C30   C     C_2   0.633885 0.299067 0.336508 0.264206
H16   H     H_    0.906365 0.315588 0.282073 0.174916
O11   O     O_R   0.770210 0.079270 0.910680 -0.546327
O12   O     O_R   0.440150 0.091160 0.082270 -0.521339
O13   O     O_R   0.269970 0.914530 0.082860 -0.543511
C31   C     C_R   0.609652 0.112988 0.110477 0.792259
O14   O     O_R   0.440480 0.090100 0.911240 -0.544259
O15   O     O_R   0.270310 0.913460 0.910610 -0.546265
C32   C     C_R   0.609116 0.111647 0.883043 0.733735
O16   O     O_R   0.769870 0.080340 0.082930 -0.522139
O17   O     O_3   0.603660 0.938980 0.996790 -0.384459
V3    V     V_3+5 0.328750 0.007610 0.996740 1.506846
O18   O     O_R   0.940600 0.902510 0.911180 -0.544866
C33   C     C_R   0.109743 0.880451 0.882929 0.667351
O19   O     O_R   0.940270 0.903570 0.082200 -0.538801
C34   C     C_R   0.109551 0.881955 0.110410 0.775133
V4    V     V_3+5 0.828770 0.986010 0.996670 1.482368
O20   O     O_3   0.103730 0.054750 0.996710 -0.358841
Br1   Br    Br    0.972442 0.109853 0.238272 -0.404560
Br2   Br    Br    0.179643 0.457736 0.727775 -0.527522
S1    S     S_3+6 0.422602 0.232387 0.350195 0.021978
O21   O     O_2   0.271828 0.265376 0.291205 -0.344897
O22   O     O_2   0.461680 0.133562 0.334645 -0.302833
O23   O     O_3   0.340402 0.245121 0.447084 -0.501668
H17   H     H_    0.208896 0.219033 0.446289 0.364741
Br3   Br    Br    0.422864 0.430974 0.900103 -0.506024

loop_
_geom_bond_atom_site_label_1
_geom_bond_atom_site_label_2
_ccdc_geom_bond_type
O14   C32   A    
V4    O20   S    
C6    C7    A    
C1    O6    A    
C11   C33   S    
S1    O21   D    
C12   C15   A    
C13   C14   A    
C16   C17   A    
O15   V3    S    
C15   C16   A    
C18   H6    S    
O5    C3    A    
C17   C18   A    
S1    O23   S    
C8    H3    S    
V3    O20   S    
V2    O10   S    
C29   C30   D    
O12   C31   A    
C5    C6    A    
C21   C22   D    
O14   V3    S    
O8    V2    S    
C25   H13   S    
C26   H14   S    
O18   V4    S    
O17   V4    S    
C10   C14   A    
C4    C14   S    
C6    Br3   S    
O7    V1    S    
O11   V4    S    
C23   H11   S    
C15   H4    S    
C13   C18   A    
O9    C4    A    
C19   C21   S    
H1    C17   S    
C21   H9    S    
C27   Br1   S    
C22   H10   S    
S1    O22   D    
C24   H12   S    
C31   O16   A    
O17   V3    S    
C30   S1    S    
C11   C12   A    
C24   C32   S    
O19   V4    S    
C28   C31   S    
C12   C13   A    
C27   C28   D    
O16   V4    S    
C5    C10   A    
C1    C26   S    
O2    C1    A    
C19   C20   D    
C23   C25   S    
C22   C34   S    
O3    C4    A    
O1    V2    S    
O13   C34   A    
O6    V2    S    
O15   C33   A    
O9    V2    S    
C9    C11   A    
O2    V1    S    
O4    C2    A    
C7    H2    S    
C27   C29   S    
C28   H15   S    
C5    Br2   S    
O1    C2    A    
O23   H17   S    
O5    V1    S    
O8    C3    A    
C16   H5    S    
O7    V2    S    
O4    V1    S    
C19   H7    S    
O3    V1    S    
V1    O10   S    
O11   C32   A    
C20   H8    S    
O13   V3    S    
C29   H16   S    
C3    C20   S    
O18   C33   A    
C23   C24   D    
O19   C34   A    
C7    C8    A    
O12   V3    S    
C25   C26   D    
C9    C10   A    
C8    C9    A    
C2    C30   S    
