data_mof_unit_57922.cif
_audit_creation_date              2012-12-10T18:31:56-0500
_audit_creation_method            fapswitch 2.2
_symmetry_space_group_name_H-M    P1
_symmetry_Int_Tables_number       1
_space_group_crystal_system       triclinic
_cell_length_a                    10.887636
_cell_length_b                    15.141545
_cell_length_c                    16.211886
_cell_angle_alpha                 84.18303
_cell_angle_beta                  90.745948
_cell_angle_gamma                 105.003849
_cell_volume                      2567.97098262

loop_
_atom_site_label
_atom_site_type_symbol
_atom_type_description
_atom_site_fract_x
_atom_site_fract_y
_atom_site_fract_z
_atom_type_partial_charge
C1    C     C_R   0.479648 0.442854 0.660560 0.894971
C2    C     C_3   0.122687 0.501215 0.500527 -0.100969
C3    C     C_3   0.084066 0.526413 0.406512 0.065672
C4    C     C_3   0.102131 0.570214 0.567162 0.127531
C5    C     C_R   0.461420 0.410095 0.749563 -0.104980
C6    C     C_R   0.520502 0.592422 0.250019 -0.108349
C7    C     C_R   0.413206 0.287495 0.860880 0.142412
C8    C     C_R   0.431779 0.316585 0.776573 -0.214556
C9    C     C_R   0.460376 0.473305 0.806375 -0.252229
C10   C     C_R   0.463535 0.450156 0.893492 0.064108
C11   C     C_R   0.435862 0.354098 0.919795 0.158556
C12   C     C_R   0.742389 0.500810 0.500495 0.958047
C13   C     C_R   0.486743 0.517838 0.954505 -0.036555
C14   C     C_R   0.481194 0.487057 0.040909 0.100176
C15   C     C_R   0.456301 0.389921 0.060868 -0.159627
C16   C     C_R   0.428882 0.327149 0.003780 -0.248481
C17   C     C_R   0.522716 0.615097 0.932118 -0.019999
C18   C     C_R   0.546045 0.680927 0.990020 0.121283
C19   C     C_R   0.532990 0.651525 0.076726 -0.037682
C20   C     C_R   0.504648 0.554292 0.102562 0.041824
C21   C     C_R   0.552098 0.716196 0.138614 0.017207
C22   C     C_R   0.546224 0.688199 0.224541 0.037846
C23   C     C_R   0.516232 0.557514 0.339421 0.939094
C24   C     C_R   0.499532 0.527599 0.189764 0.096695
C25   C     C_R   0.691701 0.851277 0.629727 -0.233254
C26   C     C_R   0.658898 0.760153 0.613853 0.191132
C27   C     C_R   0.512619 0.790019 0.512313 -0.105003
C28   C     C_R   0.542706 0.885187 0.525453 0.029656
C29   C     C_R   0.636181 0.913254 0.585542 0.119403
C30   C     C_R   0.484735 0.953254 0.483966 0.082037
C31   C     C_R   0.524266 0.047055 0.504445 0.067348
C32   C     C_R   0.627205 0.068831 0.559506 -0.231746
C33   C     C_R   0.677041 0.003544 0.601434 -0.203745
C34   C     C_R   0.258330 0.499265 0.500549 0.893194
C35   C     C_R   0.391659 0.932769 0.421869 0.064476
C36   C     C_R   0.337252 0.999345 0.384411 -0.225969
C37   C     C_R   0.366338 0.088375 0.406961 0.097595
C38   C     C_R   0.461594 0.115091 0.467454 -0.079970
C39   C     C_R   0.302189 0.152228 0.368594 0.033746
C40   C     C_R   0.336026 0.242144 0.390348 -0.081841
C41   C     C_R   0.486047 0.209035 0.486878 0.180144
C42   C     C_3   0.896421 0.401903 0.526455 -0.116181
C43   C     C_3   0.037656 0.402442 0.530265 -0.601618
C44   C     C_3   0.937018 0.529371 0.406506 -0.017510
C45   C     C_3   0.953725 0.570248 0.566597 0.187268
C46   C     C_3   0.880737 0.502524 0.500368 -0.018393
H1    H     H_    0.855698 0.358575 0.477028 0.143157
H2    H     H_    0.408525 0.256134 0.028456 0.149810
H3    H     H_    0.418806 0.265803 0.732025 0.159810
H4    H     H_    0.440251 0.535006 0.778585 0.252179
H5    H     H_    0.463744 0.351995 0.118354 0.181689
H6    H     H_    0.752308 0.024847 0.645510 0.143826
H7    H     H_    0.289462 0.292142 0.361777 0.143216
H8    H     H_    0.272201 0.979229 0.334844 0.153399
H9    H     H_    0.761315 0.874264 0.676756 0.187619
H10   H     H_    0.439804 0.756557 0.473525 0.183072
H11   H     H_    0.063956 0.373888 0.591414 0.176113
H12   H     H_    0.680363 0.135111 0.571308 0.133690
H13   H     H_    0.053516 0.349840 0.492209 0.187551
N1    N     N_R   0.573860 0.731700 0.552730 -0.157451
N2    N     N_R   0.426060 0.268290 0.447230 -0.112181
O1    O     O_R   0.462770 0.383110 0.605620 -0.610277
O2    O     O_R   0.510160 0.531900 0.639510 -0.637035
O3    O     O_R   0.661510 0.425600 0.483070 -0.604951
O4    O     O_R   0.708900 0.574390 0.516960 -0.631023
O5    O     O_R   0.489840 0.468100 0.360490 -0.619237
O6    O     O_R   0.537230 0.616890 0.394380 -0.638760
O7    O     O_R   0.291100 0.425610 0.483040 -0.636409
O8    O     O_R   0.338490 0.574400 0.516930 -0.615001
Zn1   Zn    Zn3+2 0.468350 0.400660 0.477370 0.973622
Zn2   Zn    Zn3+2 0.531650 0.599340 0.522630 0.965270
N3    N     N_3   0.187746 0.664802 0.549958 -0.441009
H14   H     H_    0.269471 0.685009 0.584839 0.272179
H15   H     H_    0.176041 0.720124 0.510952 0.157769
N4    N     N_3   0.927463 0.622055 0.372551 -0.418707
H16   H     H_    0.852139 0.629856 0.335326 0.255468
H17   H     H_    0.974877 0.682126 0.396828 0.188809
N5    N     N_3   0.165602 0.616196 0.370974 -0.432415
H18   H     H_    0.239826 0.619615 0.329945 0.234014
H19   H     H_    0.173343 0.674535 0.400244 0.187085
N6    N     N_3   0.466591 0.432289 0.217752 -0.480355
H20   H     H_    0.376829 0.411705 0.246514 0.242174
H21   H     H_    0.539981 0.409454 0.248518 0.256993
N7    N     N_3   0.583697 0.758402 0.284415 -0.401020
H22   H     H_    0.525019 0.748336 0.335180 0.198547
H23   H     H_    0.576174 0.822081 0.259396 0.192493
N8    N     N_3   0.590091 0.777241 0.955967 -0.436224
H24   H     H_    0.606568 0.836109 0.984146 0.208655
H25   H     H_    0.629053 0.796705 0.893516 0.217916
N9    N     N_3   0.370447 0.189843 0.883916 -0.482668
H26   H     H_    0.337891 0.148023 0.836939 0.200312
H27   H     H_    0.370254 0.160820 0.945104 0.193301
N10   N     N_3   0.828072 0.353324 0.601699 -0.424500
H28   H     H_    0.833389 0.285832 0.601582 0.166560
H29   H     H_    0.881862 0.371680 0.653141 0.201552
C47   C     C_2   0.556483 0.653089 0.846908 0.331745
H30   H     H_    0.648023 0.651276 0.823872 0.129204
O9    O     O_2   0.484245 0.687996 0.804352 -0.524380
C48   C     C_2   0.582099 0.816652 0.118712 0.341631
H31   H     H_    0.506269 0.847838 0.097365 0.058945
O10   O     O_2   0.690120 0.864296 0.126752 -0.543042
N11   N     N_3   0.576749 0.249114 0.544004 -0.384818
H32   H     H_    0.558661 0.213969 0.603164 0.175225
H33   H     H_    0.665865 0.257740 0.517160 0.181017
C49   C     C_2   0.717032 0.696676 0.665064 0.319506
H34   H     H_    0.696878 0.626426 0.654812 0.146986
O11   O     O_2   0.795247 0.723874 0.717831 -0.640286
N12   N     N_3   0.361740 0.847439 0.386833 -0.515588
H35   H     H_    0.427020 0.857570 0.338630 0.174870
H36   H     H_    0.273028 0.834658 0.358955 0.180130
N13   N     N_3   0.211125 0.130293 0.302510 -0.457089
H37   H     H_    0.156660 0.178512 0.294818 0.188265
H38   H     H_    0.149714 0.063691 0.313255 0.187834
C50   C     C_2   0.856461 0.462943 0.347022 0.419355
H39   H     H_    0.864183 0.393096 0.345669 0.032030
O12   O     O_2   0.776026 0.484666 0.302015 -0.593189
C51   C     C_2   0.107504 0.454798 0.350365 0.391441
H40   H     H_    0.062511 0.382541 0.363831 0.032032
O13   O     O_2   0.175215 0.476499 0.288170 -0.597150
N14   N     N_3   0.932362 0.663303 0.544672 -0.431845
H41   H     H_    0.997598 0.714083 0.510402 0.157163
H42   H     H_    0.925234 0.696987 0.595565 0.215978
N15   N     N_3   0.889436 0.534822 0.649074 -0.462282
H43   H     H_    0.867074 0.584458 0.680904 0.210764
H44   H     H_    0.936743 0.503896 0.694434 0.172212
C52   C     C_2   0.161708 0.514976 0.645123 0.349232
H45   H     H_    0.112682 0.449900 0.669115 0.026921
O14   O     O_2   0.248184 0.565354 0.692886 -0.514213

loop_
_geom_bond_atom_site_label_1
_geom_bond_atom_site_label_2
_ccdc_geom_bond_type
N2    Zn1   S    
N8    H24   S    
N10   H28   S    
C42   N10   S    
N12   H35   S    
C19   C20   A    
C41   N2    A    
C24   N6    S    
C1    O1    A    
C16   H2    S    
N6    H20   S    
C7    C8    A    
C45   C46   S    
C45   N15   S    
C33   H6    S    
C7    C11   A    
C49   O11   D    
C52   H45   S    
C30   C35   A    
C1    C5    S    
C23   O5    A    
C28   C29   A    
C19   C21   A    
N7    H23   S    
C27   N1    A    
C51   O13   D    
C30   C31   A    
C12   O3    A    
N5    H19   S    
N15   H44   S    
C15   C16   A    
C6    C22   A    
C29   C33   A    
C41   N11   S    
O1    Zn1   S    
C18   C19   A    
C42   C46   S    
C23   O6    A    
O8    Zn2   S    
C20   C24   A    
C35   N12   S    
C3    C51   S    
C31   C32   A    
N14   H42   S    
C47   O9    D    
C32   H12   S    
C9    C10   A    
C43   H13   S    
C2    C34   S    
C39   N13   S    
C44   C50   S    
N10   H29   S    
C13   C14   A    
C1    O2    A    
C26   C49   S    
N6    H21   S    
C44   C46   S    
C50   H39   S    
C4    C45   S    
C25   C29   A    
C3    C44   S    
C14   C20   A    
N15   H43   S    
N7    H22   S    
C38   C41   A    
C12   C46   S    
C34   O7    A    
C39   C40   A    
C27   H10   S    
N1    Zn2   S    
C25   C26   A    
O4    Zn2   S    
C7    N9    S    
C40   N2    A    
C35   C36   A    
C22   N7    S    
C44   N4    S    
C2    C4    S    
N4    H16   S    
C5    C9    A    
C37   C38   A    
C11   C16   A    
N9    H27   S    
C48   H31   S    
C2    C43   S    
C6    C24   A    
C47   H30   S    
C17   C18   A    
N13   H38   S    
C17   C47   S    
N11   H33   S    
N4    H17   S    
C34   O8    A    
C45   N14   S    
N3    H15   S    
C48   O10   D    
O2    Zn2   S    
O3    Zn1   S    
N8    H25   S    
C15   H5    S    
C42   C43   S    
C4    N3    S    
N14   H41   S    
C12   O4    A    
C36   C37   A    
C52   O14   D    
N13   H37   S    
N5    H18   S    
C9    H4    S    
C25   H9    S    
N3    H14   S    
C10   C13   A    
C5    C8    A    
C50   O12   D    
C13   C17   A    
C49   H34   S    
C18   N8    S    
C31   C38   A    
C4    C52   S    
C32   C33   A    
C28   C30   A    
C2    C3    S    
C37   C39   A    
C51   H40   S    
N9    H26   S    
O5    Zn1   S    
C21   C48   S    
C6    C23   S    
N12   H36   S    
O6    Zn2   S    
C42   H1    S    
N11   H32   S    
C36   H8    S    
C10   C11   A    
C43   H11   S    
O7    Zn1   S    
C40   H7    S    
C27   C28   A    
C14   C15   A    
C21   C22   A    
C3    N5    S    
C26   N1    A    
C8    H3    S    
