data_mof_unit_30567.cif
_audit_creation_date              2012-12-10T18:22:35-0500
_audit_creation_method            fapswitch 2.2
_symmetry_space_group_name_H-M    P1
_symmetry_Int_Tables_number       1
_space_group_crystal_system       triclinic
_cell_length_a                    23.445235
_cell_length_b                    10.679222
_cell_length_c                    9.509176
_cell_angle_alpha                 90.930461
_cell_angle_beta                  91.115285
_cell_angle_gamma                 90.347439
_cell_volume                      2380.06431853

loop_
_atom_site_label
_atom_site_type_symbol
_atom_type_description
_atom_site_fract_x
_atom_site_fract_y
_atom_site_fract_z
_atom_type_partial_charge
C1    C     C_R   0.500657 0.259805 0.498899 0.787311
C2    C     C_R   0.498542 0.739913 0.501134 0.803952
C3    C     C_R   0.240151 0.572817 0.593805 -0.100955
C4    C     C_R   0.759698 0.424805 0.407079 -0.111413
C5    C     C_R   0.299580 0.572774 0.595206 -0.233855
C6    C     C_R   0.700273 0.426353 0.404996 -0.248887
C7    C     C_R   0.328954 0.500736 0.495978 -0.033468
C8    C     C_R   0.671072 0.499023 0.504001 -0.026440
C9    C     C_R   0.298357 0.429248 0.394699 -0.239762
C10   C     C_R   0.701856 0.569556 0.605730 -0.230154
C11   C     C_R   0.238890 0.429479 0.393188 -0.102225
C12   C     C_R   0.761306 0.567891 0.607864 -0.106809
C13   C     C_R   0.209581 0.500969 0.493023 0.355386
C14   C     C_R   0.790435 0.495931 0.508149 0.353648
C15   C     C_3   0.542577 0.041123 0.580462 0.065522
C16   C     C_3   0.455065 0.957362 0.419696 0.121023
C17   C     C_3   0.548144 0.952932 0.450713 -0.305531
C18   C     C_3   0.449589 0.046000 0.549421 -0.214044
C19   C     C_3   0.497243 0.876442 0.503249 -0.091603
C20   C     C_3   0.500771 0.122878 0.496908 -0.113624
C21   C     C_3   0.491992 0.963614 0.631911 0.030713
C22   C     C_3   0.505670 0.035169 0.367522 0.059367
C23   C     C_R   0.391309 0.499973 0.498804 0.782483
C24   C     C_R   0.608700 0.500598 0.501176 0.768819
C25   C     C_3   0.534511 0.583881 0.052909 0.169422
C26   C     C_3   0.465343 0.416261 0.946947 0.179180
C27   C     C_3   0.484505 0.607483 0.950003 -0.125520
C28   C     C_3   0.515531 0.392290 0.049967 -0.110961
C29   C     C_3   0.550133 0.476539 0.953399 0.168075
C30   C     C_3   0.449849 0.523737 0.046726 0.177400
C31   C     C_R   0.879692 0.604542 0.472832 0.533349
C32   C     C_R   0.120336 0.391960 0.527884 0.531581
C33   C     C_R   0.880566 0.389816 0.540041 0.529249
C34   C     C_R   0.119413 0.606680 0.460664 0.530368
C35   C     C_R   0.940370 0.388033 0.537505 -0.010287
C36   C     C_R   0.059619 0.608389 0.463080 -0.012075
C37   C     C_R   0.969923 0.497963 0.501932 -0.018910
C38   C     C_R   0.030078 0.498448 0.498642 -0.018469
C39   C     C_R   0.939465 0.607406 0.469576 -0.014066
C40   C     C_R   0.060548 0.389020 0.531012 -0.013270
C41   C     C_R   0.971184 0.279402 0.569568 -0.164479
C42   C     C_R   0.028810 0.717005 0.430951 -0.164172
C43   C     C_R   0.030657 0.279887 0.566346 -0.165169
C44   C     C_R   0.969348 0.716522 0.434176 -0.164901
Cu1   Cu    Cu3+1 0.500010 0.499990 0.643150 0.915952
Cu2   Cu    Cu3+1 0.499990 0.500010 0.356850 0.906166
H1    H     H_    0.949480 0.193687 0.597188 0.189099
H2    H     H_    0.050510 0.802722 0.403321 0.189058
H3    H     H_    0.471713 0.697473 0.904856 0.182745
H4    H     H_    0.529265 0.302517 0.094879 0.137183
H5    H     H_    0.053087 0.194548 0.591674 0.189214
H6    H     H_    0.946921 0.801864 0.408841 0.188924
H7    H     H_    0.217777 0.628356 0.671145 0.142126
H8    H     H_    0.781945 0.368700 0.330037 0.142265
H9    H     H_    0.322623 0.630328 0.672173 0.160740
H10   H     H_    0.677092 0.369103 0.328007 0.144587
H11   H     H_    0.320362 0.371241 0.318983 0.133212
H12   H     H_    0.680037 0.628064 0.681235 0.134005
H13   H     H_    0.215537 0.373663 0.315086 0.141737
H14   H     H_    0.784797 0.623183 0.686184 0.143602
H15   H     H_    0.588251 0.912634 0.409873 0.144076
H16   H     H_    0.409834 0.086518 0.591887 0.144197
N1    N     N_R   0.851591 0.496889 0.507662 -0.468040
N2    N     N_R   0.148418 0.499685 0.493214 -0.469475
N3    N     N_3   0.500040 0.499970 0.858290 -0.204675
N4    N     N_3   0.499960 0.500030 0.141710 -0.201608
O1    O     O_R   0.500030 0.316850 0.620870 -0.591630
O2    O     O_R   0.499970 0.683150 0.379130 -0.599527
O3    O     O_R   0.500000 0.316860 0.379090 -0.586361
O4    O     O_R   0.500000 0.683140 0.620910 -0.571879
O5    O     O_R   0.417890 0.499960 0.620920 -0.589497
O6    O     O_R   0.582110 0.500040 0.379080 -0.593776
O7    O     O_R   0.417870 0.499970 0.379140 -0.595635
O8    O     O_R   0.582130 0.500030 0.620860 -0.595165
O9    O     O_2   0.849818 0.708048 0.440087 -0.539559
O10   O     O_2   0.150234 0.288488 0.560617 -0.539591
O11   O     O_2   0.851570 0.285763 0.575330 -0.551734
O12   O     O_2   0.148380 0.710763 0.425331 -0.543180
C45   C     C_3   0.570030 0.694398 0.113273 -0.365460
C46   C     C_3   0.608718 0.752244 0.002779 -0.409202
C47   C     C_3   0.629391 0.882830 0.047497 -0.862436
H17   H     H_    0.593089 0.948687 0.048007 0.256528
H18   H     H_    0.649794 0.881051 0.153870 0.262132
H19   H     H_    0.661054 0.916962 0.971431 0.246746
H20   H     H_    0.646837 0.692709 0.989424 0.230956
H21   H     H_    0.585825 0.758432 0.899672 0.218463
H22   H     H_    0.539951 0.766623 0.151937 0.226156
H23   H     H_    0.596863 0.663834 0.203242 0.218654
C48   C     C_3   0.429091 0.307923 0.884369 -0.358987
C49   C     C_3   0.383975 0.261571 0.985942 -0.425093
C50   C     C_3   0.357008 0.138712 0.934105 -0.750279
H24   H     H_    0.317948 0.119774 0.994301 0.236271
H25   H     H_    0.344878 0.143419 0.820790 0.251810
H26   H     H_    0.387254 0.061000 0.950913 0.318749
H27   H     H_    0.403171 0.248893 0.092482 0.244213
H28   H     H_    0.349286 0.331188 0.992905 0.222412
H29   H     H_    0.406868 0.337666 0.787223 0.222651
H30   H     H_    0.458152 0.229792 0.856706 0.220054
C51   C     C_3   0.609895 0.443679 0.903331 -0.375928
C52   C     C_3   0.650252 0.411023 0.026259 -0.428710
C53   C     C_3   0.712767 0.428682 0.988116 -0.810282
H31   H     H_    0.722748 0.377117 0.889714 0.264931
H32   H     H_    0.722356 0.529535 0.973472 0.247873
H33   H     H_    0.740645 0.393658 0.074354 0.245909
H34   H     H_    0.641834 0.472005 0.118973 0.244661
H35   H     H_    0.642798 0.312265 0.056642 0.210305
H36   H     H_    0.607019 0.362643 0.828955 0.214444
H37   H     H_    0.627048 0.525380 0.848166 0.215889
C54   C     C_3   0.391099 0.562897 0.098359 -0.376644
C55   C     C_3   0.351592 0.603118 0.977141 -0.420082
C56   C     C_3   0.289886 0.612193 0.024222 -0.810141
H38   H     H_    0.273667 0.518301 0.053188 0.251451
H39   H     H_    0.286680 0.676603 0.116394 0.267397
H40   H     H_    0.262817 0.648269 0.936966 0.246720
H41   H     H_    0.365555 0.695854 0.938602 0.254472
H42   H     H_    0.353545 0.534408 0.888565 0.236994
H43   H     H_    0.371658 0.482869 0.152154 0.210997
H44   H     H_    0.396239 0.642429 0.174206 0.213963
C57   C     C_3   0.592885 0.080590 0.675679 -0.423561
C58   C     C_3   0.638325 0.151650 0.594748 -0.349844
C59   C     C_3   0.693342 0.164680 0.681984 -0.789440
H45   H     H_    0.683988 0.200362 0.789098 0.247745
H46   H     H_    0.714380 0.072163 0.690982 0.258771
H47   H     H_    0.722964 0.230557 0.630821 0.274944
H48   H     H_    0.648000 0.101790 0.494611 0.220146
H49   H     H_    0.622126 0.246057 0.569192 0.212277
H50   H     H_    0.577128 0.140186 0.763395 0.190660
H51   H     H_    0.611684 0.994488 0.721043 0.200526
C60   C     C_3   0.404993 0.901221 0.333901 -0.353853
C61   C     C_3   0.359243 0.998910 0.301955 -0.340517
C62   C     C_3   0.309416 0.940257 0.218563 -0.816267
H52   H     H_    0.324242 0.902079 0.116301 0.263971
H53   H     H_    0.289766 0.863763 0.279334 0.268257
H54   H     H_    0.276476 0.012338 0.198199 0.247276
H55   H     H_    0.342685 0.038668 0.401719 0.217605
H56   H     H_    0.377866 0.076333 0.241101 0.247031
H57   H     H_    0.421354 0.860491 0.234429 0.223670
H58   H     H_    0.385717 0.824502 0.395182 0.181494
C63   C     C_2   0.481165 0.926553 0.779553 0.340360
H59   H     H_    0.515332 0.929223 0.857866 0.091070
O13   O     O_2   0.433681 0.890993 0.811345 -0.584700
C64   C     C_2   0.517399 0.073855 0.220686 0.313995
H60   H     H_    0.557294 0.120954 0.199269 0.045198
O14   O     O_2   0.483401 0.050738 0.125001 -0.588724

loop_
_geom_bond_atom_site_label_1
_geom_bond_atom_site_label_2
_ccdc_geom_bond_type
C53   H31   S    
C8    C24   S    
Cu1   O5    S    
C18   C21   S    
C11   C13   A    
C36   C42   A    
C61   H55   S    
C62   H54   S    
C43   H5    S    
C45   H22   S    
C47   H17   S    
C54   H43   S    
C49   H27   S    
Cu1   Cu2   S    
C26   C48   S    
C51   H37   S    
C52   H34   S    
C37   C38   A    
C28   C29   S    
C10   H12   S    
Cu2   N4    S    
C2    O2    A    
C58   H49   S    
C18   C20   S    
C15   C17   S    
C55   C56   S    
Cu2   O3    S    
C46   H21   S    
C17   H15   S    
C28   H4    S    
C40   C43   A    
C60   H58   S    
C56   H38   S    
C15   C57   S    
C59   H47   S    
Cu1   O1    S    
Cu2   O6    S    
C3    C13   A    
C57   H51   S    
C44   H6    S    
Cu1   O4    S    
C53   H32   S    
C27   C30   S    
C41   C43   A    
C42   C44   A    
C23   O7    A    
C11   H13   S    
C45   H23   S    
C47   H18   S    
C54   H44   S    
C25   C29   S    
C15   C20   S    
C29   C51   S    
C30   C54   S    
C31   N1    A    
C32   N2    A    
C4    C6    A    
C6    H10   S    
C50   H24   S    
C5    C7    A    
C58   H48   S    
C17   C19   S    
C6    C8    A    
C3    C5    A    
C1    O3    A    
C48   H29   S    
Cu1   O8    S    
C28   N4    S    
Cu2   O2    S    
C46   H20   S    
C27   N3    S    
C23   O5    A    
C50   H25   S    
C31   O9    S    
C51   C52   S    
C33   N1    A    
C22   C64   S    
C34   N2    A    
C41   H1    S    
C56   H39   S    
C42   H2    S    
C63   O13   D    
C57   C58   S    
C16   C60   S    
C9    C11   A    
C59   H45   S    
C30   N4    S    
C10   C12   A    
C29   N3    S    
C16   C18   S    
C12   C14   A    
C26   C30   S    
C53   H33   S    
Cu1   N3    S    
C64   O14   D    
C21   C63   S    
C62   H52   S    
C55   H42   S    
C47   H19   S    
C58   C59   S    
C24   O6    A    
C60   C61   S    
C35   C37   A    
C7    C9    A    
C1    C20   S    
C16   C22   S    
C4    H8    S    
C2    C19   S    
C25   C45   S    
C26   N3    S    
C52   H35   S    
C5    H9    S    
C61   H56   S    
C25   N4    S    
C20   C22   S    
C46   C47   S    
C62   H53   S    
C32   O10   S    
C63   H59   S    
C24   O8    A    
C49   H28   S    
C39   C44   A    
C1    O1    A    
C25   C27   S    
C51   H36   S    
C26   C28   S    
C17   C22   S    
C48   H30   S    
C36   C38   A    
C61   C62   S    
C37   C39   A    
C54   C55   S    
C34   O12   S    
C50   H26   S    
C38   C40   A    
C3    H7    S    
C33   O11   S    
C49   C50   S    
C13   N2    S    
C16   C19   S    
C7    C23   S    
C14   N1    S    
C52   C53   S    
C33   C35   A    
C34   C36   A    
C31   C39   A    
C56   H40   S    
C9    H11   S    
C32   C40   A    
C4    C14   A    
C35   C41   A    
C59   H46   S    
C45   C46   S    
C12   H14   S    
C15   C21   S    
C60   H57   S    
C8    C10   A    
C64   H60   S    
C18   H16   S    
C48   C49   S    
C2    O4    A    
C55   H41   S    
Cu2   O7    S    
C27   H3    S    
C19   C21   S    
C57   H50   S    
