data_mof_unit_10284.cif
_audit_creation_date              2013-03-05T16:30:49-0500
_audit_creation_method            fapswitch 2.2
_symmetry_space_group_name_H-M    P1
_symmetry_Int_Tables_number       1
_space_group_crystal_system       triclinic
_cell_length_a                    11.046117
_cell_length_b                    10.862743
_cell_length_c                    9.55978
_cell_angle_alpha                 90.677443
_cell_angle_beta                  102.340434
_cell_angle_gamma                 90.240798
_cell_volume                      1120.48039486

loop_
_atom_site_label
_atom_site_type_symbol
_atom_site_description
_atom_site_fract_x
_atom_site_fract_y
_atom_site_fract_z
_atom_type_partial_charge
O1    O     O_R   0.500000 0.319640 0.618810 -0.590970
O2    O     O_R   0.500010 0.319680 0.381230 -0.539185
C1    C     C_R   0.496767 0.262415 0.497993 0.829025
O3    O     O_R   0.320680 0.500000 0.575130 -0.591151
O4    O     O_R   0.320690 0.500040 0.337550 -0.599485
C2    C     C_R   0.262874 0.498251 0.442189 0.851468
Cu1   Cu    Cu3+1 0.499990 0.499980 0.640670 0.987201
Cu2   Cu    Cu3+1 0.500010 0.500020 0.359330 0.983944
O5    O     O_R   0.499990 0.680320 0.618770 -0.548450
O6    O     O_R   0.500000 0.680360 0.381190 -0.585462
O7    O     O_R   0.679310 0.499960 0.662450 -0.585571
O8    O     O_R   0.679320 0.500000 0.424870 -0.585873
C3    C     C_R   0.499251 0.737576 0.500305 0.878736
C4    C     C_R   0.737052 0.498613 0.558020 0.878052
H1    H     H_    0.884754 0.456609 0.379134 0.171132
H2    H     H_    0.117039 0.497282 0.628359 0.174450
C5    C     C_2   0.128106 0.490581 0.410372 -0.333581
C6    C     C_2   0.067655 0.488912 0.517364 -0.122652
H3    H     H_    0.921000 0.516332 0.700957 0.150826
C7    C     C_2   0.871853 0.498102 0.591369 -0.311018
C8    C     C_2   0.933481 0.478664 0.487553 -0.146660
H4    H     H_    0.078140 0.484542 0.299385 0.146159
C9    C     C_R   0.463049 0.065285 0.609179 -0.056996
C10   C     C_R   0.483365 0.129333 0.490723 -0.162663
C11   C     C_R   0.485790 0.061425 0.363650 0.471412
C12   C     C_R   0.490180 0.932666 0.368299 -0.246842
H5    H     H_    0.499819 0.882606 0.272628 0.215584
C13   C     C_R   0.489746 0.870541 0.496547 -0.146503
C14   C     C_R   0.469672 0.939273 0.613490 0.026998
C15   C     C_3   0.522638 0.941960 0.772480 0.589554
C16   C     C_3   0.511408 0.082142 0.766450 -0.466720
H6    H     H_    0.439707 0.120341 0.820083 0.195319
H7    H     H_    0.601643 0.132283 0.791420 0.210659
C17   C     C_R   0.608749 0.503618 0.100384 0.255305
N1    N     N_R   0.500780 0.500930 0.148120 -0.178970
C18   C     C_R   0.392954 0.486031 0.047527 -0.040777
H8    H     H_    0.305732 0.475809 0.080013 0.136412
C19   C     C_R   0.392930 0.486338 0.899282 -0.020102
H9    H     H_    0.305665 0.476511 0.823670 0.129986
N2    N     N_R   0.500790 0.500890 0.852210 -0.179810
C20   C     C_R   0.608816 0.501564 0.953037 0.219888
C21   C     C_3   0.706840 0.598088 0.970339 -0.394314
C22   C     C_3   0.704213 0.603816 0.128090 -0.444289
H10   H     H_    0.795211 0.561456 0.949427 0.182644
H11   H     H_    0.673653 0.682642 0.911697 0.285103
H12   H     H_    0.792934 0.574459 0.196625 0.180888
H13   H     H_    0.667450 0.691939 0.161748 0.253837
O9    O     O_3   0.498892 0.119312 0.239685 -0.548743
C23   C     C_3   0.382342 0.120682 0.144349 -0.215521
H14   H     H_    0.390335 0.176136 0.050083 0.173573
H15   H     H_    0.310638 0.164980 0.193922 0.135302
H16   H     H_    0.352450 0.026122 0.105575 0.202485
N3    N     N_R   0.440353 0.883751 0.854865 0.106238
O10   O     O_R   0.484718 0.812695 0.961972 -0.368089
O11   O     O_R   0.321449 0.903083 0.821941 -0.384906
N4    N     N_R   0.652639 0.903955 0.816806 0.096057
O12   O     O_R   0.712250 0.856926 0.725514 -0.391798
O13   O     O_R   0.713289 0.928976 0.946431 -0.331138

loop_
_geom_bond_atom_site_label_1
_geom_bond_atom_site_label_2
_geom_bond_distance
_ccdc_geom_bond_type
O4    Cu2   1.946945 S    
C19   N2    1.369774 A    
Cu1   N2    2.020312 S    
C16   H7    1.112573 S    
C3    C13   1.448938 S    
N2    C20   1.364236 A    
C14   C15   1.507307 S    
C5    H4    1.087389 S    
C6    C8    1.451739 S    
C22   H13   1.112033 S    
C20   C21   1.486269 S    
C12   C13   1.407338 A    
H3    C7    1.087456 S    
Cu2   O8    1.945563 S    
C9    C10   1.393814 A    
C23   H16   1.112369 S    
C18   C19   1.417174 A    
C5    C6    1.335917 D    
C12   H5    1.083459 S    
Cu1   Cu2   2.689602 S    
H2    C6    1.087027 S    
O6    C3    1.292425 A    
N3    O10   1.300666 A    
C10   C11   1.418957 A    
Cu1   O7    1.946947 S    
C11   O9    1.382368 S    
C1    C10   1.451910 S    
O4    C2    1.297044 A    
C17   C20   1.408680 A    
C21   H10   1.111742 S    
O3    Cu1   1.945562 S    
O9    C23   1.409703 S    
C9    C14   1.371734 A    
O3    C2    1.294482 A    
C18   H8    1.079274 S    
C22   H12   1.106577 S    
N4    O13   1.301514 A    
O2    C1    1.291324 A    
Cu1   O5    1.972603 S    
N3    O11   1.302090 A    
C15   C16   1.529087 S    
C17   N1    1.365338 A    
C15   N3    1.469417 S    
C21   C22   1.515089 S    
C4    C7    1.454671 S    
H1    C8    1.084409 S    
C19   H9    1.078211 S    
C7    C8    1.333427 D    
Cu2   O6    1.967648 S    
C23   H14   1.108668 S    
O7    C4    1.294453 A    
N4    O12   1.301586 A    
C2    C5    1.456155 S    
O5    C3    1.296993 A    
C13   C14   1.394288 A    
C23   H15   1.114325 S    
C11   C12   1.400628 A    
O1    Cu1   1.967647 S    
C15   N4    1.470083 S    
Cu2   N1    2.021096 S    
C16   H6    1.110706 S    
O2    Cu2   1.972602 S    
C17   C22   1.493635 S    
N1    C18   1.369199 A    
O8    C4    1.296419 A    
O1    C1    1.298803 A    
C21   H11   1.104287 S    
C9    C16   1.492881 S    
