data_mof_unit_36005.cif
_audit_creation_date              2012-12-11T15:23:57-0500
_audit_creation_method            fapswitch 2.2
_symmetry_space_group_name_H-M    P1
_symmetry_Int_Tables_number       1
_space_group_crystal_system       triclinic
_cell_length_a                    17.250262
_cell_length_b                    24.373329
_cell_length_c                    14.904605
_cell_angle_alpha                 89.855377
_cell_angle_beta                  125.405223
_cell_angle_gamma                 89.822692
_cell_volume                      5107.64154974

loop_
_atom_site_label
_atom_site_type_symbol
_atom_type_description
_atom_site_fract_x
_atom_site_fract_y
_atom_site_fract_z
_atom_type_partial_charge
C1    C     C_R   0.351941 0.348280 0.909011 -0.144191
C2    C     C_R   0.430322 0.498551 0.631276 0.051735
C3    C     C_3   0.590778 0.066597 0.815304 -0.306782
C4    C     C_3   0.513372 0.023513 0.774566 -0.989985
C5    C     C_3   0.473952 0.129601 0.230993 0.194062
C6    C     C_3   0.470273 0.081795 0.161771 -0.324710
C7    C     C_3   0.568639 0.056343 0.213923 -0.964476
C8    C     C_3   0.383006 0.704829 0.285117 0.142146
C9    C     C_3   0.427253 0.749674 0.254714 -0.330942
C10   C     C_3   0.494111 0.786236 0.352707 -1.035425
C11   C     C_3   0.598874 0.718246 0.725198 0.186462
C12   C     C_3   0.498368 0.697097 0.640482 -0.280674
C13   C     C_R   0.959962 0.997896 0.287387 0.044010
C14   C     C_3   0.432520 0.742915 0.563782 -1.061109
C15   C     C_3   0.883013 0.204750 0.285229 0.142243
C16   C     C_3   0.927402 0.249581 0.254990 -0.330746
C17   C     C_3   0.994467 0.286001 0.353151 -1.035749
C18   C     C_3   0.098782 0.218293 0.725269 0.186475
C19   C     C_3   0.998278 0.197142 0.640546 -0.280714
C20   C     C_3   0.932392 0.242975 0.563940 -1.060930
C21   C     C_3   0.939606 0.439779 0.247506 -0.982596
C22   C     C_3   0.140727 0.412057 0.453436 -1.008405
C23   C     C_3   0.439415 0.939841 0.247489 -0.980858
C24   C     C_R   0.930319 0.998547 0.631276 0.051742
C25   C     C_3   0.640695 0.912064 0.453466 -1.008066
C26   C     C_R   0.203113 0.500668 0.630548 0.185299
C27   C     C_R   0.826372 0.496375 0.311601 0.168187
C28   C     C_R   0.703104 0.000676 0.630547 0.185351
C29   C     C_R   0.326365 0.996355 0.311746 0.168384
C30   C     C_2   0.982707 0.467268 0.357637 0.310910
C31   C     C_2   0.086806 0.463358 0.443140 0.317122
C32   C     C_2   0.482667 0.967285 0.357688 0.310577
C33   C     C_R   0.645190 0.346911 0.089756 -0.148635
C34   C     C_2   0.586790 0.963385 0.443112 0.316895
C35   C     C_2   0.928916 0.493932 0.383478 -0.299046
C36   C     C_2   0.128569 0.505671 0.512901 -0.301678
C37   C     C_2   0.428912 0.993881 0.383659 -0.299329
C38   C     C_2   0.628548 0.005690 0.512898 -0.301658
C39   C     C_R   0.150915 0.685802 0.899317 0.527282
C40   C     C_R   0.847898 0.681081 0.091852 0.524760
C41   C     C_R   0.650926 0.185790 0.899358 0.527261
C42   C     C_R   0.347906 0.181066 0.091821 0.524784
C43   C     C_R   0.601276 0.230960 0.898186 -0.326665
C44   C     C_R   0.851938 0.848280 0.909014 -0.144194
C45   C     C_R   0.393393 0.229190 0.095437 -0.349052
C46   C     C_R   0.101243 0.730962 0.898146 -0.326669
C47   C     C_R   0.893374 0.729208 0.095463 -0.349019
C48   C     C_R   0.631846 0.256831 0.996709 0.030138
C49   C     C_R   0.360329 0.257947 0.998315 0.048421
C50   C     C_R   0.131782 0.756818 0.996672 0.030115
C51   C     C_R   0.860333 0.757950 0.998334 0.048456
C52   C     C_R   0.695988 0.230001 0.095724 -0.361610
C53   C     C_R   0.293354 0.233698 0.897719 -0.360360
C54   C     C_R   0.195903 0.729975 0.095676 -0.361598
C55   C     C_R   0.145171 0.846904 0.089746 -0.148664
C56   C     C_R   0.793390 0.733687 0.897743 -0.360347
C57   C     C_R   0.255217 0.689327 0.100051 0.557326
C58   C     C_R   0.736303 0.691836 0.892491 0.518175
C59   C     C_R   0.755262 0.189329 0.100092 0.557319
C60   C     C_R   0.236267 0.191850 0.892472 0.518143
C61   C     C_R   0.405489 0.631224 0.088997 -0.121550
C62   C     C_R   0.598436 0.622069 0.907399 -0.137222
C63   C     C_R   0.905483 0.131209 0.089004 -0.121563
C64   C     C_R   0.098439 0.122061 0.907398 -0.137241
C65   C     C_R   0.238252 0.671291 0.999308 -0.191172
C66   C     C_R   0.314043 0.643498 0.997862 0.128693
C67   C     C_R   0.759195 0.668386 0.992707 -0.170012
C68   C     C_R   0.738265 0.171278 0.999341 -0.191088
C69   C     C_R   0.259187 0.168383 0.992687 -0.169991
C70   C     C_R   0.385773 0.547101 0.461903 -0.174174
C71   C     C_R   0.395369 0.546794 0.376079 -0.164303
C72   C     C_R   0.885761 0.047091 0.461895 -0.174197
C73   C     C_R   0.895363 0.046781 0.376076 -0.164390
C74   C     C_R   0.414648 0.497300 0.344881 0.141602
C75   C     C_R   0.395541 0.497761 0.515947 0.145990
C76   C     C_R   0.914664 0.997289 0.344898 0.141642
C77   C     C_R   0.686414 0.639003 0.996953 0.130566
C78   C     C_R   0.895539 0.997753 0.515948 0.146048
C79   C     C_R   0.401747 0.447550 0.381697 -0.163080
C80   C     C_R   0.391668 0.447790 0.467126 -0.167314
C81   C     C_R   0.901775 0.947538 0.381722 -0.163106
C82   C     C_R   0.891684 0.947779 0.467142 -0.167339
C83   C     C_R   0.484777 0.452531 0.253509 -0.130489
C84   C     C_R   0.450391 0.453277 0.697012 -0.125397
C85   C     C_R   0.984787 0.952527 0.253517 -0.130518
C86   C     C_R   0.950391 0.953275 0.697015 -0.125406
C87   C     C_R   0.248177 0.545516 0.695569 -0.190133
C88   C     C_R   0.814040 0.143481 0.997876 0.128604
C89   C     C_R   0.770462 0.543390 0.277461 -0.142054
C90   C     C_R   0.748176 0.045520 0.695574 -0.190146
C91   C     C_R   0.270461 0.043381 0.277539 -0.142215
C92   C     C_R   0.492332 0.543963 0.263661 -0.114386
C93   C     C_R   0.447697 0.544415 0.694797 -0.127074
C94   C     C_R   0.992349 0.043958 0.263681 -0.114387
C95   C     C_R   0.947693 0.044412 0.694793 -0.127099
C96   C     C_R   0.246882 0.454372 0.695930 -0.123758
C97   C     C_R   0.767678 0.451573 0.268094 -0.124583
C98   C     C_R   0.746873 0.954376 0.695930 -0.123787
C99   C     C_R   0.186419 0.138992 0.996948 0.130516
C100  C     C_R   0.267662 0.951563 0.268166 -0.123975
C101  C     C_R   0.311152 0.627117 0.906152 -0.137629
C102  C     C_R   0.687027 0.628588 0.089955 -0.109861
C103  C     C_R   0.811146 0.127109 0.906159 -0.137603
C104  C     C_R   0.187041 0.128574 0.089957 -0.109852
C105  C     C_R   0.444660 0.347089 0.091944 -0.152701
C106  C     C_R   0.554248 0.347618 0.906825 -0.130706
C107  C     C_R   0.944660 0.847092 0.091948 -0.152702
C108  C     C_R   0.054230 0.847616 0.906818 -0.130663
C109  C     C_R   0.383497 0.315621 0.000182 0.132349
C110  C     C_R   0.459945 0.497901 0.287368 0.044000
C111  C     C_R   0.612313 0.314866 0.997749 0.130321
C112  C     C_R   0.883494 0.815624 0.000188 0.132342
C113  C     C_R   0.112277 0.814857 0.997734 0.130287
C114  C     C_3   0.047953 0.623752 0.769767 0.164466
C115  C     C_3   0.090716 0.566637 0.815200 -0.306817
C116  C     C_3   0.013276 0.523566 0.774358 -0.989916
C117  C     C_3   0.973927 0.629632 0.231067 0.194017
C118  C     C_3   0.970199 0.581691 0.162083 -0.324636
C119  C     C_3   0.068639 0.556391 0.214023 -0.965229
C120  C     C_3   0.547969 0.123707 0.769898 0.164509
H1    H     H_    0.312709 0.335985 0.823908 0.084447
H2    H     H_    0.450457 0.245143 0.174424 0.136569
H3    H     H_    0.030907 0.314266 0.330609 0.282301
H4    H     H_    0.049347 0.260954 0.424999 0.268547
H5    H     H_    0.125286 0.237278 0.679963 0.109479
H6    H     H_    0.094400 0.250160 0.775923 0.094724
H7    H     H_    0.000849 0.164147 0.590965 0.201171
H8    H     H_    0.968355 0.180219 0.683516 0.184948
H9    H     H_    0.926011 0.275399 0.611587 0.277014
H10   H     H_    0.860632 0.226076 0.502355 0.266371
H11   H     H_    0.960346 0.261348 0.520015 0.274283
H12   H     H_    0.988804 0.442485 0.222477 0.250617
H13   H     H_    0.043886 0.747553 0.819449 0.145780
H14   H     H_    0.925295 0.396075 0.253151 0.257474
H15   H     H_    0.872334 0.459979 0.181208 0.252122
H16   H     H_    0.123104 0.399950 0.372002 0.255080
H17   H     H_    0.218757 0.418768 0.506353 0.246978
H18   H     H_    0.121930 0.378114 0.487148 0.248928
H19   H     H_    0.489016 0.941843 0.222954 0.250318
H20   H     H_    0.423729 0.896343 0.252630 0.257049
H21   H     H_    0.372843 0.960605 0.181101 0.251738
H22   H     H_    0.623138 0.899926 0.372083 0.254736
H23   H     H_    0.718727 0.918763 0.506409 0.246891
H24   H     H_    0.950416 0.745170 0.174452 0.136554
H25   H     H_    0.621859 0.878139 0.487173 0.248991
H26   H     H_    0.706545 0.244625 0.170133 0.134646
H27   H     H_    0.277311 0.250925 0.822022 0.131078
H28   H     H_    0.206442 0.744588 0.170084 0.134678
H29   H     H_    0.777374 0.750905 0.822052 0.131035
H30   H     H_    0.381412 0.586302 0.492460 0.108622
H31   H     H_    0.396998 0.585619 0.342514 0.154041
H32   H     H_    0.881390 0.086291 0.492441 0.108601
H33   H     H_    0.682895 0.333152 0.174144 0.088673
H34   H     H_    0.896978 0.085602 0.342496 0.154043
H35   H     H_    0.409097 0.408374 0.353516 0.109607
H36   H     H_    0.392129 0.408726 0.501830 0.108204
H37   H     H_    0.909143 0.908362 0.353556 0.109606
H38   H     H_    0.892153 0.908716 0.501852 0.108201
H39   H     H_    0.439760 0.644308 0.171612 0.142987
H40   H     H_    0.571900 0.620659 0.822606 0.170807
H41   H     H_    0.939745 0.144276 0.171622 0.142995
H42   H     H_    0.071909 0.120642 0.822607 0.170828
H43   H     H_    0.473601 0.409821 0.261476 0.095991
H44   H     H_    0.812702 0.835983 0.823912 0.084437
H45   H     H_    0.433691 0.410978 0.671706 0.082876
H46   H     H_    0.973612 0.909818 0.261481 0.095992
H47   H     H_    0.933691 0.910975 0.671713 0.082869
H48   H     H_    0.239926 0.587363 0.666770 0.106868
H49   H     H_    0.794941 0.584495 0.306455 0.108904
H50   H     H_    0.739928 0.087368 0.666782 0.106879
H51   H     H_    0.294940 0.084486 0.306538 0.108901
H52   H     H_    0.496771 0.584815 0.293001 0.095933
H53   H     H_    0.426905 0.586061 0.665683 0.077603
H54   H     H_    0.996804 0.084808 0.293044 0.095936
H55   H     H_    0.182875 0.833140 0.174132 0.088653
H56   H     H_    0.926899 0.086057 0.665675 0.077617
H57   H     H_    0.235466 0.412095 0.670304 0.106401
H58   H     H_    0.787757 0.408700 0.282891 0.111664
H59   H     H_    0.735444 0.912098 0.670311 0.106379
H60   H     H_    0.287715 0.908687 0.282992 0.111184
H61   H     H_    0.255387 0.632142 0.820138 0.170395
H62   H     H_    0.739263 0.641449 0.172905 0.152349
H63   H     H_    0.755376 0.132138 0.820147 0.170380
H64   H     H_    0.239299 0.141415 0.172915 0.152352
H65   H     H_    0.491821 0.332769 0.175949 0.088640
H66   H     H_    0.960530 0.513921 0.462352 0.118010
H67   H     H_    0.507354 0.334827 0.822075 0.086781
H68   H     H_    0.991825 0.832773 0.175953 0.088628
H69   H     H_    0.007327 0.834829 0.822066 0.086761
H70   H     H_    0.001555 0.621726 0.678426 0.133228
H71   H     H_    0.000942 0.636061 0.795260 0.095407
H72   H     H_    0.136748 0.554930 0.788573 0.216027
H73   H     H_    0.135081 0.567308 0.906622 0.202561
H74   H     H_    0.966835 0.533942 0.801107 0.269226
H75   H     H_    0.046562 0.482822 0.809042 0.272748
H76   H     H_    0.969420 0.521105 0.683092 0.262430
H77   H     H_    0.093671 0.545622 0.487982 0.106079
H78   H     H_    0.003049 0.613989 0.315122 0.126346
H79   H     H_    0.024474 0.661493 0.241274 0.090155
H80   H     H_    0.920994 0.549957 0.155097 0.222162
H81   H     H_    0.942844 0.596262 0.077868 0.194822
H82   H     H_    0.117889 0.587265 0.218248 0.270807
H83   H     H_    0.063466 0.521381 0.163338 0.270561
H84   H     H_    0.098032 0.541140 0.298306 0.270488
H85   H     H_    0.501508 0.121679 0.678557 0.133221
H86   H     H_    0.501012 0.136000 0.795475 0.095385
H87   H     H_    0.636742 0.054901 0.788577 0.216020
H88   H     H_    0.460557 0.013835 0.462572 0.118143
H89   H     H_    0.635222 0.067271 0.906729 0.202589
H90   H     H_    0.467008 0.033875 0.801428 0.269222
H91   H     H_    0.546693 0.982773 0.809219 0.272753
H92   H     H_    0.469431 0.021054 0.683297 0.262436
H93   H     H_    0.502975 0.113821 0.314936 0.126497
H94   H     H_    0.524549 0.161502 0.241465 0.090024
H95   H     H_    0.420782 0.050097 0.154220 0.221847
H96   H     H_    0.443297 0.096547 0.077773 0.194652
H97   H     H_    0.618192 0.087184 0.218698 0.270661
H98   H     H_    0.563481 0.021424 0.163049 0.270541
H99   H     H_    0.593633 0.045636 0.488002 0.106086
H100  H     H_    0.597662 0.040917 0.297994 0.270459
H101  H     H_    0.442427 0.681722 0.356780 0.131318
H102  H     H_    0.342786 0.722904 0.314939 0.114267
H103  H     H_    0.468506 0.730721 0.227112 0.197792
H104  H     H_    0.371061 0.776069 0.186891 0.201146
H105  H     H_    0.453404 0.810788 0.375127 0.269494
H106  H     H_    0.530274 0.814615 0.329971 0.282555
H107  H     H_    0.549209 0.761302 0.424612 0.268468
H108  H     H_    0.625412 0.737180 0.679887 0.109473
H109  H     H_    0.594481 0.750154 0.775780 0.094718
H110  H     H_    0.543905 0.247544 0.819489 0.145795
H111  H     H_    0.500947 0.664062 0.590974 0.201196
H112  H     H_    0.468411 0.680226 0.683452 0.184941
H113  H     H_    0.426138 0.775383 0.611356 0.277034
H114  H     H_    0.360754 0.726019 0.502209 0.266388
H115  H     H_    0.460509 0.761232 0.519850 0.274276
H116  H     H_    0.942360 0.181599 0.356879 0.131303
H117  H     H_    0.842777 0.222834 0.315023 0.114188
H118  H     H_    0.968535 0.230620 0.227240 0.197815
H119  H     H_    0.871290 0.276070 0.187314 0.201065
H120  H     H_    0.953878 0.310671 0.375576 0.269549
N1    N     N_R   0.395440 0.396300 0.944370 -0.039428
N2    N     N_R   0.474910 0.470990 0.794360 -0.035872
N3    N     N_R   0.025090 0.970990 0.205640 -0.039707
N4    N     N_R   0.974910 0.970990 0.794360 -0.035870
N5    N     N_R   0.320240 0.527820 0.794510 -0.042191
N6    N     N_R   0.679760 0.527820 0.205490 -0.045766
N7    N     N_R   0.820240 0.027820 0.794510 -0.042190
N8    N     N_R   0.179760 0.027820 0.205490 -0.045779
N9    N     N_R   0.524580 0.527810 0.205160 -0.042063
N10   N     N_R   0.475420 0.527810 0.794840 -0.039700
N11   N     N_R   0.024580 0.027810 0.205160 -0.042063
N12   N     N_R   0.604560 0.396300 0.055630 -0.039906
N13   N     N_R   0.975420 0.027810 0.794840 -0.039708
N14   N     N_R   0.320750 0.470990 0.794990 -0.044750
N15   N     N_R   0.679250 0.470990 0.205010 -0.047502
N16   N     N_R   0.820750 0.970990 0.794990 -0.044748
N17   N     N_R   0.179250 0.970990 0.205010 -0.047525
N18   N     N_R   0.393580 0.602500 0.942610 -0.051934
N19   N     N_R   0.606420 0.602500 0.057390 -0.053997
N20   N     N_R   0.893580 0.102500 0.942610 -0.051928
N21   N     N_R   0.106420 0.102500 0.057390 -0.053990
N22   N     N_R   0.451750 0.396300 0.057540 -0.038714
N23   N     N_R   0.895440 0.896300 0.944370 -0.039428
N24   N     N_R   0.548250 0.396300 0.942460 -0.040320
N25   N     N_R   0.951750 0.896300 0.057540 -0.038715
N26   N     N_R   0.048250 0.896300 0.942460 -0.040312
N27   N     N_R   0.104560 0.896300 0.055630 -0.039874
N28   N     N_R   0.449890 0.602500 0.055780 -0.052092
N29   N     N_R   0.550110 0.602500 0.944220 -0.055052
N30   N     N_R   0.949890 0.102500 0.055780 -0.052084
N31   N     N_R   0.050110 0.102500 0.944220 -0.055051
N32   N     N_R   0.525090 0.470990 0.205640 -0.039696
Ni1   Ni    Ni4+2 0.435420 0.434250 0.870220 0.205917
Ni2   Ni    Ni4+2 0.564580 0.434250 0.129780 0.209459
Ni3   Ni    Ni4+2 0.935420 0.934250 0.870220 0.205915
Ni4   Ni    Ni4+2 0.064580 0.934250 0.129780 0.209453
Ni5   Ni    Ni4+2 0.563400 0.564580 0.128670 0.208122
Ni6   Ni    Ni4+2 0.436600 0.564580 0.871330 0.204263
Ni7   Ni    Ni4+2 0.063400 0.064580 0.128670 0.208137
Ni8   Ni    Ni4+2 0.936600 0.064580 0.871330 0.204264
O1    O     O_3   0.120572 0.662146 0.800005 -0.681700
O2    O     O_3   0.881903 0.651032 0.187160 -0.683252
O3    O     O_3   0.620550 0.162113 0.800051 -0.681693
O4    O     O_3   0.381928 0.150995 0.187110 -0.683253
O5    O     O_3   0.327589 0.665936 0.199902 -0.689882
O6    O     O_3   0.659329 0.673860 0.790568 -0.674387
O7    O     O_3   0.827583 0.165899 0.199929 -0.689910
O8    O     O_3   0.159265 0.173897 0.790548 -0.674393

loop_
_geom_bond_atom_site_label_1
_geom_bond_atom_site_label_2
_ccdc_geom_bond_type
C3    H89   S    
C40   C47   A    
C79   C80   A    
C49   C53   A    
C51   C112  S    
C114  H70   S    
C63   C88   A    
C33   N12   A    
C5    O4    S    
C39   C65   A    
C103  N20   A    
C62   C77   A    
C2    C84   A    
C19   C20   S    
C67   C77   S    
C53   H27   S    
C20   H9    S    
C118  H80   S    
C94   N11   A    
C44   N23   A    
C98   N16   A    
C114  C115  S    
C43   H110  S    
C8    H102  S    
C61   N28   A    
C92   N9    A    
C102  N19   A    
C22   H17   S    
C40   O2    S    
C50   C54   A    
C4    H91   S    
C30   C35   D    
C103  H63   S    
C120  H85   S    
N10   Ni6   S    
C23   H19   S    
N13   Ni8   S    
C63   N30   A    
C8    O5    S    
C106  H67   S    
N7    Ni8   S    
C61   H39   S    
C18   H5    S    
C30   C31   S    
C82   H38   S    
C33   H33   S    
C18   O8    S    
N6    N15   A    
N1    Ni1   S    
C115  C116  S    
C19   H8    S    
C85   N3    A    
C4    H90   S    
C89   N6    A    
N23   N25   A    
C51   C56   A    
C107  C112  A    
C105  H65   S    
C117  O2    S    
C17   H4    S    
C78   C82   A    
C118  C119  S    
N8    Ni7   S    
C72   C78   A    
C84   H45   S    
C114  O1    S    
C14   H114  S    
C1    C109  A    
C100  N17   A    
C116  H75   S    
C61   C66   A    
C17   H3    S    
C120  O3    S    
C71   H31   S    
C6    H95   S    
C25   H22   S    
C16   H119  S    
C56   C58   A    
C16   C17   S    
C72   H32   S    
C40   C67   A    
C70   H30   S    
C73   H34   S    
C107  N25   A    
N4    Ni3   S    
N16   Ni3   S    
C80   H36   S    
C70   C71   A    
C33   C111  A    
C28   C38   S    
C96   H57   S    
C9    C10   S    
C95   N13   A    
C117  H79   S    
C25   C34   S    
C97   N15   A    
C116  H74   S    
N7    N16   A    
C99   C104  A    
C115  H73   S    
N12   N24   A    
N18   N28   A    
C11   H109  S    
C101  N18   A    
C41   C43   A    
C66   C101  A    
C77   C102  A    
C25   H23   S    
C119  H82   S    
C14   H115  S    
C53   C60   A    
C28   C90   A    
C46   C50   A    
C12   H112  S    
C41   C68   A    
C1    H1    S    
C106  C111  A    
C64   C99   A    
C26   C96   A    
N22   Ni2   S    
N27   Ni4   S    
C81   H37   S    
C22   C31   S    
C11   H108  S    
N15   Ni2   S    
C102  H62   S    
C23   H20   S    
C60   C69   A    
C55   N27   A    
C36   H77   S    
C11   O6    S    
C64   H42   S    
N26   N27   A    
N28   Ni5   S    
C57   C65   A    
C86   N4    A    
C57   O5    S    
C8    C9    S    
C47   C51   A    
C55   C113  A    
N14   Ni1   S    
C59   O7    S    
C47   H24   S    
C42   C69   A    
C81   C82   A    
C26   C36   S    
C7    H97   S    
C22   H16   S    
C42   C45   A    
C32   C34   S    
N30   Ni7   S    
C15   H116  S    
N6    Ni5   S    
C95   H56   S    
C21   H12   S    
N18   Ni6   S    
C52   C59   A    
C59   C68   A    
C10   H105  S    
C62   N29   A    
C9    H103  S    
N25   Ni4   S    
C87   H48   S    
N21   Ni7   S    
C13   C76   S    
C45   C49   A    
N26   Ni3   S    
C43   C48   A    
C5    H93   S    
C90   N7    A    
C90   H50   S    
C106  N24   A    
C83   C110  A    
C119  H83   S    
C32   C37   D    
C64   N31   A    
C108  N26   A    
C55   H55   S    
N5    Ni6   S    
C1    N1    A    
C94   H54   S    
C39   C46   A    
C7    H100  S    
C69   C99   S    
C87   N5    A    
C24   C78   S    
N31   Ni8   S    
C104  H64   S    
C12   C14   S    
N23   Ni3   S    
N4    N13   A    
C10   H107  S    
C68   C88   S    
C37   H88   S    
C62   H40   S    
C108  H69   S    
N19   Ni5   S    
C118  H81   S    
C25   H25   S    
C104  N21   A    
C85   H46   S    
C20   H11   S    
C13   C85   A    
C3    C4    S    
C100  H60   S    
C44   C112  A    
C21   H14   S    
C29   C91   A    
C88   C103  A    
C101  H61   S    
C93   N10   A    
C12   H111  S    
C49   C109  S    
C89   H49   S    
C58   O6    S    
C28   C98   A    
C115  H72   S    
C63   H41   S    
C83   H43   S    
C91   N8    A    
C27   C97   A    
N17   Ni4   S    
C52   H26   S    
C114  H71   S    
C96   N14   A    
C29   C100  A    
C34   C38   D    
C38   H99   S    
C2    C93   A    
C86   H47   S    
N2    Ni1   S    
C20   H10   S    
C72   C73   A    
C41   O3    S    
N19   N29   A    
C76   C81   A    
C74   C110  S    
C71   C74   A    
C42   O4    S    
C11   C12   S    
C7    H98   S    
C6    C7    S    
C24   C86   A    
C45   H2    S    
C105  N22   A    
C108  C113  A    
C44   H44   S    
C21   C30   S    
C15   H117  S    
N24   Ni1   S    
C4    H92   S    
C91   H51   S    
C13   C94   A    
C74   C79   A    
C50   C113  S    
C27   C35   S    
C23   C32   S    
C2    C75   S    
N3    N11   A    
C98   H59   S    
N2    N10   A    
C120  H86   S    
C54   H28   S    
C79   H35   S    
N1    N22   A    
C18   H6    S    
C46   H13   S    
N9    N32   A    
C9    H104  S    
C92   C110  A    
C97   H58   S    
C5    C6    S    
C105  C109  A    
C26   C87   A    
C39   O1    S    
C35   H66   S    
N20   Ni8   S    
C5    H94   S    
C107  H68   S    
C93   H53   S    
C3    H87   S    
C73   C76   A    
N9    Ni5   S    
N29   Ni6   S    
C27   C89   A    
N20   N30   A    
C83   N32   A    
C48   C111  S    
N11   Ni7   S    
N21   N31   A    
C3    C120  S    
C117  H78   S    
N5    N14   A    
C16   H118  S    
N8    N17   A    
C116  H76   S    
C17   H120  S    
C60   O8    S    
C58   C67   A    
C48   C52   A    
C75   C80   A    
C6    H96   S    
C15   O7    S    
N3    Ni4   S    
C92   H52   S    
N32   Ni2   S    
C65   C66   S    
C119  H84   S    
C29   C37   S    
C70   C75   A    
C10   H106  S    
C18   C19   S    
C24   C95   A    
C31   C36   D    
C23   H21   S    
C84   N2    A    
C19   H7    S    
C56   H29   S    
C117  C118  S    
N12   Ni2   S    
C22   H18   S    
C21   H15   S    
C14   H113  S    
C8    H101  S    
C15   C16   S    
C54   C57   A    
