data_mof_unit_14558.cif
_audit_creation_date              2012-10-26T20:25:36-0400
_audit_creation_method            fapswitch 2.2
_symmetry_space_group_name_H-M    P1
_symmetry_Int_Tables_number       1
_space_group_crystal_system       triclinic
_cell_length_a                    23.50986
_cell_length_b                    10.67918
_cell_length_c                    9.442439
_cell_angle_alpha                 88.98329
_cell_angle_beta                  90.158736
_cell_angle_gamma                 91.08245
_cell_volume                      2369.87238641

loop_
_atom_site_label
_atom_site_type_symbol
_atom_type_description
_atom_site_fract_x
_atom_site_fract_y
_atom_site_fract_z
_atom_type_partial_charge
C1    C     C_R   0.501186 0.259979 0.501052 0.629667
C2    C     C_R   0.706131 0.570673 0.402048 0.070433
C3    C     C_R   0.236356 0.428821 0.604165 0.127111
C4    C     C_R   0.765839 0.564515 0.412669 0.143126
C5    C     C_R   0.209020 0.495849 0.495319 0.259785
C6    C     C_R   0.790868 0.491711 0.521045 0.218268
C7    C     C_3   0.525918 0.035553 0.619116 0.028716
C8    C     C_3   0.472602 0.963520 0.378638 0.014562
C9    C     C_3   0.551037 0.955970 0.501424 0.007967
C10   C     C_3   0.447048 0.043145 0.496156 0.023142
C11   C     C_3   0.496349 0.875536 0.495597 -0.050269
C12   C     C_R   0.497925 0.739711 0.498669 0.574690
C13   C     C_3   0.501896 0.123779 0.502703 -0.008572
C14   C     C_3   0.470347 0.955234 0.613000 0.010816
C15   C     C_3   0.527971 0.044029 0.385238 0.031480
C16   C     C_R   0.391072 0.496364 0.500344 0.592704
C17   C     C_R   0.608981 0.503114 0.499711 0.542954
C18   C     C_3   0.508835 0.612138 0.048702 0.001134
C19   C     C_3   0.491168 0.387772 0.951327 -0.015013
C20   C     C_3   0.460524 0.571333 0.947218 -0.018267
C21   C     C_3   0.539434 0.428535 0.052881 -0.004781
C22   C     C_3   0.547767 0.540268 0.950897 0.148265
C23   C     C_R   0.240560 0.559574 0.391115 -0.067658
C24   C     C_3   0.452261 0.459549 0.049252 0.138738
C25   C     C_R   0.880741 0.582897 0.592722 0.400033
C26   C     C_R   0.118766 0.395406 0.445981 0.439272
C27   C     C_R   0.878645 0.385938 0.478229 0.408652
C28   C     C_R   0.121287 0.598252 0.547179 0.415809
C29   C     C_R   0.938592 0.379226 0.483774 -0.018102
C30   C     C_R   0.061591 0.595399 0.566724 -0.016568
C31   C     C_R   0.969961 0.485353 0.531322 -0.065713
C32   C     C_R   0.030158 0.488892 0.519854 -0.062028
C33   C     C_R   0.940965 0.588096 0.589415 0.030098
C34   C     C_R   0.756792 0.424222 0.617195 -0.048120
C35   C     C_R   0.058905 0.386337 0.460346 0.023882
C36   C     C_R   0.967883 0.272095 0.438675 0.097627
C37   C     C_R   0.032542 0.694781 0.631519 0.022141
C38   C     C_R   0.027250 0.276829 0.422798 0.077469
C39   C     C_R   0.972973 0.691993 0.641209 0.047129
C40   C     C_2   0.938222 0.149652 0.417053 0.669765
C41   C     C_2   0.063047 0.802938 0.696247 0.702604
C42   C     C_2   0.603414 0.589429 0.895046 0.648135
C43   C     C_2   0.397126 0.409566 0.106961 0.608289
C44   C     C_2   0.325080 0.345726 0.719430 0.579863
C45   C     C_R   0.299605 0.557201 0.394222 -0.132669
C46   C     C_2   0.682130 0.655807 0.292143 0.603067
C47   C     C_2   0.559571 0.067252 0.749696 0.655700
C48   C     C_2   0.440065 0.930494 0.246692 0.624885
C49   C     C_2   0.435502 0.904119 0.734570 0.598074
C50   C     C_2   0.563738 0.093733 0.264683 0.612841
C51   C     C_R   0.697905 0.428661 0.606956 -0.117204
C52   C     C_R   0.328314 0.490866 0.501414 -0.024846
C53   C     C_R   0.671719 0.501031 0.500590 -0.043517
C54   C     C_R   0.296624 0.424595 0.608657 0.033905
Cu1   Cu    Cu3+1 0.500010 0.499990 0.643150 1.070232
Cu2   Cu    Cu3+1 0.499990 0.500010 0.356850 1.075662
H1    H     H_    0.427127 0.630236 0.898442 0.153584
H2    H     H_    0.034570 0.926113 0.549247 0.317441
H3    H     H_    0.646065 0.729130 0.793775 0.345052
H4    H     H_    0.356148 0.271908 0.216795 0.350340
H5    H     H_    0.083216 0.134262 0.450259 0.297666
H6    H     H_    0.073886 0.184508 0.276805 0.298560
H7    H     H_    0.924233 0.766466 0.796377 0.295107
H8    H     H_    0.920037 0.841539 0.632907 0.301007
H9    H     H_    0.323765 0.272089 0.917520 0.367518
H10   H     H_    0.683844 0.828170 0.200977 0.360530
H11   H     H_    0.206867 0.403544 0.805044 0.293724
H12   H     H_    0.572766 0.369467 0.101754 0.160186
H13   H     H_    0.212630 0.268712 0.710493 0.276048
H14   H     H_    0.826689 0.695081 0.362654 0.269674
H15   H     H_    0.827108 0.565177 0.261902 0.248820
H16   H     H_    0.611544 0.852089 0.411156 0.251831
H17   H     H_    0.611706 0.845590 0.588137 0.263983
H18   H     H_    0.365284 0.040574 0.421818 0.256405
H19   H     H_    0.371390 0.077226 0.591249 0.285952
H20   H     H_    0.600231 0.199023 0.864528 0.341544
H21   H     H_    0.400233 0.797620 0.131764 0.341929
H22   H     H_    0.366166 0.803927 0.796752 0.341200
H23   H     H_    0.517219 0.706188 0.093318 0.187626
H24   H     H_    0.633970 0.191712 0.204456 0.340886
H25   H     H_    0.482819 0.293712 0.906689 0.192602
H26   H     H_    0.219158 0.611487 0.307782 0.159722
H27   H     H_    0.776127 0.367910 0.700098 0.164739
H28   H     H_    0.323103 0.609613 0.313599 0.190677
H29   H     H_    0.672547 0.374432 0.682490 0.191548
H30   H     H_    0.922535 0.004548 0.287931 0.348425
N1    N     N_R   0.851651 0.485785 0.532806 -0.401921
N2    N     N_3   0.389759 0.093580 0.492036 -0.544350
N3    N     N_R   0.147979 0.498281 0.492001 -0.372527
N4    N     N_3   0.500040 0.499970 0.858290 -0.286266
N5    N     N_3   0.499960 0.500030 0.141710 -0.277508
N6    N     N_3   0.054199 0.165827 0.374191 -0.560351
N7    N     N_3   0.946555 0.796820 0.706166 -0.570335
N8    N     N_3   0.201281 0.362880 0.706067 -0.567715
N9    N     N_3   0.800931 0.629873 0.310217 -0.545425
N10   N     N_3   0.608343 0.906680 0.501243 -0.537410
O1    O     O_R   0.500030 0.316850 0.620870 -0.457562
O2    O     O_2   0.148397 0.302975 0.387084 -0.487635
O3    O     O_2   0.847235 0.296532 0.413679 -0.431996
O4    O     O_2   0.153029 0.699643 0.582010 -0.440548
O5    O     O_2   0.909682 0.102189 0.512652 -0.465641
O6    O     O_R   0.944175 0.087557 0.288979 -0.641058
O7    O     O_2   0.091259 0.786713 0.803545 -0.398909
O8    O     O_R   0.058588 0.923775 0.638528 -0.620820
O9    O     O_2   0.646454 0.528625 0.912715 -0.502210
O10   O     O_R   0.605971 0.705357 0.824649 -0.652275
O11   O     O_2   0.353703 0.468916 0.088965 -0.517583
O12   O     O_R   0.499970 0.683150 0.379130 -0.481369
O13   O     O_R   0.395688 0.295422 0.181561 -0.632210
O14   O     O_2   0.367938 0.288620 0.691009 -0.504748
O15   O     O_R   0.302437 0.334122 0.855734 -0.675330
O16   O     O_2   0.647690 0.616769 0.205895 -0.485096
O17   O     O_R   0.702191 0.779721 0.281766 -0.646332
O18   O     O_2   0.572241 0.983730 0.833421 -0.415275
O19   O     O_R   0.577845 0.190309 0.773190 -0.689380
O20   O     O_2   0.427934 0.013273 0.161485 -0.413209
O21   O     O_R   0.421981 0.807186 0.223929 -0.691141
O22   O     O_2   0.449820 0.925365 0.856377 -0.446609
O23   O     O_R   0.500000 0.316860 0.379090 -0.468244
O24   O     O_R   0.386541 0.832382 0.707002 -0.696588
O25   O     O_2   0.549852 0.072894 0.142474 -0.456481
O26   O     O_R   0.613096 0.163649 0.293644 -0.661941
O27   O     O_R   0.500000 0.683140 0.620910 -0.475079
O28   O     O_R   0.417890 0.499960 0.620920 -0.471883
O29   O     O_R   0.582110 0.500040 0.379080 -0.467716
O30   O     O_R   0.417870 0.499970 0.379140 -0.475640
O31   O     O_R   0.582130 0.500030 0.620860 -0.488502
O32   O     O_2   0.850699 0.674361 0.652237 -0.486877

loop_
_geom_bond_atom_site_label_1
_geom_bond_atom_site_label_2
_ccdc_geom_bond_type
C47   O18   D    
Cu1   Cu2   S    
C23   C45   A    
H10   O17   S    
C46   O16   D    
C27   C29   A    
C2    C4    A    
C50   O26   S    
C6    C34   A    
C51   H29   S    
H24   O26   S    
C2    C46   S    
C26   N3    A    
C47   O19   S    
C29   C36   A    
C10   N2    S    
C34   C51   A    
C33   C39   A    
C18   N5    S    
C23   H26   S    
C25   O32   S    
H8    N7    S    
Cu1   N4    S    
H21   O21   S    
C3    C54   A    
C14   C49   S    
H15   N9    S    
C38   N6    S    
C25   N1    A    
H20   O19   S    
C1    O23   A    
C15   C50   S    
H9    O15   S    
H4    O13   S    
C40   O5    D    
C7    C14   S    
Cu2   O12   S    
C20   C24   S    
C18   H23   S    
H6    N6    S    
H11   N8    S    
C31   C33   A    
C28   N3    A    
Cu2   O30   S    
H5    N6    S    
C48   O20   D    
C28   O4    S    
C21   C22   S    
C50   O25   D    
C39   N7    S    
C52   C54   A    
Cu2   N5    S    
Cu1   O27   S    
H3    O10   S    
C32   C35   A    
C36   C40   S    
C35   C38   A    
H16   N10   S    
C4    C6    A    
H13   N8    S    
C10   C14   S    
C1    O1    A    
C12   O12   A    
C17   O31   A    
C45   C52   A    
C20   N4    S    
C10   C13   S    
C6    N1    S    
C41   O7    D    
C30   C37   A    
C51   C53   A    
C7    C47   S    
H22   O24   S    
C8    C48   S    
C4    N9    S    
C42   O10   S    
C26   C35   A    
C49   O22   D    
C5    C23   A    
C27   O3    S    
Cu1   O1    S    
C22   N4    S    
C43   O11   D    
Cu2   O29   S    
C27   N1    A    
C9    C11   S    
C9    N10   S    
C26   O2    S    
C8    C10   S    
Cu1   O31   S    
C8    C15   S    
C13   C15   S    
C21   H12   S    
Cu2   O23   S    
C45   H28   S    
H2    O8    S    
C34   H27   S    
H30   O6    S    
C24   N5    S    
C17   C53   S    
C21   N5    S    
C7    C9    S    
Cu1   O28   S    
C46   O17   S    
C19   C21   S    
C18   C22   S    
C31   C32   A    
C16   C52   S    
C3    C5    A    
C2    C53   A    
C11   C12   S    
C48   O21   S    
H7    N7    S    
C41   O8    S    
C28   C30   A    
H14   N9    S    
C16   O28   A    
C29   C31   A    
C19   N4    S    
C30   C32   A    
C17   O29   A    
C22   C42   S    
C12   O27   A    
C8    C11   S    
C36   C38   A    
C11   C14   S    
C19   C24   S    
C3    N8    S    
C18   C20   S    
C37   C41   S    
C42   O9    D    
C40   O6    S    
C49   O24   S    
C44   O15   S    
C44   C54   S    
H19   N2    S    
C7    C13   S    
C1    C13   S    
C37   C39   A    
C24   C43   S    
C43   O13   S    
H17   N10   S    
H18   N2    S    
C20   H1    S    
C19   H25   S    
C16   O30   A    
C5    N3    S    
C9    C15   S    
C25   C33   A    
C44   O14   D    
