data_mof_unit_52295.cif
_audit_creation_date              2013-03-05T16:31:13-0500
_audit_creation_method            fapswitch 2.2
_symmetry_space_group_name_H-M    P1
_symmetry_Int_Tables_number       1
_space_group_crystal_system       triclinic
_cell_length_a                    14.848488
_cell_length_b                    14.122568
_cell_length_c                    10.807986
_cell_angle_alpha                 89.832794
_cell_angle_beta                  90.01705
_cell_angle_gamma                 90.02972
_cell_volume                      2266.41143927

loop_
_atom_site_label
_atom_site_type_symbol
_atom_site_description
_atom_site_fract_x
_atom_site_fract_y
_atom_site_fract_z
_atom_type_partial_charge
O1    O     O_R   0.369060 0.579480 0.500010 -0.609787
O2    O     O_R   0.630940 0.420520 0.499990 -0.598240
O3    O     O_R   0.630940 0.579480 0.499990 -0.644362
O4    O     O_R   0.369060 0.420520 0.500010 -0.629511
C1    C     C_R   0.327270 0.500082 0.503945 0.951055
C2    C     C_R   0.672719 0.499915 0.503976 0.946563
O5    O     O_R   0.499990 0.579480 0.316780 -0.596078
O6    O     O_R   0.500010 0.420520 0.683220 -0.589272
O7    O     O_R   0.500010 0.579480 0.683220 -0.573414
O8    O     O_R   0.499990 0.420520 0.316780 -0.605461
C3    C     C_R   0.499920 0.500121 0.260318 0.976662
C4    C     C_R   0.499499 0.499967 0.740847 0.875964
Zn1   Zn    Zn3+2 0.500000 0.606140 0.500000 1.004288
Zn2   Zn    Zn3+2 0.500000 0.393860 0.500000 1.007888
C5    C     C_R   0.402939 0.646330 0.114247 0.424015
C6    C     C_R   0.494268 0.319122 0.898805 0.402837
C7    C     C_R   0.497657 0.681497 0.895620 0.430831
C8    C     C_R   0.592860 0.352070 0.114822 0.425459
C9    C     C_R   0.396891 0.735537 0.057641 0.226084
C10   C     C_R   0.537918 0.243611 0.959248 0.210519
C11   C     C_R   0.448668 0.754695 0.952034 0.244308
C12   C     C_R   0.592244 0.261415 0.062717 0.234882
C13   C     C_R   0.487900 0.586866 0.941165 -0.183074
C14   C     C_R   0.536101 0.422978 0.063486 -0.193034
C15   C     C_R   0.461913 0.577384 0.063471 -0.182385
C16   C     C_R   0.508677 0.413552 0.941895 -0.172704
C17   C     C_R   0.498684 0.500143 0.874416 -0.072180
C18   C     C_R   0.499631 0.500356 0.128560 -0.073247
C19   C     C_R   0.088877 0.580521 0.514313 0.535948
C20   C     C_R   0.911351 0.420275 0.512279 0.533096
C21   C     C_R   0.897942 0.570956 0.622933 0.557914
C22   C     C_R   0.101929 0.427918 0.621615 0.554000
C23   C     C_R   0.181080 0.580213 0.494587 -0.319391
C24   C     C_R   0.819150 0.420586 0.492656 -0.321685
C25   C     C_R   0.807327 0.573677 0.592644 -0.306297
C26   C     C_R   0.192419 0.425260 0.590824 -0.302758
H1    H     H_    0.212131 0.640305 0.448785 0.209744
H2    H     H_    0.788237 0.361123 0.445741 0.220608
H3    H     H_    0.767329 0.633548 0.622218 0.175874
H4    H     H_    0.232131 0.364516 0.618409 0.191658
C27   C     C_R   0.231760 0.500884 0.527209 -0.208516
C28   C     C_R   0.768225 0.499078 0.527202 -0.206467
C29   C     C_R   0.048845 0.503876 0.577959 -0.105326
C30   C     C_R   0.951218 0.495950 0.577569 -0.104399
C31   C     C_R   0.450450 0.105586 0.411050 -0.216289
C32   C     C_R   0.576927 0.894780 0.536114 -0.207605
C33   C     C_R   0.551672 0.104923 0.585359 -0.178785
C34   C     C_R   0.424141 0.895102 0.461136 -0.195422
H5    H     H_    0.411818 0.070175 0.339978 0.172465
H6    H     H_    0.638321 0.930263 0.563574 0.147212
H7    H     H_    0.591152 0.068950 0.655234 0.186073
H8    H     H_    0.363071 0.930907 0.432877 0.165597
C35   C     C_R   0.450838 0.204990 0.413743 0.061829
C36   C     C_R   0.575091 0.795423 0.536391 0.107648
C37   C     C_R   0.550386 0.204313 0.584483 0.127737
C38   C     C_R   0.425357 0.795683 0.462209 0.076702
H9    H     H_    0.412025 0.244354 0.346280 0.124942
H10   H     H_    0.634170 0.756650 0.565557 0.136565
H11   H     H_    0.589546 0.243113 0.651866 0.135403
H12   H     H_    0.366245 0.757099 0.432779 0.174236
N1    N     N_R   0.500000 0.252470 0.500000 -0.098711
N2    N     N_R   0.500000 0.747530 0.500000 -0.107535
C39   C     C_R   0.500946 0.053455 0.498186 0.114342
C40   C     C_R   0.500687 0.946746 0.498360 0.136190
Cl1   Cl    Cl    0.655141 0.170009 0.132730 -0.476306
Cl2   Cl    Cl    0.453730 0.870056 0.889658 -0.409666
Cl3   Cl    Cl    0.521758 0.126864 0.906765 -0.450238
Cl4   Cl    Cl    0.328327 0.823640 0.123996 -0.508182
O9    O     O_3   0.347507 0.626121 0.213877 -0.558059
C41   C     C_3   0.280093 0.562442 0.174313 -0.317736
H13   H     H_    0.308865 0.491961 0.151312 0.144341
H14   H     H_    0.241704 0.591266 0.094029 0.167852
H15   H     H_    0.231513 0.551459 0.250567 0.173216
O10   O     O_3   0.429712 0.296706 0.810940 -0.541561
C42   C     C_3   0.343717 0.322291 0.855407 -0.200187
H16   H     H_    0.332888 0.399878 0.846614 0.127999
H17   H     H_    0.332743 0.298987 0.952900 0.145810
H18   H     H_    0.292120 0.286318 0.798194 0.193131
O11   O     O_3   0.561873 0.707219 0.808666 -0.545479
C43   C     C_3   0.648525 0.683557 0.852801 -0.246774
H19   H     H_    0.659216 0.707433 0.949913 0.159028
H20   H     H_    0.699194 0.720404 0.794703 0.182682
H21   H     H_    0.660958 0.606223 0.844896 0.138214
O12   O     O_3   0.650550 0.370489 0.212612 -0.538874
C44   C     C_3   0.717084 0.435101 0.172336 -0.301165
H22   H     H_    0.688223 0.506685 0.156056 0.143918
H23   H     H_    0.752153 0.409446 0.087680 0.157458
H24   H     H_    0.768592 0.442398 0.245634 0.172180
O13   O     O_3   0.038419 0.656880 0.473623 -0.540066
C45   C     C_3   0.019736 0.645541 0.346614 -0.288487
H25   H     H_    0.976159 0.582734 0.330550 0.126184
H26   H     H_    0.082451 0.640720 0.290626 0.154066
H27   H     H_    0.982071 0.708612 0.313854 0.213302
O14   O     O_3   0.961857 0.344625 0.470113 -0.538633
C46   C     C_3   0.982336 0.359134 0.344104 -0.286106
H28   H     H_    0.027333 0.421361 0.331685 0.126054
H29   H     H_    0.920465 0.366948 0.286859 0.149091
H30   H     H_    0.019164 0.296205 0.309656 0.211832
O15   O     O_3   0.934903 0.647828 0.683691 -0.543157
C47   C     C_3   0.951608 0.622886 0.807928 -0.318470
H31   H     H_    0.014234 0.580397 0.815345 0.154406
H32   H     H_    0.893744 0.584852 0.851245 0.123091
H33   H     H_    0.962445 0.688759 0.861548 0.212312
O16   O     O_3   0.064797 0.350151 0.680759 -0.540954
C48   C     C_3   0.048194 0.373077 0.805483 -0.319282
H34   H     H_    0.985671 0.415594 0.813758 0.153199
H35   H     H_    0.106163 0.410231 0.849586 0.122592
H36   H     H_    0.037220 0.306355 0.857739 0.212222

loop_
_geom_bond_atom_site_label_1
_geom_bond_atom_site_label_2
_geom_bond_distance
_ccdc_geom_bond_type
C37   H11   1.081894 S    
C11   Cl2   1.762923 S    
C10   Cl3   1.761458 S    
C25   H3    1.082606 S    
C46   H28   1.111513 S    
C24   C28   1.394071 A    
C42   H16   1.111332 S    
O3    C2    1.284421 A    
C19   O13   1.384031 S    
C46   H30   1.109070 S    
C44   H22   1.111749 S    
C15   C18   1.409915 A    
C5    C9    1.401835 A    
C48   H35   1.115414 S    
C16   C17   1.429791 A    
C7    C13   1.430156 A    
O1    C1    1.281877 A    
C22   C26   1.384890 A    
C9    C11   1.401989 A    
C14   C16   1.382453 A    
C34   H8    1.081975 S    
O9    C41   1.412339 S    
C33   C39   1.409362 A    
C5    C15   1.421384 A    
C19   C23   1.385642 A    
C7    O11   1.386554 S    
C25   C28   1.396688 A    
O7    Zn1   2.014634 S    
C35   N1    1.361746 A    
Zn1   N2    1.996790 S    
C8    O12   1.385411 S    
C22   O16   1.383594 S    
C41   H13   1.112217 S    
C8    C14   1.420663 A    
C21   O15   1.383592 S    
O3    Zn1   1.980573 S    
O6    C4    1.284891 A    
C31   C35   1.404239 A    
C8    C12   1.400189 A    
C19   C29   1.411874 A    
C20   C30   1.412111 A    
C26   C27   1.396387 A    
O2    C2    1.281977 A    
C43   H21   1.111292 S    
O16   C48   1.409104 S    
C42   H18   1.108425 S    
C44   H23   1.114442 S    
C6    C16   1.429820 A    
C5    O9    1.384521 S    
C48   H36   1.109165 S    
C21   C30   1.411521 A    
C20   C24   1.385319 A    
C4    C17   1.443680 S    
C26   H4    1.082330 S    
O12   C44   1.412496 S    
C43   H20   1.108644 S    
O10   C42   1.412042 S    
C35   H9    1.081919 S    
C43   H19   1.114647 S    
C33   H7    1.081618 S    
C36   N2    1.362305 A    
Zn2   N1    1.996790 S    
C31   C39   1.409688 A    
C47   H33   1.109108 S    
C23   H1    1.084026 S    
C38   H12   1.081131 S    
C32   C40   1.409066 A    
O5    C3    1.277686 A    
C29   C30   1.453874 S    
C12   Cl1   1.762475 S    
C45   H26   1.112935 S    
O15   C47   1.409156 S    
C31   H5    1.082063 S    
C6    C10   1.407296 A    
C32   C36   1.403426 A    
C41   H15   1.105935 S    
C47   H32   1.115431 S    
C9    Cl4   1.762347 S    
C42   H17   1.114986 S    
C10   C12   1.401922 A    
C13   C17   1.432323 A    
O8    Zn2   2.014635 S    
C21   C25   1.385169 A    
O11   C43   1.412025 S    
O1    Zn1   1.980189 S    
C45   H27   1.109094 S    
C33   C37   1.403783 A    
C36   H10   1.080781 S    
C44   H24   1.105983 S    
C34   C38   1.404195 A    
C1    C27   1.440420 S    
O6    Zn2   2.016793 S    
C24   H2    1.083958 S    
C14   C18   1.409758 A    
O4    C1    1.284672 A    
C46   H29   1.112812 S    
C6    O10   1.386280 S    
C48   H34   1.109657 S    
C32   H6    1.081873 S    
C23   C27   1.394331 A    
C20   O14   1.383971 S    
C45   H25   1.111676 S    
C3    C18   1.424029 S    
C37   N1    1.361069 A    
C47   H31   1.109723 S    
C22   C29   1.411506 A    
C38   N2    1.362569 A    
C13   C15   1.383262 A    
O4    Zn2   1.980573 S    
O14   C46   1.409893 S    
O2    Zn2   1.980189 S    
O7    C4    1.282514 A    
C7    C11   1.405080 A    
C34   C40   1.409341 A    
O8    C3    1.277554 A    
C39   C40   1.507007 S    
O5    Zn1   2.016794 S    
C2    C28   1.440141 S    
C41   H14   1.114195 S    
O13   C45   1.409949 S    
