data_mof_unit_49053.cif
_audit_creation_date              2012-12-10T17:08:47-0500
_audit_creation_method            fapswitch 2.2
_symmetry_space_group_name_H-M    P1
_symmetry_Int_Tables_number       1
_space_group_crystal_system       triclinic
_cell_length_a                    27.789238
_cell_length_b                    10.950734
_cell_length_c                    9.744451
_cell_angle_alpha                 110.645223
_cell_angle_beta                  96.668138
_cell_angle_gamma                 90.063097
_cell_volume                      2753.33555896

loop_
_atom_site_label
_atom_site_type_symbol
_atom_type_description
_atom_site_fract_x
_atom_site_fract_y
_atom_site_fract_z
_atom_type_partial_charge
C1    C     C_R   0.494332 0.253802 0.442579 0.883020
C2    C     C_R   0.500482 0.746300 0.557940 0.899127
C3    C     C_R   0.101991 0.482972 0.511831 -0.050794
C4    C     C_R   0.897112 0.479252 0.464425 -0.051764
C5    C     C_R   0.126118 0.365739 0.484205 -0.086656
C6    C     C_R   0.873040 0.596414 0.489610 -0.085040
C7    C     C_R   0.099295 0.246950 0.424889 -0.232352
C8    C     C_R   0.899947 0.714626 0.544710 -0.211861
C9    C     C_R   0.129240 0.601083 0.549731 -0.027328
C10   C     C_R   0.869694 0.362353 0.431061 -0.034308
C11   C     C_R   0.354741 0.489765 0.511428 -0.185422
C12   C     C_R   0.644969 0.498024 0.485589 -0.211368
C13   C     C_R   0.972495 0.361005 0.454304 0.012173
C14   C     C_R   0.026715 0.600394 0.520542 0.014849
C15   C     C_R   0.975547 0.600728 0.522058 -0.000496
C16   C     C_R   0.023707 0.360625 0.450498 -0.001258
C17   C     C_R   0.948556 0.479906 0.477140 -0.006512
C18   C     C_R   0.050648 0.481622 0.497455 -0.015520
C19   C     C_R   0.944234 0.249864 0.448811 -0.002985
C20   C     C_R   0.054806 0.711889 0.528040 0.024614
C21   C     C_R   0.893583 0.248564 0.422824 -0.213408
C22   C     C_R   0.105299 0.714901 0.557455 -0.238015
C23   C     C_R   0.407508 0.497125 0.503029 0.935232
C24   C     C_R   0.592396 0.500339 0.496406 0.867038
C25   C     C_R   0.048450 0.243582 0.388535 0.502580
C26   C     C_R   0.950354 0.717529 0.579513 0.432360
C27   C     C_2   0.487250 0.114321 0.416567 -0.350684
C28   C     C_2   0.495743 0.885980 0.584313 -0.379624
C29   C     C_2   0.469234 0.070922 0.515353 -0.025143
C30   C     C_2   0.467827 0.930224 0.489264 -0.085703
C31   C     C_2   0.504278 0.509660 0.080455 -0.028717
C32   C     C_2   0.495068 0.492864 0.920677 -0.024056
C33   C     C_R   0.177067 0.369058 0.500925 0.579996
C34   C     C_R   0.822221 0.594218 0.475205 0.578244
C35   C     C_R   0.180071 0.599840 0.561251 0.561601
C36   C     C_R   0.818851 0.364926 0.424444 0.563073
C37   C     C_R   0.286358 0.554406 0.653419 -0.174892
C38   C     C_R   0.711478 0.408138 0.343151 -0.162873
C39   C     C_R   0.336234 0.564066 0.644343 0.422377
C40   C     C_R   0.661879 0.410864 0.356372 0.383587
C41   C     C_R   0.322277 0.410835 0.388024 -0.112243
C42   C     C_R   0.678872 0.578793 0.602949 -0.108334
C43   C     C_R   0.272390 0.413347 0.397036 -0.159286
C44   C     C_R   0.728503 0.567361 0.590538 -0.155697
C45   C     C_R   0.254382 0.483430 0.529255 0.262286
C46   C     C_R   0.744967 0.484778 0.460328 0.253851
Cu1   Cu    Cu3+1 0.508480 0.521810 0.644910 1.013709
Cu2   Cu    Cu3+1 0.491520 0.478190 0.355090 1.004534
H1    H     H_    0.517366 0.954811 0.680801 0.187665
H2    H     H_    0.498656 0.044944 0.316435 0.165129
H3    H     H_    0.465733 0.426801 0.851177 0.193993
H4    H     H_    0.533123 0.577541 0.150916 0.165686
H5    H     H_    0.549079 0.616572 0.930821 0.205568
H6    H     H_    0.450955 0.383464 0.069295 0.200696
H7    H     H_    0.247207 0.356663 0.302050 0.182642
H8    H     H_    0.754749 0.627015 0.680601 0.184860
H9    H     H_    0.119024 0.158510 0.396480 0.188246
H10   H     H_    0.881506 0.805233 0.574313 0.192155
H11   H     H_    0.723941 0.345081 0.241670 0.173634
H12   H     H_    0.271930 0.602736 0.756568 0.155402
H13   H     H_    0.872462 0.161730 0.412077 0.229719
H14   H     H_    0.126088 0.802582 0.569030 0.214153
N1    N     N_R   0.202937 0.484617 0.535500 -0.447883
N2    N     N_R   0.796148 0.480268 0.448215 -0.447068
N3    N     N_2   0.478780 0.445430 0.137360 -0.281946
N4    N     N_2   0.521220 0.554570 0.862640 -0.287653
O1    O     O_R   0.504520 0.332330 0.577400 -0.577881
O2    O     O_R   0.495480 0.667670 0.422600 -0.565231
O3    O     O_R   0.490210 0.295500 0.332650 -0.565174
O4    O     O_R   0.509790 0.704500 0.667350 -0.559302
O5    O     O_R   0.437420 0.518430 0.622370 -0.523193
O6    O     O_R   0.562580 0.481570 0.377630 -0.545141
O7    O     O_R   0.423110 0.481600 0.377610 -0.560988
O8    O     O_R   0.576890 0.518400 0.622390 -0.567941
O9    O     O_2   0.200602 0.257335 0.479841 -0.523076
O10   O     O_2   0.799031 0.705795 0.491242 -0.524425
O11   O     O_2   0.792555 0.253870 0.399754 -0.542445
O12   O     O_2   0.206343 0.712319 0.593012 -0.547151
C47   C     C_2   0.338945 0.318144 0.251675 0.892661
O13   O     O_2   0.317008 0.305324 0.130751 -0.596066
O14   O     O_R   0.378352 0.241095 0.261690 -0.729855
H15   H     H_    0.385981 0.181092 0.161376 0.327679
C48   C     C_2   0.663996 0.682185 0.734973 0.894572
O15   O     O_2   0.687569 0.705407 0.856143 -0.588009
O16   O     O_R   0.624345 0.757028 0.719988 -0.763496
H16   H     H_    0.618234 0.825413 0.817389 0.328814
O17   O     O_3   0.629726 0.331788 0.239326 -0.589542
C49   C     C_3   0.627644 0.205666 0.247420 0.063351
H17   H     H_    0.616377 0.209910 0.355194 0.124960
H18   H     H_    0.663616 0.160883 0.234279 0.170075
C50   C     C_3   0.590325 0.119356 0.122970 -0.305882
H19   H     H_    0.554068 0.161615 0.136191 0.242787
H20   H     H_    0.600411 0.116284 0.014723 0.232097
C51   C     C_3   0.587519 0.980325 0.123640 -0.921785
H21   H     H_    0.622892 0.934278 0.104005 0.277006
H22   H     H_    0.559259 0.921164 0.034596 0.264076
H23   H     H_    0.577994 0.980739 0.231348 0.255089
O18   O     O_3   0.367981 0.639086 0.766571 -0.586389
C52   C     C_3   0.355296 0.771618 0.819970 0.061054
H24   H     H_    0.379057 0.821414 0.925334 0.208168
H25   H     H_    0.317640 0.783129 0.848661 0.149756
C53   C     C_3   0.363830 0.841425 0.712469 -0.379650
H26   H     H_    0.402809 0.838979 0.696599 0.249318
H27   H     H_    0.342057 0.791341 0.603490 0.240789
C54   C     C_3   0.349175 0.982989 0.771299 -0.760568
H28   H     H_    0.310102 0.987155 0.786163 0.270501
H29   H     H_    0.355309 0.030744 0.691111 0.275492
H30   H     H_    0.371029 0.037131 0.878919 0.249747
C55   C     C_2   0.964215 0.147493 0.503761 0.899454
O19   O     O_2   0.001480 0.170009 0.590328 -0.573788
O20   O     O_R   0.937980 0.028916 0.466168 -0.778170
H31   H     H_    0.952345 0.973049 0.522378 0.375222
C56   C     C_2   0.034407 0.809463 0.466882 0.879161
O21   O     O_2   0.050299 0.922773 0.518370 -0.574965
O22   O     O_R   0.998330 0.769386 0.345388 -0.773215
H32   H     H_    0.988388 0.842248 0.308458 0.339427
O23   O     O_3   0.021451 0.135867 0.283504 -0.631827
C57   C     C_3   0.047492 0.023110 0.217394 0.050528
H33   H     H_    0.020107 0.941833 0.161115 0.162639
H34   H     H_    0.069750 0.992200 0.300501 0.183721
C58   C     C_3   0.076850 0.036233 0.098066 -0.407231
H35   H     H_    0.052580 0.059071 0.012977 0.239252
H36   H     H_    0.104992 0.116596 0.145090 0.229017
C59   C     C_3   0.101577 0.909777 0.022846 -0.823689
H37   H     H_    0.127295 0.886045 0.105030 0.261889
H38   H     H_    0.122056 0.921417 0.936564 0.274587
H39   H     H_    0.074205 0.827709 0.969292 0.250974
O24   O     O_3   0.974705 0.832198 0.676126 -0.613085
C60   C     C_3   0.956516 0.874920 0.815267 0.054603
H40   H     H_    0.987597 0.891820 0.902908 0.173196
H41   H     H_    0.932217 0.800807 0.830933 0.106234
C61   C     C_3   0.929610 0.002308 0.840536 -0.363556
H42   H     H_    0.906198 0.997862 0.738679 0.230790
H43   H     H_    0.905648 0.014740 0.927847 0.201495
C62   C     C_3   0.964027 0.122537 0.888442 -0.733049
H44   H     H_    0.978394 0.149639 0.006889 0.252319
H45   H     H_    0.944070 0.206232 0.875043 0.244084
H46   H     H_    0.994507 0.103917 0.820629 0.304353
C63   C     C_2   0.431521 0.846376 0.367152 0.904160
O25   O     O_2   0.423308 0.869065 0.252626 -0.601246
O26   O     O_R   0.404790 0.746541 0.386080 -0.783520
H47   H     H_    0.380741 0.698394 0.296320 0.338635
C64   C     C_2   0.445074 0.155887 0.641201 0.861577
O27   O     O_2   0.417935 0.238943 0.624985 -0.585919
O28   O     O_R   0.451414 0.135909 0.775961 -0.790028
H48   H     H_    0.431971 0.196850 0.851483 0.314260

loop_
_geom_bond_atom_site_label_1
_geom_bond_atom_site_label_2
_ccdc_geom_bond_type
C62   H46   S    
O17   C49   S    
C27   C29   D    
C8    C26   A    
C14   C18   A    
O20   H31   S    
C31   H4    S    
O24   C60   S    
O28   H48   S    
C62   H44   S    
C32   H3    S    
H6    N3    S    
O16   H16   S    
C54   H29   S    
C53   C54   S    
C40   O17   S    
C59   H38   S    
C19   C21   A    
C23   O7    A    
C56   O21   D    
C2    O2    A    
C36   O11   S    
C55   O20   S    
C20   C56   S    
C53   H27   S    
C9    C22   A    
C50   H20   S    
O22   H32   S    
C29   C64   S    
C3    C18   A    
C64   O28   S    
C57   H33   S    
C15   C26   A    
C58   C59   S    
C12   C42   A    
C8    H10   S    
O26   H47   S    
C33   O9    S    
Cu1   Cu2   S    
C61   H42   S    
C5    C33   A    
Cu2   N3    S    
Cu2   O3    S    
Cu1   N4    S    
C21   H13   S    
C27   H2    S    
C60   C61   S    
C1    C27   S    
C38   H11   S    
C41   C43   A    
C51   H21   S    
C42   C44   A    
Cu2   O6    S    
Cu1   O1    S    
C44   C46   A    
O14   H15   S    
C19   C55   S    
C10   C21   A    
C54   H30   S    
C58   H36   S    
C13   C19   A    
C23   O5    A    
C4    C6    A    
C50   H19   S    
C5    C7    A    
C31   N3    D    
C39   O18   S    
C6    C8    A    
C51   H23   S    
C45   N1    S    
C1    O3    A    
C6    C34   A    
C46   N2    S    
C57   C58   S    
C12   C40   A    
C11   C39   A    
Cu1   O4    S    
C29   C30   S    
C3    C9    A    
C14   C20   A    
C22   H14   S    
C28   H1    S    
C44   H8    S    
C48   O15   D    
C49   C50   S    
C33   N1    A    
C34   N2    A    
C16   C18   A    
C26   O24   S    
Cu2   O2    S    
C51   H22   S    
H5    N4    S    
C43   C45   A    
Cu1   O5    S    
C58   H35   S    
C59   H39   S    
C4    C17   A    
C43   H7    S    
C52   H25   S    
C20   C22   A    
C4    C10   A    
C24   O6    A    
C32   N4    D    
C60   H40   S    
C16   C25   A    
C62   H45   S    
C30   C63   S    
C48   O16   S    
Cu2   O7    S    
C31   C32   S    
C42   C48   S    
Cu1   O8    S    
C49   H18   S    
C3    C5    A    
C25   O23   S    
C41   C47   S    
C35   N1    A    
C63   O25   D    
C15   C17   A    
C54   H28   S    
C12   C24   S    
C35   O12   S    
C47   O14   S    
C7    C25   A    
C52   H24   S    
C13   C17   A    
C28   C30   D    
C37   C39   A    
C2    O4    A    
O23   C57   S    
C50   C51   S    
C38   C40   A    
C63   O26   S    
C24   O8    A    
C61   C62   S    
C11   C23   S    
C1    O1    A    
C10   C36   A    
C11   C41   A    
C53   H26   S    
C57   H34   S    
C38   C46   A    
C37   H12   S    
C47   O13   D    
C52   C53   S    
C49   H17   S    
C61   H43   S    
O18   C52   S    
C13   C16   A    
C55   O19   D    
C9    C35   A    
C14   C15   A    
C2    C28   S    
C56   O22   S    
C36   N2    A    
C37   C45   A    
C7    H9    S    
C64   O27   D    
C34   O10   S    
C59   H37   S    
C60   H41   S    
