data_mof_unit_16198.cif
_audit_creation_date              2012-12-10T19:28:30-0500
_audit_creation_method            fapswitch 2.2
_symmetry_space_group_name_H-M    P1
_symmetry_Int_Tables_number       1
_space_group_crystal_system       triclinic
_cell_length_a                    26.792182
_cell_length_b                    10.480712
_cell_length_c                    9.784445
_cell_angle_alpha                 90.353484
_cell_angle_beta                  91.660648
_cell_angle_gamma                 89.945611
_cell_volume                      2746.27631847

loop_
_atom_site_label
_atom_site_type_symbol
_atom_type_description
_atom_site_fract_x
_atom_site_fract_y
_atom_site_fract_z
_atom_type_partial_charge
C1    C     C_R   0.501402 0.257993 0.499673 1.039751
C2    C     C_R   0.498509 0.741914 0.500357 1.037923
C3    C     C_R   0.112707 0.664199 0.672366 -0.066781
C4    C     C_R   0.905537 0.622264 0.605833 -0.067756
C5    C     C_R   0.139519 0.573321 0.748837 -0.095679
C6    C     C_R   0.878443 0.708378 0.522319 -0.089742
C7    C     C_R   0.115020 0.503154 0.847472 -0.259284
C8    C     C_R   0.903547 0.805716 0.456679 -0.251350
C9    C     C_R   0.138894 0.753239 0.596735 -0.052565
C10   C     C_R   0.881223 0.514210 0.656074 -0.055783
C11   C     C_R   0.351532 0.508242 0.495982 -0.107282
C12   C     C_R   0.648452 0.526163 0.510785 -0.101008
C13   C     C_R   0.983795 0.552134 0.718398 -0.030014
C14   C     C_R   0.034221 0.763371 0.600582 -0.021583
C15   C     C_R   0.982139 0.746069 0.572965 -0.045813
C16   C     C_R   0.035083 0.574631 0.749385 -0.044124
C17   C     C_R   0.957111 0.641626 0.634685 -0.063854
C18   C     C_R   0.060390 0.667892 0.674476 -0.074619
C19   C     C_R   0.960035 0.435766 0.754309 0.535351
C20   C     C_R   0.061491 0.873451 0.560923 0.572207
C21   C     C_R   0.908625 0.421118 0.726311 -0.290965
C22   C     C_R   0.114119 0.863061 0.550847 -0.328548
C23   C     C_R   0.405585 0.500611 0.498250 0.894939
C24   C     C_R   0.594573 0.503884 0.502272 0.895345
C25   C     C_R   0.063057 0.509418 0.853960 0.602421
C26   C     C_R   0.955140 0.818283 0.472018 0.576625
C27   C     C_3   0.534067 0.038788 0.595249 0.331581
C28   C     C_3   0.465815 0.960779 0.405012 0.333357
C29   C     C_3   0.545462 0.954636 0.471106 0.313101
C30   C     C_3   0.454452 0.044924 0.529117 0.318352
C31   C     C_3   0.498277 0.876375 0.501265 -0.403034
C32   C     C_3   0.501613 0.123375 0.498929 -0.405373
C33   C     C_3   0.486874 0.962320 0.625431 0.361839
C34   C     C_3   0.513038 0.037225 0.374702 0.361650
C35   C     C_3   0.499436 0.384432 0.048019 -0.124038
C36   C     C_3   0.500606 0.615555 0.951944 -0.125914
C37   C     C_3   0.538416 0.441833 0.955402 0.237894
C38   C     C_3   0.461614 0.558173 0.044493 0.257866
C39   C     C_3   0.460650 0.443243 0.947522 -0.130636
C40   C     C_3   0.539383 0.556732 0.052451 -0.138129
C41   C     C_R   0.190203 0.557124 0.723291 0.537202
C42   C     C_R   0.827049 0.689900 0.499093 0.531620
C43   C     C_R   0.189588 0.729532 0.573776 0.539327
C44   C     C_R   0.830090 0.497413 0.627428 0.504679
C45   C     C_R   0.274746 0.613672 0.425327 0.225485
C46   C     C_R   0.730897 0.509538 0.416219 0.205461
C47   C     C_R   0.326446 0.598148 0.414515 -0.246152
C48   C     C_R   0.679370 0.487821 0.405796 -0.246643
C49   C     C_R   0.324176 0.421016 0.570460 -0.216451
C50   C     C_R   0.668616 0.590373 0.625556 -0.190697
C51   C     C_R   0.272458 0.435450 0.577746 0.223274
C52   C     C_R   0.719911 0.613755 0.639398 0.175433
C53   C     C_R   0.251137 0.554031 0.536689 0.116768
C54   C     C_R   0.751163 0.571254 0.534485 0.213897
H1    H     H_    0.342551 0.338507 0.615544 0.174275
H2    H     H_    0.643683 0.622706 0.703396 0.167611
H3    H     H_    0.498774 0.287375 0.092415 0.181145
H4    H     H_    0.501351 0.712587 0.907514 0.180777
H5    H     H_    0.427479 0.396227 0.898840 0.139864
H6    H     H_    0.572574 0.603734 0.101058 0.140059
H7    H     H_    0.135736 0.443141 0.918867 0.202079
H8    H     H_    0.883944 0.866407 0.383615 0.208868
H9    H     H_    0.663541 0.438442 0.317204 0.156690
H10   H     H_    0.346654 0.653891 0.341434 0.167051
H11   H     H_    0.890327 0.332902 0.751834 0.196025
H12   H     H_    0.136078 0.939607 0.509975 0.181126
N1    N     N_R   0.209801 0.613202 0.609916 -0.331293
N2    N     N_R   0.804076 0.586122 0.552615 -0.357457
N3    N     N_3   0.499960 0.500030 0.863290 -0.105021
N4    N     N_3   0.500040 0.499970 0.136710 -0.102922
O1    O     O_R   0.500000 0.313960 0.616610 -0.608403
O2    O     O_R   0.500000 0.686040 0.383390 -0.607335
O3    O     O_R   0.500020 0.313950 0.383350 -0.592574
O4    O     O_R   0.499980 0.686050 0.616650 -0.595342
O5    O     O_R   0.428750 0.500030 0.616610 -0.607026
O6    O     O_R   0.571250 0.499970 0.383390 -0.608604
O7    O     O_R   0.428770 0.500020 0.383360 -0.639236
O8    O     O_R   0.571230 0.499980 0.616640 -0.646971
O9    O     O_2   0.219185 0.488931 0.810897 -0.597727
O10   O     O_2   0.800218 0.774518 0.423877 -0.578318
O11   O     O_2   0.806286 0.393880 0.674774 -0.572861
O12   O     O_2   0.218036 0.821967 0.521192 -0.607163
Zn1   Zn    Zn3+2 0.499990 0.500010 0.655740 0.956600
Zn2   Zn    Zn3+2 0.500010 0.499990 0.344260 0.960281
O13   O     O_3   0.569314 0.090203 0.690277 -0.614745
C55   C     C_3   0.590508 0.991193 0.770099 -0.314275
H13   H     H_    0.606211 0.913425 0.706793 0.192465
H14   H     H_    0.562993 0.950040 0.839562 0.189141
H15   H     H_    0.621474 0.031433 0.834478 0.181807
O14   O     O_3   0.430484 0.908610 0.310697 -0.621547
C56   C     C_3   0.408982 0.006970 0.230623 -0.310657
H16   H     H_    0.436485 0.049468 0.161982 0.189738
H17   H     H_    0.392539 0.083798 0.293754 0.196701
H18   H     H_    0.378495 0.965601 0.165353 0.177233
O15   O     O_3   0.473268 0.911558 0.752226 -0.611531
C57   C     C_3   0.460746 0.011451 0.842154 -0.342488
H19   H     H_    0.489049 0.089067 0.846232 0.201615
H20   H     H_    0.458490 0.971301 0.946000 0.165967
H21   H     H_    0.423484 0.051551 0.815565 0.207178
O16   O     O_3   0.526686 0.087897 0.247925 -0.612037
C58   C     C_3   0.538803 0.987870 0.157724 -0.344380
H22   H     H_    0.510036 0.911420 0.152861 0.202330
H23   H     H_    0.575737 0.946007 0.184666 0.208237
H24   H     H_    0.541516 0.028411 0.054171 0.166961
C59   C     C_3   0.584324 0.374929 0.900236 -0.367114
C60   C     C_3   0.614749 0.309820 0.013991 -0.900224
H25   H     H_    0.627475 0.381134 0.091720 0.255476
H26   H     H_    0.592109 0.235703 0.063788 0.282533
H27   H     H_    0.648043 0.263452 0.970382 0.263250
H28   H     H_    0.572199 0.302886 0.822977 0.272461
H29   H     H_    0.608333 0.446435 0.851122 0.213167
C61   C     C_3   0.415612 0.624900 0.099100 -0.403893
C62   C     C_3   0.385758 0.691713 0.985268 -0.880324
H30   H     H_    0.408937 0.765129 0.936215 0.282718
H31   H     H_    0.372662 0.621408 0.906740 0.277170
H32   H     H_    0.352766 0.739573 0.028741 0.253028
H33   H     H_    0.391376 0.552827 0.146561 0.215264
H34   H     H_    0.427558 0.695954 0.177618 0.269919
C63   C     C_3   0.241153 0.318002 0.604356 -0.360692
C64   C     C_3   0.247015 0.217722 0.491784 -0.904504
H35   H     H_    0.235360 0.258043 0.391042 0.262614
H36   H     H_    0.286292 0.184773 0.487160 0.270125
H37   H     H_    0.223079 0.134021 0.512749 0.274576
H38   H     H_    0.252478 0.276002 0.704575 0.238003
H39   H     H_    0.200785 0.341346 0.605366 0.215214
C65   C     C_3   0.742889 0.682053 0.764189 -0.372434
C66   C     C_3   0.706281 0.729564 0.870425 -0.914147
H40   H     H_    0.679715 0.799335 0.823976 0.254106
H41   H     H_    0.685596 0.648349 0.914167 0.258319
H42   H     H_    0.727321 0.778115 0.955212 0.265547
H43   H     H_    0.769635 0.616538 0.816949 0.222361
H44   H     H_    0.764229 0.765899 0.728823 0.220323
C67   C     C_3   0.763317 0.462505 0.302123 -0.391366
C68   C     C_3   0.754173 0.539639 0.171829 -0.833969
H45   H     H_    0.714958 0.528648 0.133741 0.249976
H46   H     H_    0.761984 0.642260 0.191519 0.290574
H47   H     H_    0.779267 0.505073 0.091155 0.254234
H48   H     H_    0.803636 0.467984 0.330679 0.212724
H49   H     H_    0.754895 0.360364 0.280762 0.207560
C69   C     C_3   0.245687 0.670866 0.305087 -0.381855
C70   C     C_3   0.252399 0.592661 0.174369 -0.854653
H50   H     H_    0.291897 0.593721 0.143343 0.265153
H51   H     H_    0.240574 0.492365 0.190191 0.267065
H52   H     H_    0.229039 0.633896 0.090012 0.274515
H53   H     H_    0.205007 0.671644 0.323006 0.219369
H54   H     H_    0.258391 0.770281 0.288071 0.237522
O17   O     O_3   0.989376 0.330080 0.788755 -0.578727
C71   C     C_3   0.967443 0.252367 0.888249 -0.176518
H55   H     H_    0.942141 0.181018 0.838488 0.149566
H56   H     H_    0.947603 0.308975 0.966768 0.145110
H57   H     H_    0.997577 0.198485 0.942514 0.202075
O18   O     O_3   0.036239 0.990213 0.554797 -0.566466
C72   C     C_3   0.060596 0.084148 0.478438 -0.185238
H58   H     H_    0.072237 0.046536 0.377568 0.146924
H59   H     H_    0.092693 0.125072 0.538316 0.142953
H60   H     H_    0.033912 0.163189 0.457841 0.202194
O19   O     O_3   0.041051 0.454220 0.965148 -0.579483
C73   C     C_3   0.023994 0.551692 0.052178 -0.378805
H61   H     H_    0.992754 0.606324 0.003271 0.162250
H62   H     H_    0.054876 0.617254 0.084666 0.161422
H63   H     H_    0.009549 0.507172 0.145673 0.196999
O20   O     O_3   0.978544 0.893810 0.378039 -0.567731
C74   C     C_3   0.993369 0.815962 0.268284 -0.377064
H64   H     H_    0.960570 0.770731 0.215042 0.164969
H65   H     H_    0.020557 0.741733 0.302951 0.152528
H66   H     H_    0.012237 0.876590 0.192971 0.198425
O21   O     O_3   0.591083 0.894463 0.440923 -0.613444
C75   C     C_3   0.628803 0.987071 0.426890 -0.255008
H67   H     H_    0.616532 0.069746 0.363576 0.181273
H68   H     H_    0.660711 0.941823 0.375446 0.190645
H69   H     H_    0.642785 0.021744 0.528110 0.199045
O22   O     O_3   0.408564 0.103450 0.559787 -0.628693
C76   C     C_3   0.371362 0.009432 0.574649 -0.272988
H70   H     H_    0.341271 0.050279 0.636980 0.177607
H71   H     H_    0.385052 0.922110 0.627965 0.196167
H72   H     H_    0.354496 0.982333 0.473868 0.198879

loop_
_geom_bond_atom_site_label_1
_geom_bond_atom_site_label_2
_ccdc_geom_bond_type
C42   N2    A    
C59   H28   S    
C38   N4    S    
C42   O10   S    
C65   C66   S    
C40   H6    S    
C37   N3    S    
C27   C29   S    
C8    C26   A    
C14   C18   A    
C11   C47   A    
O15   C57   S    
C71   H57   S    
O4    Zn1   S    
C12   C48   A    
O6    Zn2   S    
C68   H47   S    
C41   N1    A    
C63   H38   S    
C27   C33   S    
C48   H9    S    
O19   C73   S    
C40   N4    S    
C3    C9    A    
C74   H65   S    
C71   H56   S    
O20   C74   S    
C37   C40   S    
C36   H4    S    
C70   H51   S    
O13   C55   S    
C61   H33   S    
C55   H14   S    
C9    C22   A    
C54   N2    S    
C60   H25   S    
C57   H21   S    
C3    C18   A    
C11   C23   S    
C50   C52   A    
C27   O13   S    
C22   H12   S    
C11   C49   A    
C73   H63   S    
O8    Zn1   S    
C75   H69   S    
C7    H7    S    
O17   C71   S    
C35   N4    S    
C52   C54   A    
C12   C50   A    
C49   C51   A    
C57   H20   S    
C51   C63   S    
C31   C33   S    
C72   H59   S    
N4    Zn2   S    
O3    Zn2   S    
C2    O4    A    
C64   H37   S    
C62   H32   S    
C21   H11   S    
C45   C47   A    
C59   H29   S    
C64   H35   S    
C28   C34   S    
C67   H48   S    
C58   H23   S    
C73   H62   S    
C2    O2    A    
C33   O15   S    
C61   C62   S    
C64   H36   S    
O1    Zn1   S    
C76   H71   S    
C10   C21   A    
C38   C39   S    
C46   C48   A    
C9    C43   A    
C13   C19   A    
C10   C44   A    
C58   H22   S    
C14   C20   A    
C36   C40   S    
C74   H66   S    
C69   C70   S    
C4    C6    A    
C44   O11   S    
C70   H52   S    
C69   H54   S    
O21   C75   S    
C5    C7    A    
C52   C65   S    
C55   H13   S    
C24   O6    A    
C15   C26   A    
C68   H46   S    
O7    Zn2   S    
C76   H70   S    
C29   C34   S    
C26   O20   S    
C1    C32   S    
C19   O17   S    
C20   O18   S    
C2    C31   S    
C51   C53   A    
C32   C34   S    
C35   C39   S    
C66   H41   S    
C37   C59   S    
N3    Zn1   S    
C56   H17   S    
C34   O16   S    
C65   H44   S    
C39   H5    S    
C57   H19   S    
C46   C54   A    
C39   N3    S    
C16   C18   A    
C1    O1    A    
C23   O7    A    
C72   H60   S    
C30   O22   S    
O2    Zn2   S    
C4    C17   A    
C63   H39   S    
C24   O8    A    
C75   H67   S    
C20   C22   A    
C67   H49   S    
C58   H24   S    
C25   O19   S    
C73   H61   S    
C44   N2    A    
C38   C61   S    
C66   H40   S    
C56   H16   S    
C36   N3    S    
C35   C37   S    
C62   H30   S    
C76   H72   S    
C16   C25   A    
C15   C17   A    
C5    C41   A    
C30   C33   S    
C19   C21   A    
C27   C32   S    
C28   C31   S    
C23   O5    A    
C3    C5    A    
C55   H15   S    
C69   H53   S    
C41   O9    S    
C6    C8    A    
C63   C64   S    
C47   H10   S    
C68   H45   S    
C59   C60   S    
C12   C24   S    
C7    C25   A    
C13   C17   A    
C35   H3    S    
C1    O3    A    
C29   O21   S    
C36   C38   S    
C66   H42   S    
C28   C30   S    
C29   C31   S    
C49   H1    S    
C70   H50   S    
C46   C67   S    
C30   C32   S    
O5    Zn1   S    
O14   C56   S    
C67   C68   S    
C60   H26   S    
C65   H43   S    
C75   H68   S    
O16   C58   S    
C71   H55   S    
C45   C69   S    
C53   N1    S    
C50   H2    S    
C74   H64   S    
C45   C53   A    
O22   C76   S    
O18   C72   S    
C43   N1    A    
C6    C42   A    
C13   C16   A    
C43   O12   S    
C61   H34   S    
C14   C15   A    
C28   O14   S    
C62   H31   S    
C72   H58   S    
C4    C10   A    
C8    H8    S    
C56   H18   S    
C60   H27   S    
