data_mof_unit_62756.cif
_audit_creation_date              2013-03-05T16:29:56-0500
_audit_creation_method            fapswitch 2.2
_symmetry_space_group_name_H-M    P1
_symmetry_Int_Tables_number       1
_space_group_crystal_system       triclinic
_cell_length_a                    19.370529
_cell_length_b                    18.282045
_cell_length_c                    15.984488
_cell_angle_alpha                 89.948384
_cell_angle_beta                  92.165103
_cell_angle_gamma                 89.982423
_cell_volume                      5656.58913324

loop_
_atom_site_label
_atom_site_type_symbol
_atom_site_description
_atom_site_fract_x
_atom_site_fract_y
_atom_site_fract_z
_atom_type_partial_charge
O1    O     O_R   0.400190 0.561980 0.499990 -0.546266
O2    O     O_R   0.599810 0.438020 0.500010 -0.547734
O3    O     O_R   0.599810 0.561980 0.500010 -0.544580
O4    O     O_R   0.400190 0.438020 0.499990 -0.545883
C1    C     C_R   0.367930 0.500060 0.499343 0.923659
C2    C     C_R   0.632073 0.500038 0.500797 0.923386
O5    O     O_R   0.499980 0.561940 0.380310 -0.549883
O6    O     O_R   0.500020 0.438060 0.619690 -0.551003
O7    O     O_R   0.500020 0.561940 0.619690 -0.552516
O8    O     O_R   0.499980 0.438060 0.380310 -0.553740
C3    C     C_R   0.499610 0.500040 0.341294 0.861661
C4    C     C_R   0.500369 0.499964 0.658696 0.862182
Cu1   Cu    Cu3+1 0.500000 0.573360 0.500000 1.089180
Cu2   Cu    Cu3+1 0.500000 0.426640 0.500000 1.087440
C5    C     C_R   0.547493 0.543902 0.958245 0.226744
C6    C     C_R   0.451845 0.456593 0.041656 0.227281
C7    C     C_R   0.547160 0.544204 0.046037 0.228527
C8    C     C_R   0.452105 0.456385 0.953853 0.228348
C9    C     C_R   0.499974 0.499990 0.912527 -0.134056
C10   C     C_R   0.499415 0.500450 0.087390 -0.134976
C11   C     C_1   0.500244 0.499851 0.822782 0.165197
C12   C     C_1   0.499356 0.500362 0.177162 0.164299
C13   C     C_1   0.499392 0.500183 0.252223 -0.007561
C14   C     C_1   0.500405 0.499872 0.747741 -0.006421
C15   C     C_R   0.745702 0.496444 0.577504 0.206105
C16   C     C_R   0.254020 0.496212 0.423325 0.205665
C17   C     C_R   0.259336 0.505558 0.575951 0.174875
C18   C     C_R   0.740987 0.505236 0.424824 0.174328
C19   C     C_R   0.818078 0.495662 0.577473 0.297567
C20   C     C_R   0.181661 0.495356 0.423792 0.296819
C21   C     C_R   0.186978 0.506060 0.576329 0.306952
C22   C     C_R   0.813355 0.505931 0.424874 0.306383
C23   C     C_R   0.851725 0.500612 0.501170 -0.062399
C24   C     C_R   0.148320 0.500455 0.500281 -0.063049
C25   C     C_R   0.707373 0.500288 0.501076 -0.247317
C26   C     C_R   0.292644 0.500349 0.499508 -0.247206
C27   C     C_R   0.963767 0.567600 0.500605 0.249497
C28   C     C_R   0.036283 0.433395 0.500499 0.249187
C29   C     C_R   0.036346 0.567508 0.501199 0.249462
C30   C     C_R   0.963742 0.433458 0.501629 0.248737
C31   C     C_R   0.072336 0.500434 0.500694 -0.154441
C32   C     C_R   0.927722 0.500559 0.501176 -0.154509
C33   C     C_R   0.454597 0.722255 0.447943 0.338067
C34   C     C_R   0.545204 0.277642 0.552232 0.337546
C35   C     C_R   0.545396 0.722160 0.552060 0.337338
C36   C     C_R   0.454801 0.277741 0.447763 0.336710
C37   C     C_R   0.453441 0.799870 0.447658 0.168698
C38   C     C_R   0.546394 0.200016 0.552490 0.168943
C39   C     C_R   0.546546 0.799772 0.552324 0.166432
C40   C     C_R   0.453610 0.200118 0.447529 0.166709
C41   C     C_R   0.499994 0.839436 0.499985 -0.208753
C42   C     C_R   0.500000 0.160451 0.500016 -0.209040
N1    N     N_R   0.500000 0.683620 0.500000 -0.274392
N2    N     N_R   0.500000 0.316380 0.500000 -0.274233
C43   C     C_R   0.559266 0.961464 0.479060 -0.053115
C44   C     C_R   0.440724 0.038431 0.520931 -0.053068
C45   C     C_R   0.440722 0.961468 0.520924 -0.054401
C46   C     C_R   0.559272 0.038426 0.479083 -0.054450
H1    H     H_    0.605546 0.932643 0.462160 0.184425
H2    H     H_    0.394443 0.067255 0.537818 0.184459
H3    H     H_    0.394440 0.932651 0.537816 0.183872
H4    H     H_    0.605556 0.067247 0.462204 0.183836
C47   C     C_R   0.500001 0.077986 0.500016 0.178232
C48   C     C_R   0.499992 0.921905 0.499984 0.178175
Br1   Br    Br    0.611791 0.604463 0.109718 -0.231602
Br2   Br    Br    0.387151 0.396564 0.890063 -0.235217
Br3   Br    Br    0.612827 0.603390 0.900395 -0.211610
Br4   Br    Br    0.386553 0.397045 0.099481 -0.210944
Br5   Br    Br    0.699255 0.494404 0.682123 -0.267319
Br6   Br    Br    0.300043 0.494002 0.318428 -0.265076
Br7   Br    Br    0.312902 0.511976 0.679879 -0.337478
Br8   Br    Br    0.687802 0.510914 0.320576 -0.333523
Br9   Br    Br    0.871487 0.489339 0.681630 -0.190972
Br10  Br    Br    0.127860 0.488703 0.319963 -0.190550
Br11  Br    Br    0.140483 0.513122 0.680696 -0.201433
Br12  Br    Br    0.860259 0.512878 0.320768 -0.201257
N3    N     N_R   0.926748 0.635810 0.496445 0.178003
O9    O     O_R   0.879063 0.650099 0.549233 -0.255966
O10   O     O_R   0.941605 0.684593 0.440597 -0.199068
N4    N     N_R   0.073067 0.365229 0.496129 0.179170
O11   O     O_R   0.124290 0.350929 0.548587 -0.262659
O12   O     O_R   0.054650 0.316599 0.440248 -0.196555
N5    N     N_R   0.073472 0.635586 0.505279 0.177171
O13   O     O_R   0.120229 0.650351 0.451402 -0.256976
O14   O     O_R   0.059742 0.683674 0.562316 -0.201320
N6    N     N_R   0.926917 0.365351 0.506227 0.178729
O15   O     O_R   0.875857 0.350953 0.453612 -0.266087
O16   O     O_R   0.945203 0.316829 0.562405 -0.197145
Br13  Br    Br    0.392663 0.673607 0.369206 -0.257552
Br14  Br    Br    0.606770 0.326019 0.631351 -0.259370
Br15  Br    Br    0.607322 0.673405 0.630869 -0.240567
Br16  Br    Br    0.393259 0.326230 0.368558 -0.242766
N7    N     N_R   0.406138 0.838325 0.392029 0.162640
O17   O     O_R   0.429075 0.885077 0.338309 -0.251831
O18   O     O_R   0.339841 0.830570 0.399011 -0.233076
N8    N     N_R   0.593577 0.161543 0.608257 0.163002
O19   O     O_R   0.659896 0.169190 0.601388 -0.234306
O20   O     O_R   0.570508 0.114842 0.661948 -0.251854
N9    N     N_R   0.593834 0.838123 0.607958 0.163564
O21   O     O_R   0.570878 0.884776 0.661699 -0.251226
O22   O     O_R   0.660134 0.830358 0.600984 -0.230107
N10   N     N_R   0.406440 0.161752 0.391755 0.163897
O23   O     O_R   0.340118 0.169420 0.398611 -0.231308
O24   O     O_R   0.429524 0.115146 0.338048 -0.251385

loop_
_geom_bond_atom_site_label_1
_geom_bond_atom_site_label_2
_geom_bond_distance
_ccdc_geom_bond_type
C46   H4    1.082835 S    
N7    O17   1.301175 A    
C43   H1    1.082834 S    
O3    C2    1.293076 A    
C34   Br14  1.921599 S    
C29   C31   1.410555 A    
O2    C2    1.294647 A    
N3    O9    1.300984 A    
C44   C45   1.407030 A    
O5    C3    1.292510 A    
C33   Br13  1.924281 S    
O1    C1    1.293085 A    
C23   C32   1.472110 S    
C9    C11   1.434733 S    
C38   C42   1.406736 A    
C20   Br10  1.930046 S    
N6    O16   1.301187 A    
C19   Br9   1.930020 S    
C1    C26   1.458439 S    
C19   C23   1.407280 A    
C7    C10   1.406341 A    
C2    C25   1.458456 S    
C8    C9    1.406214 A    
C30   N6    1.438364 S    
C27   C32   1.410956 A    
O7    Cu1   1.924340 S    
C33   N1    1.381319 A    
N5    O13   1.301354 A    
C18   C25   1.406255 A    
C39   C41   1.407265 A    
N8    O20   1.301175 A    
C40   C42   1.406701 A    
C6    Br4   1.930403 S    
O3    Cu1   1.944465 S    
C6    C10   1.406059 A    
C30   C32   1.410977 A    
C35   N1    1.381423 A    
N7    O18   1.301019 A    
Cu1   Cu2   2.682340 S    
N8    O19   1.301022 A    
C18   Br8   1.928412 S    
C24   C31   1.472124 S    
C35   Br15  1.924415 S    
Cu1   N1    2.015778 S    
N3    O10   1.301257 A    
C15   C19   1.402060 A    
C21   C24   1.407267 A    
C20   C24   1.407290 A    
C17   C21   1.401872 A    
N10   O23   1.301024 A    
C18   C22   1.401834 A    
C28   C31   1.410762 A    
N4    O12   1.301191 A    
O8    Cu2   1.924342 S    
N6    O15   1.300978 A    
O4    C1    1.294640 A    
C37   C41   1.407298 A    
C27   N3    1.438530 S    
C44   H2    1.082834 S    
O1    Cu1   1.944592 S    
C5    C9    1.405876 A    
C39   N9    1.435774 S    
C21   Br11  1.929954 S    
N9    O21   1.301172 A    
C35   C39   1.419095 A    
O6    C4    1.292499 A    
C5    Br3   1.930532 S    
C43   C48   1.407935 A    
C36   N2    1.381654 A    
C37   N7    1.435763 S    
C44   C47   1.407897 A    
N10   O24   1.301173 A    
C15   C25   1.407087 A    
C16   C26   1.407019 A    
Cu2   N2    2.015778 S    
C10   C12   1.435000 S    
C40   N10   1.435820 S    
C16   Br6   1.928950 S    
C43   C46   1.407027 A    
C15   Br5   1.928986 S    
C17   Br7   1.928806 S    
C45   C48   1.407929 A    
C46   C47   1.407890 A    
C5    C7    1.403589 A    
C4    C14   1.423306 S    
O6    Cu2   1.924714 S    
C38   N8    1.435810 S    
N9    O22   1.301020 A    
C41   C48   1.507702 S    
N4    O11   1.300973 A    
C42   C47   1.507640 S    
C22   Br12  1.929950 S    
C45   H3    1.082831 S    
C17   C26   1.406453 A    
C8    Br2   1.929957 S    
C36   C40   1.419308 A    
C7    Br1   1.929699 S    
C22   C23   1.407275 A    
C29   N5    1.437930 S    
C27   C29   1.405558 A    
C28   C30   1.405956 A    
C28   N4    1.438396 S    
C3    C13   1.423596 S    
O4    Cu2   1.944465 S    
N5    O14   1.301705 A    
O2    Cu2   1.944592 S    
O7    C4    1.292669 A    
O8    C3    1.292804 A    
C34   N2    1.381544 A    
O5    Cu1   1.924716 S    
C36   Br16  1.921752 S    
C6    C8    1.403702 A    
C11   C14   1.199618 T    
C12   C13   1.199793 T    
C33   C37   1.419135 A    
C34   C38   1.419344 A    
C16   C20   1.402032 A    
