data_mof_unit_43358.cif
_audit_creation_date              2012-10-26T19:56:13-0400
_audit_creation_method            fapswitch 2.2
_symmetry_space_group_name_H-M    P1
_symmetry_Int_Tables_number       1
_space_group_crystal_system       triclinic
_cell_length_a                    10.827471
_cell_length_b                    10.624846
_cell_length_c                    9.419792
_cell_angle_alpha                 89.038522
_cell_angle_beta                  90.743599
_cell_angle_gamma                 89.149302
_cell_volume                      1083.28804439

loop_
_atom_site_label
_atom_site_type_symbol
_atom_type_description
_atom_site_fract_x
_atom_site_fract_y
_atom_site_fract_z
_atom_type_partial_charge
C1    C     C_R   0.500263 0.259374 0.501025 0.544353
C2    C     C_3   0.403144 0.045690 0.424016 -0.126846
C3    C     C_3   0.499726 0.877643 0.497342 0.047651
C4    C     C_3   0.500285 0.122356 0.502658 0.047655
C5    C     C_3   0.394536 0.958464 0.556443 -0.128727
C6    C     C_3   0.605475 0.041536 0.443557 -0.128720
C7    C     C_3   0.535265 0.607342 0.048924 -0.010169
C8    C     C_3   0.464734 0.392658 0.951076 -0.010159
C9    C     C_3   0.426086 0.586173 0.946407 0.001993
C10   C     C_3   0.573913 0.413827 0.053593 0.001996
C11   C     C_3   0.609375 0.521076 0.950948 -0.001992
C12   C     C_R   0.499741 0.740626 0.498975 0.544335
C13   C     C_3   0.390624 0.478924 0.049052 -0.001990
C14   C     C_R   0.262470 0.504036 0.498944 0.539497
C15   C     C_R   0.737530 0.495967 0.501055 0.539510
C16   C     C_R   0.231906 0.821832 0.191299 -0.105877
C17   C     C_R   0.768161 0.178131 0.808680 -0.105871
C18   C     C_R   0.189850 0.745080 0.302136 -0.050561
C19   C     C_R   0.810214 0.254886 0.697843 -0.050597
C20   C     C_R   0.112164 0.643738 0.272799 0.048466
C21   C     C_R   0.887833 0.356280 0.727194 0.048495
C22   C     C_R   0.077153 0.621378 0.131431 -0.113593
C23   C     C_R   0.871555 0.493809 0.502238 -0.005860
C24   C     C_R   0.922777 0.378701 0.868573 -0.113579
C25   C     C_R   0.119393 0.698258 0.021123 -0.132301
C26   C     C_R   0.880534 0.301823 0.978882 -0.132309
C27   C     C_R   0.196425 0.798837 0.051200 -0.121550
C28   C     C_R   0.803575 0.201183 0.948792 -0.121525
C29   C     C_R   0.929975 0.559481 0.392885 -0.154954
C30   C     C_R   0.070023 0.440541 0.607120 -0.154950
C31   C     C_R   0.128444 0.506206 0.497763 -0.005860
C32   C     C_R   0.942008 0.432638 0.610893 -0.033578
C33   C     C_R   0.057991 0.567381 0.389107 -0.033568
C34   C     C_3   0.491613 0.037438 0.635221 -0.117605
C35   C     C_3   0.508398 0.962561 0.364779 -0.117615
C36   C     C_3   0.596867 0.954308 0.575984 -0.126842
Cu1   Cu    Cu3+1 0.500030 0.499990 0.643150 0.922079
Cu2   Cu    Cu3+1 0.499970 0.500010 0.356850 0.922067
H1    H     H_    0.228821 0.858851 0.965914 0.098782
H2    H     H_    0.709518 0.099602 0.786361 0.099699
H3    H     H_    0.215744 0.766006 0.410503 0.090469
H4    H     H_    0.784370 0.233923 0.589468 0.090443
H5    H     H_    0.016037 0.544878 0.107653 0.092411
H6    H     H_    0.983836 0.455250 0.892359 0.092410
H7    H     H_    0.092002 0.680221 0.912511 0.107377
H8    H     H_    0.907864 0.319911 0.087508 0.107371
H9    H     H_    0.874971 0.608836 0.311855 0.129441
H10   H     H_    0.125022 0.391191 0.688158 0.129456
H11   H     H_    0.676210 0.912932 0.637326 0.103928
H12   H     H_    0.771180 0.141170 0.034078 0.098778
H13   H     H_    0.323799 0.087063 0.362672 0.103944
H14   H     H_    0.483914 0.070645 0.745924 0.103908
H15   H     H_    0.516104 0.929355 0.254077 0.103896
H16   H     H_    0.308173 0.921381 0.602384 0.095921
H17   H     H_    0.691838 0.078618 0.397616 0.095919
H18   H     H_    0.365111 0.658662 0.894873 0.110299
H19   H     H_    0.634888 0.341338 0.105127 0.110292
H20   H     H_    0.564960 0.697809 0.094666 0.099109
H21   H     H_    0.435040 0.302191 0.905335 0.099113
H22   H     H_    0.701402 0.539714 0.905333 0.118081
H23   H     H_    0.298595 0.460294 0.094666 0.118089
H24   H     H_    0.290602 0.900318 0.213609 0.099711
N1    N     N_3   0.500090 0.499970 0.858290 -0.231189
N2    N     N_3   0.499910 0.500030 0.141710 -0.231190
O1    O     O_R   0.500060 0.316850 0.620870 -0.506266
O2    O     O_R   0.499940 0.683150 0.379130 -0.506280
O3    O     O_R   0.500000 0.316860 0.379090 -0.506654
O4    O     O_R   0.500000 0.683140 0.620910 -0.506656
O5    O     O_R   0.319670 0.500010 0.620890 -0.512187
O6    O     O_R   0.680330 0.499990 0.379110 -0.512192
O7    O     O_R   0.319620 0.500010 0.379110 -0.493568
O8    O     O_R   0.680380 0.499990 0.620890 -0.493561

loop_
_geom_bond_atom_site_label_1
_geom_bond_atom_site_label_2
_ccdc_geom_bond_type
C2    C35   S    
Cu2   O6    S    
C8    C13   S    
Cu1   O5    S    
C35   H15   S    
C14   O7    A    
C14   C31   S    
C7    C11   S    
C15   O8    A    
C12   O4    A    
C29   H9    S    
C23   C29   A    
C30   H10   S    
C19   C21   A    
C24   C26   A    
C11   N1    S    
C8    H21   S    
C30   C31   A    
Cu1   O4    S    
C29   C33   A    
C6    C35   S    
C9    C13   S    
C3    C12   S    
C1    O3    A    
C28   H12   S    
Cu2   O2    S    
C27   H1    S    
C22   C25   A    
Cu1   O1    S    
C1    O1    A    
C31   C33   A    
C6    H17   S    
C7    H20   S    
C18   C20   A    
C19   H4    S    
C16   C27   A    
C15   C23   S    
C16   H24   S    
Cu1   N1    S    
Cu2   N2    S    
C21   C32   S    
C4    C34   S    
C5    H16   S    
C10   H19   S    
C4    C6    S    
C2    H13   S    
C18   H3    S    
C12   O2    A    
C17   H2    S    
C2    C4    S    
Cu1   Cu2   S    
C22   H5    S    
C3    C35   S    
C5    C34   S    
C9    H18   S    
C20   C33   S    
C16   C18   A    
C20   C22   A    
C24   H6    S    
C14   O5    A    
Cu1   O8    S    
C2    C5    S    
C11   H22   S    
C25   H7    S    
C7    C9    S    
C15   O6    A    
Cu2   O7    S    
C9    N1    S    
C17   C28   A    
C34   H14   S    
C10   N2    S    
C3    C5    S    
C25   C27   A    
C26   C28   A    
C1    C4    S    
C23   C32   A    
C30   C32   A    
C13   N2    S    
C3    C36   S    
C17   C19   A    
C6    C36   S    
C34   C36   S    
C7    N2    S    
C10   C11   S    
C26   H8    S    
C8    N1    S    
C13   H23   S    
Cu2   O3    S    
C8    C10   S    
C21   C24   A    
C36   H11   S    
