data_mof_unit_57957.cif
_audit_creation_date              2013-03-05T15:52:31-0500
_audit_creation_method            fapswitch 2.2
_symmetry_space_group_name_H-M    P1
_symmetry_Int_Tables_number       1
_space_group_crystal_system       triclinic
_cell_length_a                    6.950631
_cell_length_b                    20.489532
_cell_length_c                    24.378906
_cell_angle_alpha                 89.774828
_cell_angle_beta                  90.494692
_cell_angle_gamma                 89.427946
_cell_volume                      3471.59574315

loop_
_atom_site_label
_atom_site_type_symbol
_atom_site_description
_atom_site_fract_x
_atom_site_fract_y
_atom_site_fract_z
_atom_type_partial_charge
O1    O     O_R   0.507310 0.423620 0.460450 -0.589460
O2    O     O_R   0.170760 0.556060 0.437190 -0.583410
O3    O     O_R   0.004040 0.576380 0.539550 -0.591168
C1    C     C_R   0.338692 0.576168 0.421229 0.975839
O4    O     O_R   0.177350 0.422870 0.454070 -0.588428
O5    O     O_R   0.010680 0.442240 0.556560 -0.591901
C2    C     C_R   0.346238 0.398946 0.443359 0.930412
O6    O     O_R   0.500670 0.557760 0.443440 -0.589257
O7    O     O_3   0.340380 0.506510 0.533610 -0.274868
V1    V     V_3+5 0.064130 0.498790 0.493770 1.174328
O8    O     O_R   0.681170 0.443940 0.562810 -0.593264
C3    C     C_R   0.850944 0.423923 0.578730 0.976838
O9    O     O_R   0.674570 0.577130 0.545930 -0.591689
C4    C     C_R   0.842636 0.601036 0.556671 0.923450
V2    V     V_3+5 0.564560 0.501210 0.506230 1.166846
O10   O     O_3   0.838170 0.493490 0.466390 -0.265407
C5    C     C_R   0.977392 0.836604 0.913041 -0.272107
C6    C     C_R   0.846955 0.661601 0.589148 -0.100860
C7    C     C_R   0.055206 0.721413 0.906275 -0.267952
C8    C     C_R   0.039543 0.777832 0.938228 0.358228
C9    C     C_R   0.930249 0.837461 0.856744 -0.295631
C10   C     C_R   0.946626 0.780414 0.823849 0.132956
C11   C     C_R   0.010588 0.722220 0.850054 0.120792
C12   C     C_R   0.904559 0.779106 0.765960 0.074036
C13   C     C_R   0.926889 0.719424 0.735708 0.057506
C14   C     C_R   0.991150 0.663219 0.764298 -0.203634
C15   C     C_R   0.031489 0.664765 0.820115 -0.185574
C16   C     C_R   0.841199 0.835409 0.737287 -0.201337
C17   C     C_R   0.800465 0.833866 0.681476 -0.240239
C18   C     C_R   0.819621 0.776292 0.651665 0.184094
C19   C     C_R   0.883505 0.717949 0.677931 0.110492
C20   C     C_R   0.772290 0.776766 0.595575 -0.174699
C21   C     C_R   0.784059 0.719842 0.564814 -0.160814
C22   C     C_R   0.897800 0.660578 0.645149 -0.244809
H1    H     H_    0.942245 0.614045 0.661891 0.102715
H2    H     H_    0.742382 0.721079 0.521885 0.111888
H3    H     H_    0.751606 0.878444 0.661429 0.132277
H4    H     H_    0.102517 0.676186 0.925547 0.176774
H5    H     H_    0.886549 0.883959 0.839778 0.115063
H6    H     H_    0.012669 0.616782 0.744691 0.130839
H7    H     H_    0.820636 0.881941 0.756806 0.128864
H8    H     H_    0.722804 0.821267 0.575566 0.119980
C23   C     C_3   0.765752 0.258402 0.802633 -0.336859
C24   C     C_3   0.118909 0.245776 0.783579 -0.377107
C25   C     C_3   0.099191 0.295421 0.735302 -0.402185
H9    H     H_    0.767295 0.358383 0.769988 0.166681
H10   H     H_    0.238779 0.210929 0.775098 0.152888
H11   H     H_    0.156897 0.272222 0.821897 0.179363
H12   H     H_    0.127721 0.345518 0.750636 0.162037
H13   H     H_    0.209784 0.284217 0.703867 0.152822
C26   C     C_1   0.863661 0.378595 0.624586 -0.282137
C27   C     C_3   0.928824 0.207928 0.791609 0.375680
C28   C     C_3   0.745988 0.308009 0.754316 -0.417997
C29   C     C_3   0.895168 0.292813 0.709003 0.416825
C30   C     C_3   0.861143 0.222082 0.688852 -0.383077
C31   C     C_3   0.880773 0.172459 0.737147 -0.408301
C32   C     C_1   0.876850 0.340229 0.662654 -0.097122
C33   C     C_1   0.947217 0.160416 0.837862 -0.064836
C34   C     C_1   0.960535 0.121830 0.875753 -0.205828
H14   H     H_    0.744020 0.145173 0.741418 0.155130
H15   H     H_    0.715076 0.218397 0.670121 0.152066
H16   H     H_    0.626769 0.232776 0.808194 0.163781
H17   H     H_    0.966955 0.209405 0.656491 0.153518
C35   C     C_3   0.584155 0.696826 0.262336 -0.310582
C36   C     C_3   0.219134 0.702438 0.247947 0.224177
C37   C     C_3   0.254272 0.749043 0.198189 -0.417729
H18   H     H_    0.627502 0.717502 0.174897 0.224306
H19   H     H_    0.599900 0.645865 0.247677 0.234663
H20   H     H_    0.084899 0.719468 0.268388 0.085435
H21   H     H_    0.276190 0.720579 0.159931 0.228445
H22   H     H_    0.124087 0.779629 0.190312 0.195744
C38   C     C_1   0.475679 0.878078 0.124457 -0.177971
C39   C     C_3   0.386827 0.707401 0.290947 0.157786
C40   C     C_3   0.609413 0.745380 0.213631 -0.429136
C41   C     C_3   0.433328 0.792396 0.208605 0.116160
C42   C     C_3   0.414169 0.828489 0.264837 0.263938
C43   C     C_3   0.384443 0.778585 0.312764 -0.583080
C44   C     C_1   0.459614 0.839609 0.162338 0.064292
C45   C     C_1   0.363217 0.660059 0.337293 0.025538
C46   C     C_1   0.348299 0.621668 0.375297 -0.259568
H23   H     H_    0.246948 0.788428 0.334405 0.207607
H24   H     H_    0.553144 0.853649 0.272771 0.103195
H25   H     H_    0.702631 0.704190 0.292631 0.166073
H26   H     H_    0.743376 0.773802 0.219951 0.187966
C47   C     C_R   0.472600 0.163336 0.087027 -0.278435
C48   C     C_R   0.352042 0.338357 0.410908 -0.103597
C49   C     C_R   0.546419 0.278332 0.093933 -0.260741
C50   C     C_R   0.531390 0.221970 0.061961 0.360397
C51   C     C_R   0.428262 0.162524 0.143280 -0.280621
C52   C     C_R   0.444242 0.219499 0.176231 0.133859
C53   C     C_R   0.504553 0.277585 0.150107 0.107391
C54   C     C_R   0.405333 0.220830 0.234102 0.058687
C55   C     C_R   0.426709 0.280457 0.264389 0.047761
C56   C     C_R   0.487070 0.336567 0.235867 -0.177479
C57   C     C_R   0.524624 0.334979 0.180083 -0.158794
C58   C     C_R   0.346218 0.164593 0.262731 -0.173436
C59   C     C_R   0.308581 0.166163 0.318530 -0.213702
C60   C     C_R   0.326710 0.223703 0.348366 0.167351
C61   C     C_R   0.386408 0.281971 0.322142 0.112186
C62   C     C_R   0.282521 0.223278 0.404436 -0.166936
C63   C     C_R   0.293273 0.280186 0.435207 -0.165375
C64   C     C_R   0.399758 0.339323 0.354933 -0.229611
H27   H     H_    0.571022 0.379461 0.160149 0.158105
H28   H     H_    0.253960 0.278999 0.478113 0.107973
H29   H     H_    0.262963 0.121636 0.338547 0.155730
H30   H     H_    0.591097 0.323449 0.074708 0.177205
H31   H     H_    0.387123 0.116113 0.160171 0.130481
H32   H     H_    0.507719 0.382948 0.255509 0.147896
H33   H     H_    0.326838 0.118085 0.243195 0.158751
H34   H     H_    0.236230 0.178839 0.424416 0.120251
O11   O     O_R   0.323590 0.942280 0.056590 -0.572286
O12   O     O_R   0.647030 0.077140 0.045940 -0.593815
O13   O     O_R   0.813570 0.057750 0.943430 -0.578161
C65   C     C_R   0.478221 0.101285 0.056385 1.037603
O14   O     O_R   0.653510 0.943950 0.062820 -0.578634
O15   O     O_R   0.820100 0.923600 0.960440 -0.585013
C66   C     C_R   0.485569 0.923743 0.078688 0.979313
O16   O     O_R   0.317060 0.076430 0.039590 -0.581805
O17   O     O_3   0.483830 0.993520 0.966410 -0.280440
V3    V     V_3+5 0.760140 0.001200 0.006230 1.236872
O18   O     O_R   0.149560 0.922820 0.954030 -0.597817
C67   C     C_R   0.981549 0.898689 0.943633 1.025874
O19   O     O_R   0.143080 0.056020 0.937150 -0.587067
C68   C     C_R   0.973316 0.076207 0.921372 0.979230
V4    V     V_3+5 0.259690 0.998730 0.993720 1.231413
O20   O     O_3   0.986120 0.006480 0.033580 -0.267660
H35   H     H_    0.080721 0.620197 0.840109 0.140561
H36   H     H_    0.796540 0.285144 0.841323 0.191207
H37   H     H_    0.995886 0.136144 0.727781 0.155594
H38   H     H_    0.597682 0.305928 0.736851 0.158458
N1    N     N_R   0.187980 0.635136 0.229673 0.245370
O21   O     O_R   0.313280 0.605032 0.199241 -0.380954
O22   O     O_R   0.028496 0.605904 0.241822 -0.400308
H39   H     H_    0.501070 0.784625 0.343868 0.175815
N2    N     N_R   0.261044 0.878422 0.263725 0.243773
O23   O     O_R   0.305577 0.939839 0.266728 -0.407272
O24   O     O_R   0.080390 0.862314 0.262684 -0.434141
H40   H     H_    0.440924 0.385815 0.338209 0.113006
N3    N     N_R   0.577274 0.225203 0.004432 0.227370
O25   O     O_R   0.487918 0.188885 0.968925 -0.418551
O26   O     O_R   0.696222 0.268921 0.986539 -0.402811
N4    N     N_R   0.088128 0.774479 0.995836 0.228454
O27   O     O_R   0.000880 0.811629 0.031159 -0.411081
O28   O     O_R   0.207295 0.729843 0.014012 -0.387704

loop_
_geom_bond_atom_site_label_1
_geom_bond_atom_site_label_2
_geom_bond_distance
_ccdc_geom_bond_type
C13   C19   1.438420 A    
C24   H11   1.112897 S    
C49   C50   1.400073 A    
C62   H34   1.083962 S    
C55   C56   1.410542 A    
C49   C53   1.402545 A    
C4    C6    1.475071 S    
O2    C1    1.303762 A    
C7    C8    1.400362 A    
C1    O6    1.297070 A    
C5    C8    1.411720 A    
O12   C65   1.296477 A    
C59   C60   1.393932 A    
N2    O23   1.301112 A    
C50   N3    1.442397 S    
C28   C29   1.551914 S    
C49   H30   1.084205 S    
C56   H32   1.076158 S    
C14   C15   1.387524 A    
O15   C67   1.298394 A    
C35   H19   1.109638 S    
C16   C17   1.387896 A    
C1    C46   1.456639 S    
O5    C3    1.297206 A    
C18   C19   1.419396 A    
V3    O20   1.705657 S    
C23   C27   1.552590 S    
O19   V4    1.971237 S    
C2    C48   1.475109 S    
V2    O10   2.147592 S    
C16   H7    1.076052 S    
C54   C58   1.411296 A    
C21   H2    1.083639 S    
C36   C39   1.565224 S    
C22   H1    1.077009 S    
C64   H40   1.077008 S    
C62   C63   1.391240 A    
C38   C44   1.218370 T    
O8    V2    1.971165 S    
C23   C28   1.557099 S    
O14   C66   1.303779 A    
C30   H17   1.112924 S    
C38   C66   1.455868 S    
O11   V4    1.961709 S    
C35   C39   1.557687 S    
C26   C32   1.216143 T    
O16   V4    1.990746 S    
C25   H12   1.112867 S    
O7    V1    2.151802 S    
C55   C61   1.438312 A    
C31   H37   1.112910 S    
C24   H10   1.113091 S    
C59   H29   1.084409 S    
C24   C27   1.552098 S    
O9    C4    1.296242 A    
C15   H35   1.084407 S    
C41   C44   1.496650 S    
C36   N1    1.468365 S    
C42   N2    1.468926 S    
C57   H27   1.084415 S    
C10   C11   1.416342 A    
C20   H8    1.083966 S    
N3    O25   1.301451 A    
C40   C41   1.553668 S    
C8    N4    1.442836 S    
O19   C68   1.300973 A    
C42   C43   1.566013 S    
C42   H24   1.115240 S    
O12   V3    1.994213 S    
C47   C51   1.408246 A    
C13   C14   1.410517 A    
C5    C9    1.408287 A    
C31   H14   1.112988 S    
C7    C11   1.402637 A    
C41   C42   1.566242 S    
C35   H25   1.113197 S    
O18   V4    1.991016 S    
C17   C18   1.393847 A    
C7    H4    1.084172 S    
O13   V3    1.956754 S    
C52   C54   1.439121 A    
C37   H22   1.110467 S    
C9    H5    1.077008 S    
C43   H23   1.112674 S    
O8    C3    1.300958 A    
C58   C59   1.387906 A    
C51   H31   1.077042 S    
C30   C31   1.556804 S    
C39   C45   1.497400 S    
C19   C22   1.427172 A    
H18   C40   1.112938 S    
C12   C13   1.438279 A    
C6    C22   1.407307 A    
O18   C67   1.296084 A    
C65   O16   1.298803 A    
O3    C4    1.298621 A    
C27   C33   1.490613 S    
O1    V2    1.987526 S    
O17   V4    1.702033 S    
C25   C29   1.552731 S    
O14   V3    1.962368 S    
O6    V2    1.961376 S    
C11   C15   1.394588 A    
O9    V2    1.990975 S    
V4    O20   2.147611 S    
N4    O28   1.301620 A    
C43   H39   1.113357 S    
N1    O21   1.301302 A    
O2    V1    1.962442 S    
C3    C26   1.452122 S    
C24   C25   1.556833 S    
O4    C2    1.296636 A    
C47   C50   1.411394 A    
C34   C68   1.451569 S    
N2    O24   1.301553 A    
C29   C30   1.551782 S    
C47   C65   1.477494 S    
C35   C40   1.558281 S    
O1    C2    1.299035 A    
C12   C16   1.411232 A    
C40   H26   1.113074 S    
N1    O22   1.301087 A    
C23   H36   1.112921 S    
O5    V1    1.956589 S    
O17   V3    2.151890 S    
C63   H28   1.083635 S    
C58   H33   1.076117 S    
C60   C62   1.403604 A    
O11   C66   1.296696 A    
C20   C21   1.391206 A    
C33   C34   1.215839 T    
O4    V1    1.994076 S    
O3    V1    1.989015 S    
V1    O10   1.705841 S    
C18   C20   1.403629 A    
N3    O26   1.301589 A    
C14   H6    1.076158 S    
C52   C53   1.416472 A    
C37   H21   1.112743 S    
O13   C68   1.296969 A    
C25   H13   1.113064 S    
C36   H20   1.115116 S    
C37   C41   1.555899 S    
C30   H15   1.113002 S    
H9    C28   1.112818 S    
C54   C55   1.438301 A    
C10   C12   1.439180 A    
C36   C37   1.563221 S    
O7    V2    1.703074 S    
C56   C57   1.387424 A    
C6    C21   1.395212 A    
C53   C57   1.394536 A    
C45   C46   1.218790 T    
O15   V3    1.989133 S    
C5    C67   1.477532 S    
C61   C64   1.427182 A    
C60   C61   1.419409 A    
C17   H3    1.084390 S    
C39   C43   1.554431 S    
N4    O27   1.301389 A    
C28   H38   1.113158 S    
C51   C52   1.424387 A    
C9    C10   1.424302 A    
C48   C63   1.395260 A    
C27   C31   1.551553 S    
C23   H16   1.113146 S    
C29   C32   1.491057 S    
C48   C64   1.407226 A    
