data_mof_unit_20160.cif
_audit_creation_date              2012-12-11T15:07:11-0500
_audit_creation_method            fapswitch 2.2
_symmetry_space_group_name_H-M    P1
_symmetry_Int_Tables_number       1
_space_group_crystal_system       triclinic
_cell_length_a                    19.762981
_cell_length_b                    11.675887
_cell_length_c                    18.679194
_cell_angle_alpha                 90.110231
_cell_angle_beta                  88.946254
_cell_angle_gamma                 89.894292
_cell_volume                      4309.48570961

loop_
_atom_site_label
_atom_site_type_symbol
_atom_type_description
_atom_site_fract_x
_atom_site_fract_y
_atom_site_fract_z
_atom_type_partial_charge
C1    C     C_R   0.770473 0.489912 0.632182 0.564647
C2    C     C_R   0.237107 0.518428 0.361526 0.586223
C3    C     C_R   0.262386 0.021294 0.639595 0.589428
C4    C     C_R   0.728294 0.985926 0.367987 0.563625
C5    C     C_3   0.810370 0.079738 0.449747 0.025436
C6    C     C_3   0.180680 0.120987 0.565601 0.009058
C7    C     C_3   0.308683 0.644149 0.432058 0.005934
C8    C     C_3   0.686956 0.583638 0.551102 0.016503
C9    C     C_3   0.740492 0.022125 0.444690 0.005053
C10   C     C_3   0.251131 0.067493 0.567986 0.027271
C11   C     C_3   0.249480 0.562445 0.433729 0.029013
C12   C     C_3   0.757468 0.527175 0.556376 0.008941
C13   C     C_3   0.759741 0.083576 0.578204 0.038534
C14   C     C_3   0.225768 0.124118 0.435375 0.016631
C15   C     C_3   0.275246 0.619605 0.565993 0.042084
C16   C     C_3   0.738923 0.585064 0.422322 0.036758
C17   C     C_3   0.744464 0.956144 0.577545 0.041951
C18   C     C_3   0.225803 0.993933 0.443032 0.063517
C19   C     C_3   0.289935 0.490178 0.554822 0.038476
C20   C     C_3   0.753354 0.457429 0.424212 0.044302
C21   C     C_3   0.823016 0.109492 0.528523 -0.258466
C22   C     C_3   0.171843 0.170946 0.490111 -0.268186
C23   C     C_3   0.318315 0.686155 0.509515 -0.275238
C24   C     C_3   0.675305 0.612869 0.471705 -0.259699
C25   C     C_3   0.994975 0.204977 0.456201 -0.230699
C26   C     C_3   0.993985 0.204881 0.539146 -0.228072
C27   C     C_3   0.508148 0.705252 0.460068 -0.228349
C28   C     C_3   0.502726 0.706943 0.542730 -0.228878
C29   C     C_3   0.060957 0.395469 0.469167 -0.233170
C30   C     C_3   0.929746 0.392824 0.526958 -0.234084
C31   C     C_3   0.559561 0.905079 0.471218 -0.225604
C32   C     C_3   0.430775 0.890199 0.528773 -0.227295
C33   C     C_3   0.940932 0.393083 0.445417 -0.254254
C34   C     C_3   0.049552 0.393209 0.549176 -0.241064
C35   C     C_3   0.438685 0.875496 0.447211 -0.260037
C36   C     C_3   0.551376 0.900558 0.552087 -0.253066
C37   C     C_3   0.006117 0.329906 0.428223 0.048872
C38   C     C_3   0.985754 0.329413 0.567365 0.034752
C39   C     C_3   0.508815 0.829436 0.430711 0.035878
C40   C     C_3   0.489032 0.831717 0.569790 0.046175
C41   C     C_3   0.805493 0.980428 0.037197 -0.213382
C42   C     C_3   0.191145 0.997671 0.958899 -0.219790
C43   C     C_3   0.306916 0.474676 0.037217 -0.207594
C44   C     C_3   0.693275 0.486224 0.960477 -0.219342
C45   C     C_R   0.775437 0.123770 0.649810 0.592161
C46   C     C_R   0.210968 0.156166 0.359104 0.548735
C47   C     C_R   0.289660 0.656121 0.641040 0.562515
C48   C     C_R   0.724369 0.623834 0.350191 0.588989
C49   C     C_3   0.825728 0.026667 0.965066 -0.082549
C50   C     C_3   0.178959 0.023799 0.037740 -0.069758
C51   C     C_3   0.320059 0.507829 0.958919 -0.075012
C52   C     C_3   0.675896 0.522853 0.036274 -0.080296
C53   C     C_3   0.681067 0.003800 0.020521 -0.255249
C54   C     C_3   0.311143 0.962172 0.984586 -0.256775
C55   C     C_3   0.184189 0.470434 0.012733 -0.267246
C56   C     C_3   0.817457 0.514696 0.971376 -0.234486
C57   C     C_3   0.747307 0.169347 0.059268 -0.252981
C58   C     C_3   0.274780 0.150210 0.946341 -0.241923
C59   C     C_3   0.231166 0.647475 0.058505 -0.235083
C60   C     C_3   0.746599 0.681289 0.944502 -0.267179
C61   C     C_3   0.741315 0.039293 0.068021 0.035363
C62   C     C_3   0.263186 0.024704 0.934574 0.021913
C63   C     C_3   0.237261 0.519028 0.065399 0.035352
C64   C     C_3   0.754302 0.553792 0.929095 0.040035
C65   C     C_3   0.761125 0.088596 0.931505 0.070056
C66   C     C_3   0.244498 0.078213 0.071666 0.061512
C67   C     C_3   0.258395 0.582833 0.930594 0.062616
C68   C     C_3   0.739538 0.587186 0.068542 0.065551
C69   C     C_3   0.700379 0.007757 0.939527 -0.257463
C70   C     C_3   0.300490 0.990358 0.065877 -0.244279
C71   C     C_3   0.191976 0.517664 0.935623 -0.238378
C72   C     C_3   0.802210 0.511718 0.054005 -0.265503
C73   C     C_3   0.745141 0.196190 0.978240 -0.255304
C74   C     C_3   0.269342 0.178489 0.026385 -0.248019
C75   C     C_3   0.252023 0.682693 0.982861 -0.270014
C76   C     C_3   0.750835 0.698416 0.025848 -0.243530
C77   C     C_3   0.003043 0.475768 0.040842 -0.249455
C78   C     C_3   0.996800 0.472207 0.960485 -0.251751
C79   C     C_3   0.506576 0.974544 0.039544 -0.253020
C80   C     C_3   0.498245 0.976195 0.959050 -0.252494
C81   C     C_3   0.061707 0.274218 0.026114 -0.209465
C82   C     C_3   0.932886 0.278810 0.980655 -0.217248
C83   C     C_3   0.560935 0.770757 0.023881 -0.214022
C84   C     C_3   0.435288 0.781109 0.974273 -0.216039
C85   C     C_3   0.939638 0.299344 0.062784 -0.123184
C86   C     C_3   0.053271 0.284022 0.943024 -0.113450
C87   C     C_3   0.439468 0.802355 0.056951 -0.127753
C88   C     C_3   0.557909 0.793520 0.941357 -0.124508
C89   C     C_R   0.967872 0.341759 0.644753 0.557967
C90   C     C_R   0.028603 0.341774 0.352686 0.534827
C91   C     C_R   0.469714 0.842098 0.646219 0.540016
C92   C     C_R   0.530040 0.841793 0.354086 0.530850
C93   C     C_3   0.010404 0.351331 0.071159 0.074750
C94   C     C_3   0.985900 0.347745 0.932668 0.060810
C95   C     C_3   0.510874 0.849586 0.069220 0.072635
C96   C     C_3   0.489315 0.851476 0.929676 0.074851
C97   C     C_R   0.761975 0.525896 0.851124 0.551089
C98   C     C_R   0.227521 0.488555 0.143845 0.537579
C99   C     C_R   0.271799 0.992507 0.856203 0.536929
C100  C     C_R   0.731104 0.002139 0.144081 0.545183
C101  C     C_R   0.773703 0.129207 0.856726 0.547783
C102  C     C_R   0.228326 0.124801 0.145345 0.534085
C103  C     C_R   0.273669 0.629847 0.857208 0.541612
C104  C     C_R   0.727516 0.626083 0.144452 0.538681
C105  C     C_R   0.963771 0.353360 0.855860 0.537645
C106  C     C_R   0.034055 0.354059 0.146059 0.530190
C107  C     C_R   0.466714 0.853940 0.853774 0.531025
C108  C     C_R   0.533760 0.853385 0.145527 0.531071
C109  C     C_3   0.685922 0.107244 0.471552 -0.196317
C110  C     C_3   0.305016 0.154908 0.541746 -0.200521
C111  C     C_3   0.186528 0.617418 0.470009 -0.203724
C112  C     C_3   0.810015 0.616087 0.530019 -0.200810
C113  C     C_3   0.698472 0.146762 0.547485 -0.016474
C114  C     C_3   0.295053 0.174092 0.460925 -0.000619
C115  C     C_3   0.200027 0.644888 0.548667 0.002513
C116  C     C_3   0.800029 0.648374 0.452514 -0.022096
C117  C     C_3   0.745479 0.919208 0.498454 -0.284227
C118  C     C_3   0.253820 0.965957 0.515747 -0.255465
C119  C     C_3   0.271268 0.460560 0.478910 -0.256840
C120  C     C_3   0.752271 0.423004 0.503319 -0.270922
Cr1   Cr    Cr6+3 0.885690 0.492860 0.745310 1.060926
Cr2   Cr    Cr6+3 0.114310 0.492860 0.254690 1.048650
Cr3   Cr    Cr6+3 0.385690 0.992860 0.745310 1.039956
Cr4   Cr    Cr6+3 0.614310 0.992860 0.254690 1.058895
Cr5   Cr    Cr6+3 0.729880 0.332270 0.748190 1.057678
Cr6   Cr    Cr6+3 0.270120 0.332270 0.251810 1.043688
Cr7   Cr    Cr6+3 0.229880 0.832270 0.748190 1.041956
Cr8   Cr    Cr6+3 0.770120 0.832270 0.251810 1.053683
Cr9   Cr    Cr6+3 0.888120 0.178590 0.753010 1.009173
Cr10  Cr    Cr6+3 0.111880 0.178590 0.246990 1.021781
Cr11  Cr    Cr6+3 0.388120 0.678590 0.753010 1.024601
Cr12  Cr    Cr6+3 0.611880 0.678590 0.246990 1.005115
H1    H     H_    0.636590 0.070642 0.469369 0.141759
H2    H     H_    0.357027 0.124413 0.551497 0.181276
H3    H     H_    0.145404 0.558058 0.468326 0.138871
H4    H     H_    0.861849 0.595517 0.540018 0.154522
H5    H     H_    0.864825 0.053375 0.546234 0.162075
H6    H     H_    0.122002 0.152525 0.471269 0.153810
H7    H     H_    0.371404 0.679593 0.522423 0.138483
H8    H     H_    0.634613 0.554645 0.454056 0.168130
H9    H     H_    0.796904 0.883967 0.491908 0.165672
H10   H     H_    0.226524 0.893519 0.538683 0.149582
H11   H     H_    0.317337 0.424914 0.452673 0.200038
H12   H     H_    0.700997 0.387905 0.511167 0.166182
H13   H     H_    0.028715 0.139673 0.432429 0.172112
H14   H     H_    0.953453 0.149585 0.559810 0.146123
H15   H     H_    0.552362 0.658555 0.441382 0.149463
H16   H     H_    0.465323 0.644502 0.562696 0.187788
H17   H     H_    0.945376 0.173758 0.438505 0.168829
H18   H     H_    0.041167 0.167192 0.559632 0.158175
H19   H     H_    0.465272 0.656171 0.437966 0.139460
H20   H     H_    0.550451 0.674700 0.564474 0.176146
H21   H     H_    0.611366 0.883941 0.453729 0.098942
H22   H     H_    0.383501 0.859069 0.552021 0.089474
H23   H     H_    0.112298 0.372234 0.451338 0.098833
H24   H     H_    0.881303 0.361561 0.545465 0.098411
H25   H     H_    0.596252 0.865635 0.576969 0.177656
H26   H     H_    0.400731 0.817077 0.427268 0.176624
H27   H     H_    0.093527 0.359025 0.575484 0.219252
H28   H     H_    0.898601 0.357286 0.417512 0.180017
H29   H     H_    0.946571 0.480732 0.426492 0.201616
H30   H     H_    0.039839 0.481959 0.566340 0.206187
H31   H     H_    0.432610 0.955920 0.419074 0.212425
H32   H     H_    0.543724 0.987659 0.572573 0.207439
H33   H     H_    0.933556 0.482049 0.543444 0.155426
H34   H     H_    0.054829 0.486881 0.454470 0.167917
H35   H     H_    0.430573 0.983711 0.539466 0.171912
H36   H     H_    0.546821 0.994564 0.456272 0.181158
H37   H     H_    0.792415 0.893455 0.028984 0.133679
H38   H     H_    0.175375 0.910292 0.943829 0.133893
H39   H     H_    0.307047 0.382625 0.043742 0.125648
H40   H     H_    0.709695 0.398642 0.960133 0.125091
H41   H     H_    0.683825 0.180806 0.436534 0.233717
H42   H     H_    0.299002 0.236630 0.571518 0.194066
H43   H     H_    0.171130 0.694715 0.440439 0.221191
H44   H     H_    0.802487 0.692461 0.561224 0.227025
H45   H     H_    0.849762 0.977639 0.072390 0.141019
H46   H     H_    0.161114 0.052881 0.926754 0.142085
H47   H     H_    0.350381 0.497871 0.070090 0.126210
H48   H     H_    0.647357 0.479727 0.928080 0.127283
H49   H     H_    0.860186 0.095024 0.975620 0.129504
H50   H     H_    0.139203 0.088909 0.040635 0.146398
H51   H     H_    0.365687 0.562364 0.958500 0.139404
H52   H     H_    0.636648 0.587740 0.031937 0.147435
H53   H     H_    0.660506 0.922411 0.036466 0.097107
H54   H     H_    0.298317 0.876473 0.976531 0.103292
H55   H     H_    0.190353 0.381496 0.004290 0.098070
H56   H     H_    0.834490 0.433245 0.950377 0.107633
H57   H     H_    0.714126 0.921188 0.919425 0.119317
H58   H     H_    0.287412 0.912176 0.096857 0.112301
H59   H     H_    0.191809 0.447665 0.895083 0.117402
H60   H     H_    0.791653 0.422755 0.071827 0.114060
H61   H     H_    0.704960 0.210814 0.088607 0.128571
H62   H     H_    0.326697 0.169329 0.926649 0.150177
H63   H     H_    0.176973 0.668857 0.068566 0.139891
H64   H     H_    0.787981 0.727773 0.917191 0.126824
H65   H     H_    0.793161 0.204346 0.082667 0.126507
H66   H     H_    0.236844 0.199761 0.916134 0.113008
H67   H     H_    0.261376 0.693598 0.099105 0.131895
H68   H     H_    0.699226 0.716699 0.924920 0.120047
H69   H     H_    0.779965 0.265727 0.965605 0.095466
H70   H     H_    0.233140 0.244623 0.036387 0.097420
H71   H     H_    0.303035 0.712298 0.989276 0.097338
H72   H     H_    0.716294 0.766076 0.043758 0.096750
H73   H     H_    0.693026 0.223385 0.964912 0.122837
H74   H     H_    0.319982 0.205014 0.045286 0.126436
H75   H     H_    0.217098 0.747115 0.961828 0.120513
H76   H     H_    0.802957 0.723694 0.038755 0.127240
H77   H     H_    0.642033 0.069631 0.028491 0.126775
H78   H     H_    0.362982 0.978802 0.967896 0.121999
H79   H     H_    0.134185 0.484401 0.034352 0.123042
H80   H     H_    0.857798 0.578170 0.961375 0.127418
H81   H     H_    0.714531 0.232985 0.546592 0.154664
H82   H     H_    0.290414 0.262428 0.451967 0.155238
H83   H     H_    0.187558 0.735488 0.556826 0.175570
H84   H     H_    0.783926 0.734738 0.449276 0.154019
H85   H     H_    0.657154 0.039601 0.907959 0.116442
H86   H     H_    0.347133 0.026908 0.089026 0.112271
H87   H     H_    0.149392 0.576459 0.923699 0.127901
H88   H     H_    0.845848 0.545023 0.084133 0.111916
H89   H     H_    0.041083 0.539429 0.056407 0.132511
H90   H     H_    0.956656 0.531374 0.945016 0.137384
H91   H     H_    0.548539 0.027866 0.054965 0.137429
H92   H     H_    0.457784 0.037102 0.945219 0.133287
H93   H     H_    0.957169 0.517360 0.064101 0.115314
H94   H     H_    0.043057 0.508907 0.935278 0.121578
H95   H     H_    0.463367 0.021418 0.064955 0.116244
H96   H     H_    0.543552 0.016545 0.933843 0.119684
H97   H     H_    0.611839 0.771932 0.044117 0.091804
H98   H     H_    0.386439 0.795295 0.951452 0.089464
H99   H     H_    0.113793 0.284348 0.043372 0.085190
H100  H     H_    0.882101 0.284982 0.961890 0.085447
H101  H     H_    0.599805 0.852559 0.927354 0.135177
H102  H     H_    0.402210 0.867370 0.071348 0.144468
H103  H     H_    0.095716 0.336221 0.921369 0.135632
H104  H     H_    0.900132 0.361531 0.078911 0.136225
H105  H     H_    0.944459 0.188057 0.973616 0.117238
H106  H     H_    0.050232 0.185353 0.041596 0.121615
H107  H     H_    0.444057 0.688866 0.964710 0.117883
H108  H     H_    0.544964 0.681128 0.033325 0.118877
H109  H     H_    0.707627 0.853679 0.490338 0.106941
H110  H     H_    0.307044 0.947409 0.505269 0.111501
H111  H     H_    0.228568 0.402895 0.480439 0.078084
H112  H     H_    0.787620 0.354285 0.511281 0.105257
H113  H     H_    0.693725 0.942739 0.601885 0.198589
H114  H     H_    0.259626 0.960395 0.400511 0.228302
H115  H     H_    0.258678 0.438724 0.592921 0.218911
H116  H     H_    0.803636 0.442021 0.399403 0.194344
H117  H     H_    0.851329 0.018683 0.433491 0.181370
H118  H     H_    0.141399 0.053963 0.574371 0.196928
H119  H     H_    0.355563 0.598332 0.414464 0.169787
H120  H     H_    0.646411 0.521974 0.567093 0.185466
H121  H     H_    0.839655 0.197970 0.533548 0.112842
H122  H     H_    0.176429 0.261275 0.496893 0.117706
H123  H     H_    0.301995 0.772691 0.510426 0.115670
H124  H     H_    0.658003 0.701662 0.465554 0.112024
O1    O     O_R   0.957210 0.449410 0.665480 -0.503747
O2    O     O_R   0.042790 0.449410 0.334520 -0.506638
O3    O     O_R   0.457210 0.949410 0.665480 -0.504751
O4    O     O_R   0.542790 0.949410 0.334520 -0.505113
O5    O     O_R   0.736260 0.212010 0.826560 -0.506380
O6    O     O_R   0.263740 0.212010 0.173440 -0.514445
O7    O     O_R   0.236260 0.712010 0.826560 -0.506940
O8    O     O_R   0.763740 0.712010 0.173440 -0.513645
O9    O     O_R   0.832520 0.095300 0.836000 -0.539640
O10   O     O_R   0.167480 0.095300 0.164000 -0.533257
O11   O     O_R   0.332520 0.595300 0.836000 -0.539260
O12   O     O_R   0.667480 0.595300 0.164000 -0.526916
O13   O     O_R   0.946380 0.253940 0.826940 -0.529062
O14   O     O_R   0.053620 0.253940 0.173060 -0.525737
O15   O     O_R   0.446380 0.753940 0.826940 -0.524460
O16   O     O_R   0.553620 0.753940 0.173060 -0.526900
O17   O     O_3   0.834560 0.334570 0.748840 -0.333628
O18   O     O_3   0.165440 0.334570 0.251160 -0.342918
O19   O     O_3   0.334560 0.834570 0.748840 -0.342351
O20   O     O_3   0.665440 0.834570 0.251160 -0.338723
O21   O     O_R   0.820730 0.541240 0.668250 -0.462156
O22   O     O_R   0.179270 0.541240 0.331750 -0.476573
O23   O     O_R   0.320730 0.041240 0.668250 -0.495048
O24   O     O_R   0.679270 0.041240 0.331750 -0.453353
O25   O     O_R   0.714240 0.455060 0.663710 -0.472476
O26   O     O_R   0.285760 0.455060 0.336290 -0.518626
O27   O     O_R   0.214240 0.955060 0.663710 -0.510159
O28   O     O_R   0.785760 0.955060 0.336290 -0.468429
O29   O     O_R   0.736780 0.204870 0.675910 -0.481138
O30   O     O_R   0.263220 0.204870 0.324090 -0.457211
O31   O     O_R   0.236780 0.704870 0.675910 -0.458438
O32   O     O_R   0.763220 0.704870 0.324090 -0.483370
O33   O     O_R   0.833070 0.087590 0.673490 -0.473606
O34   O     O_R   0.166930 0.087590 0.326510 -0.445152
O35   O     O_R   0.333070 0.587590 0.673490 -0.446153
O36   O     O_R   0.666930 0.587590 0.326510 -0.472560
O37   O     O_R   0.946890 0.246800 0.676300 -0.510048
O38   O     O_R   0.053110 0.246800 0.323700 -0.516276
O39   O     O_R   0.446890 0.746800 0.676300 -0.512734
O40   O     O_R   0.553110 0.746800 0.323700 -0.517026
O41   O     O_R   0.956650 0.457120 0.827980 -0.518311
O42   O     O_R   0.043350 0.457120 0.172020 -0.530678
O43   O     O_R   0.456650 0.957120 0.827980 -0.529166
O44   O     O_R   0.543350 0.957120 0.172020 -0.527716
O45   O     O_R   0.820220 0.548390 0.818890 -0.491634
O46   O     O_R   0.179780 0.548390 0.181110 -0.491540
O47   O     O_R   0.320220 0.048390 0.818890 -0.494386
O48   O     O_R   0.679780 0.048390 0.181110 -0.486433
O49   O     O_R   0.713680 0.462770 0.826210 -0.532001
O50   O     O_R   0.286320 0.462770 0.173790 -0.530014
O51   O     O_R   0.213680 0.962770 0.826210 -0.533532
O52   O     O_R   0.786320 0.962770 0.173790 -0.526781
Br1   Br    Br    0.807776 0.866585 0.636464 -0.481693
Br2   Br    Br    0.136238 0.920954 0.433996 -0.530921
Br3   Br    Br    0.384979 0.440804 0.568252 -0.529367
Br4   Br    Br    0.688355 0.366571 0.368636 -0.477028
C121  C     C_3   0.870183 0.936394 0.921787 -0.264645
C122  C     C_3   0.919995 0.866661 0.966261 -0.492183
H125  H     H_    0.949340 0.925386 0.000511 0.138160
H126  H     H_    0.894547 0.802370 0.000231 0.142276
H127  H     H_    0.955830 0.819859 0.930137 0.146672
H128  H     H_    0.838237 0.880819 0.888749 0.172091
H129  H     H_    0.906047 0.980464 0.884811 0.192043
C123  C     C_3   0.151843 0.914452 0.076048 -0.259633
C124  C     C_3   0.077355 0.891832 0.061379 -0.460662
H130  H     H_    0.045767 0.962673 0.083527 0.148776
H131  H     H_    0.069071 0.884047 0.002995 0.135213
H132  H     H_    0.061470 0.810509 0.087386 0.149919
H133  H     H_    0.181913 0.844116 0.055920 0.129567
H134  H     H_    0.159444 0.910266 0.134480 0.204703
C125  C     C_3   0.340008 0.401844 0.913589 -0.262696
C126  C     C_3   0.408520 0.351161 0.935055 -0.463382
H135  H     H_    0.448817 0.416834 0.929017 0.145330
H136  H     H_    0.407596 0.320410 0.991152 0.133054
H137  H     H_    0.422093 0.278130 0.899411 0.150702
H138  H     H_    0.297889 0.345165 0.920214 0.137134
H139  H     H_    0.342653 0.411851 0.854974 0.211097
C127  C     C_3   0.643182 0.419815 0.078264 -0.257099
C128  C     C_3   0.568108 0.438955 0.097369 -0.424909
H140  H     H_    0.560213 0.513870 0.132972 0.196048
H141  H     H_    0.538843 0.452312 0.047816 0.110048
H142  H     H_    0.547702 0.362147 0.125254 0.146732
H143  H     H_    0.642379 0.341883 0.044915 0.116915
H144  H     H_    0.671951 0.398237 0.126940 0.191229
C129  C     C_3   0.926659 0.191466 0.109951 -0.313852
C130  C     C_3   0.895455 0.218648 0.184072 -0.377281
H145  H     H_    0.931323 0.264544 0.218676 0.192760
H146  H     H_    0.849264 0.272124 0.179583 0.155029
H147  H     H_    0.881271 0.137440 0.211239 0.206131
H148  H     H_    0.891577 0.137477 0.082532 0.128595
H149  H     H_    0.971490 0.135946 0.116149 0.167453
C131  C     C_3   0.054457 0.164864 0.904033 -0.304769
C132  C     C_3   0.096335 0.166614 0.834022 -0.381201
H150  H     H_    0.073163 0.225208 0.794717 0.209099
H151  H     H_    0.148541 0.196611 0.842970 0.160415
H152  H     H_    0.098061 0.079416 0.810294 0.183340
H153  H     H_    0.066529 0.096270 0.941418 0.103841
H154  H     H_    0.005045 0.129533 0.889836 0.175047
C133  C     C_3   0.418256 0.698170 0.102278 -0.319419
C134  C     C_3   0.392367 0.726846 0.178265 -0.389999
H155  H     H_    0.432727 0.758432 0.213289 0.195887
H156  H     H_    0.351469 0.791986 0.176850 0.158529
H157  H     H_    0.371155 0.648225 0.203268 0.198697
H158  H     H_    0.374350 0.665176 0.075094 0.139768
H159  H     H_    0.457534 0.630443 0.103607 0.154828
C135  C     C_3   0.568885 0.684926 0.894961 -0.313115
C136  C     C_3   0.601087 0.707615 0.820649 -0.377937
H160  H     H_    0.565528 0.749308 0.783821 0.199771
H161  H     H_    0.646429 0.763007 0.824116 0.152633
H162  H     H_    0.616676 0.624901 0.795995 0.198645
H163  H     H_    0.603356 0.633019 0.923964 0.128912
H164  H     H_    0.523272 0.630877 0.889884 0.169746
Br5   Br    Br    0.615210 0.160469 0.605194 -0.527815
Br6   Br    Br    0.377192 0.147477 0.404865 -0.522663
Br7   Br    Br    0.139469 0.572895 0.618270 -0.532102
Br8   Br    Br    0.884309 0.661541 0.396881 -0.541104
Br9   Br    Br    0.821744 0.198219 0.378363 -0.587860
Br10  Br    Br    0.170028 0.229776 0.645466 -0.595675
Br11  Br    Br    0.295345 0.758966 0.357339 -0.599626
Br12  Br    Br    0.672232 0.702175 0.622545 -0.594289

loop_
_geom_bond_atom_site_label_1
_geom_bond_atom_site_label_2
_ccdc_geom_bond_type
C78   H94   S    
C82   C94   S    
C119  H11   S    
C120  H12   S    
C21   H5    S    
C116  H84   S    
C53   C69   S    
C43   C63   S    
C121  H128  S    
C135  H164  S    
C44   C64   S    
C70   H86   S    
C105  O41   A    
Cr1   O21   S    
C63   C98   S    
C51   H51   S    
Cr2   O18   S    
Cr10  O14   S    
C109  H41   S    
Cr11  O11   S    
C28   C40   S    
Cr12  O20   S    
C17   Br1   S    
C81   H106  S    
C30   C38   S    
C19   Br3   S    
C42   H38   S    
C31   H21   S    
C75   H75   S    
C127  H143  S    
C56   C72   S    
C102  O6    A    
C99   O51   A    
C103  O11   A    
C84   H98   S    
C18   C118  S    
C81   C86   S    
C29   H23   S    
C30   H24   S    
C83   C88   S    
C47   O35   A    
C41   C49   S    
C133  H159  S    
Cr5   O29   S    
C6    H118  S    
C109  H1    S    
C85   C129  S    
C46   O30   A    
Cr7   O31   S    
Cr8   O32   S    
C14   C46   S    
C128  H141  S    
C130  H145  S    
C26   C38   S    
Cr5   O17   S    
Cr3   O3    S    
C122  H125  S    
C14   C114  S    
C73   H69   S    
C60   C76   S    
C134  H157  S    
C35   H31   S    
Cr12  O40   S    
C29   H34   S    
C100  O48   A    
C33   H29   S    
C44   H40   S    
C1    O21   A    
C50   C123  S    
C3    O23   A    
C133  C134  S    
C54   C70   S    
Cr9   O37   S    
C68   C72   S    
C115  H83   S    
C106  O42   A    
C32   H22   S    
C23   H123  S    
C64   C97   S    
C4    O24   A    
C15   C115  S    
C69   H57   S    
C90   O2    A    
C20   C120  S    
C70   H58   S    
C22   H6    S    
C43   H39   S    
C57   H65   S    
Cr2   O46   S    
Cr3   O43   S    
C52   H52   S    
Cr7   O19   S    
C130  H147  S    
Cr12  O16   S    
C57   C61   S    
C82   C85   S    
Cr10  O38   S    
C59   C63   S    
Cr11  O35   S    
C60   C64   S    
C1    O25   A    
C66   C70   S    
C42   H46   S    
C131  C132  S    
C114  Br6   S    
Cr3   O23   S    
C98   O46   A    
C95   C108  S    
C60   H68   S    
C62   C99   S    
C5    C21   S    
C124  H130  S    
C81   H99   S    
C57   H61   S    
C45   O33   A    
C31   C36   S    
C104  O8    A    
C55   C71   S    
C76   H76   S    
C13   C45   S    
C132  H150  S    
Cr8   O52   S    
C114  H82   S    
C65   C101  S    
C111  H3    S    
Cr4   O24   S    
C131  H154  S    
C88   H101  S    
C37   C90   S    
Cr4   O48   S    
C41   H45   S    
C78   C94   S    
C135  C136  S    
C66   C74   S    
C8    Br12  S    
C25   H17   S    
C57   C73   S    
C24   H124  S    
C85   C93   S    
C87   C95   S    
C56   C64   S    
C110  C114  S    
C113  Br5   S    
C33   H28   S    
C34   H27   S    
C44   C52   S    
Cr6   O18   S    
C86   C131  S    
C50   H50   S    
C1    C12   S    
C112  H4    S    
C115  Br7   S    
C2    C11   S    
Cr2   O22   S    
Cr3   O19   S    
C110  H42   S    
C72   H88   S    
C18   Br2   S    
C75   H71   S    
C127  C128  S    
C25   C26   S    
C67   C103  S    
C128  H140  S    
C7    H119  S    
C5    C9    S    
C93   C106  S    
C17   H113  S    
C8    C12   S    
C124  H132  S    
C134  H156  S    
C51   C67   S    
C36   H25   S    
C42   C50   S    
C49   H49   S    
C112  H44   S    
C78   H90   S    
C132  H152  S    
C123  H134  S    
Cr6   O30   S    
C136  H162  S    
C110  H2    S    
C84   H107  S    
C67   C75   S    
Cr8   O28   S    
C112  C116  S    
C58   C74   S    
C90   O38   A    
C73   H73   S    
C83   H108  S    
C8    H120  S    
C30   H33   S    
Cr5   O25   S    
C126  H135  S    
C34   H30   S    
C2    O22   A    
C79   H91   S    
C68   C76   S    
C97   O49   A    
C13   C17   S    
C14   C22   S    
C107  O43   A    
C51   C125  S    
C7    C23   S    
C4    O28   A    
C87   C133  S    
C40   C91   S    
Cr5   O49   S    
C91   O3    A    
C21   H121  S    
C61   C100  S    
C127  H144  S    
C54   H78   S    
Cr5   O5    S    
C71   H59   S    
C4    C9    S    
C72   H60   S    
C118  H110  S    
Cr1   O1    S    
C58   C62   S    
C88   C96   S    
C94   C105  S    
C77   H93   S    
C59   C75   S    
C88   C135  S    
Cr9   O17   S    
C12   C112  S    
C44   H48   S    
C49   C121  S    
C2    O26   A    
C60   H64   S    
C77   C78   S    
C15   C19   S    
C43   H47   S    
C89   O37   A    
C69   H85   S    
C130  H146  S    
C122  H126  S    
C6    C22   S    
C82   H105  S    
C71   H87   S    
C14   C18   S    
C82   H100  S    
Cr1   O41   S    
C136  H160  S    
C15   C47   S    
Cr10  O18   S    
Cr4   O44   S    
C17   C117  S    
C122  H127  S    
C19   C119  S    
C105  O13   A    
C126  H137  S    
C16   C116  S    
C121  H129  S    
C135  H163  S    
C9    C109  S    
C28   H16   S    
C107  O15   A    
C5    H117  S    
C108  O16   A    
C54   C62   S    
C11   C111  S    
C29   C34   S    
C6    Br10  S    
C33   C37   S    
C41   C61   S    
C35   C39   S    
C79   C95   S    
C48   O36   A    
C80   H92   S    
C26   H18   S    
Cr7   O51   S    
C123  H133  S    
C80   H96   S    
C129  H149  S    
C96   C107  S    
C39   C92   S    
C125  H139  S    
Cr9   O9    S    
C101  O9    A    
C27   H19   S    
C68   C104  S    
C6    C10   S    
C128  H142  S    
C129  H148  S    
C116  Br8   S    
C56   H80   S    
C83   H97   S    
C92   O40   A    
C59   H63   S    
C35   H26   S    
C58   H62   S    
C125  C126  S    
C27   H15   S    
C47   O31   A    
C48   O32   A    
C43   C51   S    
C121  C122  S    
C41   H37   S    
C65   C69   S    
Cr6   O26   S    
C91   O39   A    
Cr7   O7    S    
C10   C110  S    
C67   C71   S    
Cr8   O8    S    
Cr1   O17   S    
Cr10  O10   S    
C7    Br11  S    
Cr11  O15   S    
C31   H36   S    
Cr4   O4    S    
C53   H77   S    
C54   H54   S    
C32   H35   S    
C29   C37   S    
C36   H32   S    
C101  O5    A    
C98   O50   A    
C85   H104  S    
C9    C117  S    
C66   C102  S    
C117  H9    S    
C84   C87   S    
C113  H81   S    
C11   C119  S    
C16   C48   S    
C19   H115  S    
C129  C130  S    
C7    C11   S    
C38   C89   S    
C87   H102  S    
C49   C65   S    
C111  H43   S    
C23   H7    S    
Cr6   O50   S    
C46   O34   A    
C125  H138  S    
C65   C73   S    
Cr6   O6    S    
C26   H14   S    
C120  H112  S    
Cr7   O27   S    
C53   H53   S    
Cr8   O20   S    
C86   C94   S    
C8    C24   S    
C12   C120  S    
Cr2   O2    S    
C56   H56   S    
C59   H67   S    
C124  H131  S    
Cr12  O36   S    
C55   H55   S    
C80   C96   S    
C52   C68   S    
C16   C20   S    
C25   C37   S    
C15   C23   S    
C133  H158  S    
Cr9   O33   S    
C132  H151  S    
C136  H161  S    
C53   C61   S    
C79   H95   S    
C92   O4    A    
C131  H153  S    
C108  O44   A    
C13   C21   S    
C32   C35   S    
C36   C40   S    
C89   O1    A    
C106  O14   A    
C126  H136  S    
C27   C39   S    
C74   H70   S    
Cr1   O45   S    
C55   C63   S    
Cr2   O42   S    
Cr3   O47   S    
Cr11  O19   S    
C10   C118  S    
Cr12  O12   S    
C81   C93   S    
C18   H114  S    
C45   O29   A    
C20   Br4   S    
C83   C95   S    
Cr10  O34   S    
Cr11  O39   S    
C50   C66   S    
C77   H89   S    
C28   H20   S    
C97   O45   A    
C24   H8    S    
C84   C96   S    
C99   O47   A    
C77   C93   S    
C74   H74   S    
C42   C62   S    
C58   H66   S    
C30   C33   S    
C34   C38   S    
C104  O12   A    
C118  H10   S    
C25   H13   S    
C76   H72   S    
C109  C113  S    
C86   H103  S    
C123  C124  S    
C3    C10   S    
Cr4   O20   S    
C52   C127  S    
C3    O27   A    
C134  H155  S    
C31   C39   S    
C32   C40   S    
C22   H122  S    
Cr9   O13   S    
C55   H79   S    
C79   C80   S    
C100  O52   A    
C20   H116  S    
C16   C24   S    
C102  O10   A    
C5    Br9   S    
C27   C28   S    
C103  O7    A    
C111  C115  S    
C119  H111  S    
C13   C113  S    
C117  H109  S    
