data_mof_unit_61785.cif
_audit_creation_date              2013-03-05T16:19:30-0500
_audit_creation_method            fapswitch 2.2
_symmetry_space_group_name_H-M    P1
_symmetry_Int_Tables_number       1
_space_group_crystal_system       monoclinic
_cell_length_a                    38.857808
_cell_length_b                    38.857791
_cell_length_c                    47.141995
_cell_angle_alpha                 89.999984
_cell_angle_beta                  90.0
_cell_angle_gamma                 90.0
_cell_volume                      71181.0456622

loop_
_atom_site_label
_atom_site_type_symbol
_atom_site_description
_atom_site_fract_x
_atom_site_fract_y
_atom_site_fract_z
_atom_type_partial_charge
O1    O     O_R   0.550920 0.971200 0.999980 -0.567835
O2    O     O_R   0.028800 0.550920 0.999980 -0.567840
O3    O     O_R   0.449080 0.028800 0.999980 -0.567834
O4    O     O_R   0.971200 0.449080 0.999980 -0.567836
O5    O     O_R   0.550920 0.028800 0.000020 -0.567834
O6    O     O_R   0.028800 0.449080 0.000020 -0.567835
O7    O     O_R   0.449080 0.971200 0.000020 -0.567834
O8    O     O_R   0.971200 0.550920 0.000020 -0.567840
O9    O     O_R   0.050920 0.471200 0.499980 -0.567843
O10   O     O_R   0.528800 0.050920 0.499980 -0.567841
O11   O     O_R   0.949080 0.528800 0.499980 -0.567834
O12   O     O_R   0.471200 0.949080 0.499980 -0.567846
O13   O     O_R   0.050920 0.528800 0.500020 -0.567843
O14   O     O_R   0.528800 0.949080 0.500020 -0.567846
O15   O     O_R   0.949080 0.471200 0.500020 -0.567834
O16   O     O_R   0.471200 0.050920 0.500020 -0.567841
C1    C     C_R   0.567216 0.000000 0.000000 0.993514
C2    C     C_R   0.000000 0.567216 0.000000 0.993524
C3    C     C_R   0.432783 0.000000 0.000000 0.993515
C4    C     C_R   0.000000 0.432784 0.000000 0.993518
C5    C     C_R   0.067216 0.500000 0.500000 0.993530
C6    C     C_R   0.500000 0.067216 0.500000 0.993527
C7    C     C_R   0.932783 0.500000 0.500000 0.993516
C8    C     C_R   0.500000 0.932784 0.500000 0.993537
O17   O     O_R   0.499990 0.971200 0.958070 -0.562450
O18   O     O_R   0.028800 0.499990 0.958070 -0.562449
O19   O     O_R   0.500010 0.028800 0.958070 -0.562449
O20   O     O_R   0.971200 0.500010 0.958070 -0.562450
O21   O     O_R   0.499990 0.028800 0.041930 -0.562450
O22   O     O_R   0.028800 0.500010 0.041930 -0.562451
O23   O     O_R   0.500010 0.971200 0.041930 -0.562450
O24   O     O_R   0.971200 0.499990 0.041930 -0.562450
O25   O     O_R   0.999990 0.471200 0.458070 -0.562449
O26   O     O_R   0.528800 0.999990 0.458070 -0.562450
O27   O     O_R   0.000010 0.528800 0.458070 -0.562451
O28   O     O_R   0.471200 0.000010 0.458070 -0.562449
O29   O     O_R   0.999990 0.528800 0.541930 -0.562449
O30   O     O_R   0.528800 0.000010 0.541930 -0.562450
O31   O     O_R   0.000010 0.471200 0.541930 -0.562452
O32   O     O_R   0.471200 0.999990 0.541930 -0.562451
C9    C     C_R   0.500000 0.000000 0.944534 0.949972
C10   C     C_R   1.000000 0.500000 0.944534 0.949975
C11   C     C_R   0.500000 0.000000 0.055466 0.949972
C12   C     C_R   0.000000 0.500000 0.055466 0.949975
C13   C     C_R   0.000000 0.500000 0.444534 0.949978
C14   C     C_R   0.500000 0.000000 0.444534 0.949985
C15   C     C_R   0.000000 0.500000 0.555466 0.949978
C16   C     C_R   0.500000 0.000000 0.555466 0.949984
Zn1   Zn    Zn3+2 0.500000 0.961560 0.000000 1.218265
Zn2   Zn    Zn3+2 0.038440 0.500000 0.000000 1.218262
Zn3   Zn    Zn3+2 0.500000 0.038440 0.000000 1.218265
Zn4   Zn    Zn3+2 0.961560 0.500000 0.000000 1.218262
Zn5   Zn    Zn3+2 0.000000 0.461560 0.500000 1.218260
Zn6   Zn    Zn3+2 0.538440 0.000000 0.500000 1.218254
Zn7   Zn    Zn3+2 1.000000 0.538440 0.500000 1.218260
Zn8   Zn    Zn3+2 0.461560 0.000000 0.500000 1.218254
C17   C     C_R   0.521664 0.021854 0.690464 0.556278
C18   C     C_R   0.978146 0.521664 0.690464 0.556279
C19   C     C_R   0.478336 0.978146 0.690465 0.556279
C20   C     C_R   0.021854 0.478336 0.690465 0.556277
C21   C     C_R   0.521663 0.978145 0.309535 0.556278
C22   C     C_R   0.978145 0.478337 0.309535 0.556276
C23   C     C_R   0.478337 0.021855 0.309535 0.556277
C24   C     C_R   0.021855 0.521663 0.309535 0.556278
C25   C     C_R   0.021664 0.521855 0.190465 0.556277
C26   C     C_R   0.478145 0.021663 0.190465 0.556277
C27   C     C_R   0.978336 0.478146 0.190465 0.556277
C28   C     C_R   0.521855 0.978336 0.190465 0.556276
C29   C     C_R   0.021663 0.478145 0.809535 0.556277
C30   C     C_R   0.478145 0.978337 0.809535 0.556276
C31   C     C_R   0.978337 0.521855 0.809535 0.556277
C32   C     C_R   0.521855 0.021663 0.809535 0.556277
N1    N     N_R   0.500000 1.000000 0.676326 -0.331020
N2    N     N_R   0.000000 0.500000 0.676326 -0.331020
N3    N     N_R   0.500000 1.000000 0.323674 -0.331019
N4    N     N_R   0.000000 0.500000 0.323674 -0.331020
N5    N     N_R   0.000000 0.500000 0.176326 -0.331019
N6    N     N_R   0.500000 1.000000 0.176326 -0.331020
N7    N     N_R   0.000000 0.500000 0.823674 -0.331020
N8    N     N_R   0.500000 0.000000 0.823674 -0.331020
C33   C     C_R   0.477802 0.977763 0.720158 -0.038933
C34   C     C_R   0.022237 0.477802 0.720158 -0.038933
C35   C     C_R   0.522198 0.022237 0.720158 -0.038932
C36   C     C_R   0.977763 0.522198 0.720158 -0.038932
C37   C     C_R   0.477803 0.022238 0.279842 -0.038932
C38   C     C_R   0.022238 0.522197 0.279842 -0.038933
C39   C     C_R   0.522197 0.977762 0.279842 -0.038933
C40   C     C_R   0.977762 0.477803 0.279842 -0.038932
C41   C     C_R   0.977803 0.477763 0.220158 -0.038932
C42   C     C_R   0.522238 0.977803 0.220158 -0.038932
C43   C     C_R   0.022197 0.522237 0.220158 -0.038933
C44   C     C_R   0.477762 0.022197 0.220158 -0.038932
C45   C     C_R   0.977803 0.522238 0.779842 -0.038932
C46   C     C_R   0.522238 0.022197 0.779842 -0.038932
C47   C     C_R   0.022197 0.477762 0.779842 -0.038932
C48   C     C_R   0.477762 0.977803 0.779842 -0.038932
C49   C     C_R   0.500000 0.000000 0.735060 -0.009524
C50   C     C_R   1.000000 0.500000 0.735060 -0.009524
C51   C     C_R   0.500000 1.000000 0.264939 -0.009524
C52   C     C_R   0.000000 0.500000 0.264939 -0.009524
C53   C     C_R   1.000000 0.500000 0.235060 -0.009524
C54   C     C_R   0.500000 1.000000 0.235060 -0.009524
C55   C     C_R   0.000000 0.500000 0.764940 -0.009524
C56   C     C_R   0.500000 0.000000 0.764940 -0.009524
C57   C     C_R   0.455754 0.955713 0.735218 -0.114358
C58   C     C_R   0.044287 0.455754 0.735218 -0.114358
C59   C     C_R   0.544246 0.044287 0.735218 -0.114357
C60   C     C_R   0.955713 0.544246 0.735218 -0.114358
C61   C     C_R   0.455755 0.044288 0.264782 -0.114358
C62   C     C_R   0.044288 0.544245 0.264782 -0.114358
C63   C     C_R   0.544245 0.955712 0.264782 -0.114358
C64   C     C_R   0.955712 0.455755 0.264782 -0.114357
C65   C     C_R   0.955754 0.455712 0.235218 -0.114359
C66   C     C_R   0.544288 0.955755 0.235218 -0.114358
C67   C     C_R   0.044245 0.544288 0.235218 -0.114357
C68   C     C_R   0.455712 0.044245 0.235218 -0.114358
C69   C     C_R   0.955756 0.544289 0.764782 -0.114358
C70   C     C_R   0.544289 0.044244 0.764782 -0.114358
C71   C     C_R   0.044244 0.455711 0.764782 -0.114357
C72   C     C_R   0.455711 0.955756 0.764782 -0.114358
O33   O     O_2   0.542398 0.043296 0.675793 -0.510033
O34   O     O_2   0.956705 0.542399 0.675793 -0.510034
O35   O     O_2   0.457602 0.956704 0.675793 -0.510032
O36   O     O_2   0.043295 0.457601 0.675793 -0.510032
O37   O     O_2   0.542397 0.956704 0.324207 -0.510032
O38   O     O_2   0.956703 0.457603 0.324207 -0.510033
O39   O     O_2   0.457602 0.043296 0.324207 -0.510032
O40   O     O_2   0.043297 0.542397 0.324207 -0.510032
O41   O     O_2   0.042398 0.543296 0.175793 -0.510032
O42   O     O_2   0.456704 0.042398 0.175793 -0.510032
O43   O     O_2   0.957602 0.456704 0.175793 -0.510032
O44   O     O_2   0.543296 0.957602 0.175793 -0.510032
O45   O     O_2   0.042397 0.456703 0.824207 -0.510032
O46   O     O_2   0.456703 0.957603 0.824207 -0.510032
O47   O     O_2   0.957603 0.543297 0.824207 -0.510031
O48   O     O_2   0.543297 0.042397 0.824207 -0.510032
H1    H     H_    0.438460 0.938388 0.724230 0.208575
H2    H     H_    0.061612 0.438459 0.724230 0.208574
H3    H     H_    0.561540 0.061612 0.724230 0.208574
H4    H     H_    0.938388 0.561541 0.724230 0.208575
H5    H     H_    0.438461 0.061613 0.275770 0.208574
H6    H     H_    0.061614 0.561539 0.275770 0.208574
H7    H     H_    0.561539 0.938387 0.275770 0.208575
H8    H     H_    0.938386 0.438461 0.275770 0.208574
H9    H     H_    0.938460 0.438387 0.224230 0.208575
H10   H     H_    0.561613 0.938461 0.224230 0.208575
H11   H     H_    0.061540 0.561613 0.224230 0.208574
H12   H     H_    0.438387 0.061539 0.224230 0.208574
H13   H     H_    0.938462 0.561615 0.775770 0.208575
H14   H     H_    0.561614 0.061538 0.775770 0.208574
H15   H     H_    0.061538 0.438385 0.775770 0.208574
H16   H     H_    0.438386 0.938462 0.775770 0.208575
C73   C     C_R   0.488153 0.028840 0.868793 -0.161473
C74   C     C_R   0.971160 0.488153 0.868793 -0.161473
C75   C     C_R   0.511847 0.971160 0.868793 -0.161472
C76   C     C_R   0.028840 0.511847 0.868793 -0.161472
C77   C     C_R   0.488153 0.971160 0.131207 -0.161472
C78   C     C_R   0.971160 0.511847 0.131207 -0.161472
C79   C     C_R   0.511847 0.028840 0.131207 -0.161472
C80   C     C_R   0.028840 0.488153 0.131207 -0.161471
C81   C     C_R   0.988153 0.528840 0.368793 -0.161473
C82   C     C_R   0.471160 0.988153 0.368793 -0.161473
C83   C     C_R   0.011847 0.471160 0.368793 -0.161473
C84   C     C_R   0.528840 0.011847 0.368793 -0.161472
C85   C     C_R   0.988152 0.471160 0.631207 -0.161473
C86   C     C_R   0.471160 0.011848 0.631207 -0.161473
C87   C     C_R   0.011848 0.528839 0.631207 -0.161472
C88   C     C_R   0.528840 0.988152 0.631207 -0.161473
H17   H     H_    0.478780 0.051096 0.857322 0.205271
H18   H     H_    0.948904 0.478780 0.857322 0.205271
H19   H     H_    0.521220 0.948904 0.857322 0.205271
H20   H     H_    0.051096 0.521220 0.857322 0.205271
H21   H     H_    0.478779 0.948905 0.142678 0.205271
H22   H     H_    0.948905 0.521221 0.142678 0.205271
H23   H     H_    0.521221 0.051095 0.142678 0.205271
H24   H     H_    0.051095 0.478779 0.142678 0.205271
H25   H     H_    0.978779 0.551095 0.357322 0.205271
H26   H     H_    0.448905 0.978779 0.357322 0.205271
H27   H     H_    0.021221 0.448905 0.357322 0.205271
H28   H     H_    0.551095 0.021221 0.357322 0.205271
H29   H     H_    0.978778 0.448905 0.642678 0.205271
H30   H     H_    0.448905 0.021222 0.642678 0.205271
H31   H     H_    0.021222 0.551095 0.642678 0.205271
H32   H     H_    0.551095 0.978778 0.642678 0.205271
C89   C     C_R   0.488144 0.028985 0.898311 0.595717
C90   C     C_R   0.971015 0.488144 0.898311 0.595716
C91   C     C_R   0.511856 0.971015 0.898311 0.595716
C92   C     C_R   0.028985 0.511856 0.898311 0.595719
C93   C     C_R   0.488144 0.971015 0.101689 0.595714
C94   C     C_R   0.971015 0.511857 0.101689 0.595716
C95   C     C_R   0.511856 0.028985 0.101689 0.595714
C96   C     C_R   0.028985 0.488144 0.101689 0.595713
C97   C     C_R   0.988144 0.528985 0.398311 0.595715
C98   C     C_R   0.471015 0.988144 0.398311 0.595723
C99   C     C_R   0.011856 0.471015 0.398311 0.595722
C100  C     C_R   0.528985 0.011856 0.398311 0.595717
C101  C     C_R   0.988143 0.471015 0.601689 0.595713
C102  C     C_R   0.471015 0.011857 0.601689 0.595718
C103  C     C_R   0.011857 0.528985 0.601689 0.595719
C104  C     C_R   0.528985 0.988143 0.601689 0.595722
C105  C     C_R   0.500000 0.000000 0.913382 -0.356092
C106  C     C_R   1.000000 0.500000 0.913382 -0.356093
C107  C     C_R   0.500000 1.000000 0.086618 -0.356091
C108  C     C_R   1.000000 0.500000 0.086618 -0.356091
C109  C     C_R   0.000000 0.500000 0.413382 -0.356093
C110  C     C_R   0.500000 1.000000 0.413382 -0.356093
C111  C     C_R   0.000000 0.500000 0.586618 -0.356092
C112  C     C_R   0.500000 1.000000 0.586618 -0.356093
C113  C     C_R   0.500000 0.000000 0.854003 0.105363
C114  C     C_R   0.000000 0.500000 0.854003 0.105363
C115  C     C_R   0.500000 1.000000 0.145997 0.105362
C116  C     C_R   0.000000 0.500000 0.145997 0.105362
C117  C     C_R   1.000000 0.500000 0.354003 0.105364
C118  C     C_R   0.500000 1.000000 0.354003 0.105363
C119  C     C_R   0.000000 0.500000 0.645997 0.105362
C120  C     C_R   0.500000 1.000000 0.645997 0.105362
O49   O     O_R   0.000010 0.050920 0.976360 -0.616688
O50   O     O_R   0.949080 0.000010 0.976360 -0.616689
O51   O     O_R   0.999990 0.949080 0.976360 -0.616689
O52   O     O_R   0.050920 0.999990 0.976360 -0.616688
O53   O     O_R   0.000010 0.949080 0.023640 -0.616690
O54   O     O_R   0.949080 0.999990 0.023640 -0.616689
O55   O     O_R   0.999990 0.050920 0.023640 -0.616690
O56   O     O_R   0.050920 0.000010 0.023640 -0.616690
O57   O     O_R   0.500010 0.550920 0.476360 -0.616691
O58   O     O_R   0.449080 0.500010 0.476360 -0.616689
O59   O     O_R   0.499990 0.449080 0.476360 -0.616688
O60   O     O_R   0.550920 0.499990 0.476360 -0.616689
O61   O     O_R   0.500010 0.449080 0.523640 -0.616691
O62   O     O_R   0.449080 0.499990 0.523640 -0.616691
O63   O     O_R   0.499990 0.550920 0.523640 -0.616690
O64   O     O_R   0.550920 0.500010 0.523640 -0.616689
C121  C     C_R   0.000000 0.067296 0.000000 0.958519
C122  C     C_R   0.932704 0.000000 0.000000 0.958520
C123  C     C_R   1.000000 0.932704 0.000000 0.958521
C124  C     C_R   0.067296 0.000000 0.000000 0.958519
C125  C     C_R   0.500000 0.567296 0.500000 0.958521
C126  C     C_R   0.432704 0.500000 0.500000 0.958522
C127  C     C_R   0.500000 0.432704 0.500000 0.958521
C128  C     C_R   0.567296 0.500000 0.500000 0.958519
Zn9   Zn    Zn3+2 0.000000 0.000000 0.968380 1.055689
Zn10  Zn    Zn3+2 1.000000 0.000000 0.031620 1.055689
Zn11  Zn    Zn3+2 0.500000 0.500000 0.468380 1.055688
Zn12  Zn    Zn3+2 0.500000 0.500000 0.531620 1.055688
C129  C     C_R   0.877028 0.003154 0.025627 -0.254874
C130  C     C_R   0.996850 0.877028 0.025627 -0.254875
C131  C     C_R   0.122972 0.996846 0.025627 -0.254875
C132  C     C_R   0.003153 0.122972 0.025627 -0.254875
C133  C     C_R   0.877028 0.996846 0.974373 -0.254872
C134  C     C_R   0.996847 0.122972 0.974373 -0.254874
C135  C     C_R   0.122972 0.003154 0.974373 -0.254874
C136  C     C_R   0.003149 0.877028 0.974373 -0.254874
C137  C     C_R   0.377028 0.503146 0.525628 -0.254873
C138  C     C_R   0.496851 0.377028 0.525627 -0.254874
C139  C     C_R   0.622972 0.496846 0.525627 -0.254874
C140  C     C_R   0.503146 0.622972 0.525628 -0.254874
C141  C     C_R   0.377028 0.496854 0.474372 -0.254872
C142  C     C_R   0.496854 0.622972 0.474372 -0.254873
C143  C     C_R   0.622972 0.503154 0.474373 -0.254874
C144  C     C_R   0.503149 0.377028 0.474373 -0.254873
H33   H     H_    0.890492 0.005776 0.045627 0.218270
H34   H     H_    0.994232 0.890492 0.045628 0.218271
H35   H     H_    0.109508 0.994224 0.045627 0.218270
H36   H     H_    0.005774 0.109508 0.045627 0.218270
H37   H     H_    0.890492 0.994224 0.954373 0.218270
H38   H     H_    0.994225 0.109508 0.954373 0.218270
H39   H     H_    0.109507 0.005776 0.954373 0.218270
H40   H     H_    0.005768 0.890492 0.954372 0.218271
H41   H     H_    0.390492 0.505763 0.545628 0.218271
H42   H     H_    0.494233 0.390492 0.545628 0.218271
H43   H     H_    0.609507 0.494224 0.545627 0.218270
H44   H     H_    0.505761 0.609508 0.545628 0.218271
H45   H     H_    0.390492 0.494237 0.454372 0.218271
H46   H     H_    0.494239 0.609508 0.454372 0.218271
H47   H     H_    0.609507 0.505776 0.454373 0.218270
H48   H     H_    0.505767 0.390492 0.454372 0.218271
C145  C     C_R   0.841277 0.003215 0.025649 0.697448
C146  C     C_R   0.996789 0.841277 0.025649 0.697446
C147  C     C_R   0.158723 0.996785 0.025649 0.697447
C148  C     C_R   0.003215 0.158723 0.025649 0.697445
C149  C     C_R   0.841277 0.996785 0.974351 0.697446
C150  C     C_R   0.996785 0.158723 0.974351 0.697445
C151  C     C_R   0.158723 0.003215 0.974351 0.697447
C152  C     C_R   0.003211 0.841277 0.974351 0.697443
C153  C     C_R   0.341277 0.503208 0.525649 0.697445
C154  C     C_R   0.496789 0.341277 0.525649 0.697445
C155  C     C_R   0.658723 0.496785 0.525649 0.697447
C156  C     C_R   0.503207 0.658723 0.525650 0.697444
C157  C     C_R   0.341277 0.496792 0.474350 0.697445
C158  C     C_R   0.496793 0.658723 0.474350 0.697442
C159  C     C_R   0.658723 0.503215 0.474351 0.697447
C160  C     C_R   0.503210 0.341277 0.474351 0.697444
C161  C     C_R   0.823324 0.000000 0.000000 -0.108730
C162  C     C_R   0.000000 0.823324 0.000000 -0.108729
C163  C     C_R   0.176676 0.000000 0.000000 -0.108731
C164  C     C_R   1.000000 0.176676 1.000000 -0.108729
C165  C     C_R   0.323324 0.500000 0.500000 -0.108729
C166  C     C_R   0.500000 0.323324 0.500000 -0.108728
C167  C     C_R   0.676675 0.500000 0.500000 -0.108731
C168  C     C_R   0.500000 0.676676 0.500000 -0.108726
C169  C     C_R   0.895113 0.000000 0.000000 -0.239836
C170  C     C_R   0.000000 0.895113 0.000000 -0.239835
C171  C     C_R   0.104886 0.000000 0.000000 -0.239836
C172  C     C_R   1.000000 0.104887 1.000000 -0.239835
C173  C     C_R   0.395113 0.500000 0.500000 -0.239836
C174  C     C_R   0.500000 0.395113 0.500000 -0.239835
C175  C     C_R   0.604886 0.500000 0.500000 -0.239835
C176  C     C_R   0.500000 0.604887 0.500000 -0.239835
C177  C     C_R   0.767850 0.973860 0.014230 0.677570
C178  C     C_R   0.026142 0.767850 0.014226 0.677569
C179  C     C_R   0.232150 0.026140 0.014229 0.677569
C180  C     C_R   0.973860 0.232150 0.014229 0.677570
C181  C     C_R   0.767850 0.026140 0.985770 0.677571
C182  C     C_R   0.026140 0.232150 0.985771 0.677572
C183  C     C_R   0.232150 0.973860 0.985771 0.677569
C184  C     C_R   0.973858 0.767850 0.985774 0.677569
C185  C     C_R   0.267850 0.473856 0.514224 0.677569
C186  C     C_R   0.526143 0.267850 0.514226 0.677570
C187  C     C_R   0.732150 0.526140 0.514229 0.677569
C188  C     C_R   0.473855 0.732150 0.514223 0.677570
C189  C     C_R   0.267850 0.526144 0.485776 0.677569
C190  C     C_R   0.526145 0.732150 0.485777 0.677570
C191  C     C_R   0.732150 0.473860 0.485770 0.677570
C192  C     C_R   0.473857 0.267850 0.485774 0.677570
C193  C     C_R   0.732104 0.973941 0.014246 -0.158589
C194  C     C_R   0.026062 0.732104 0.014243 -0.158588
C195  C     C_R   0.267896 0.026059 0.014246 -0.158588
C196  C     C_R   0.973941 0.267896 0.014246 -0.158589
C197  C     C_R   0.732104 0.026059 0.985754 -0.158589
C198  C     C_R   0.026059 0.267896 0.985754 -0.158590
C199  C     C_R   0.267896 0.973941 0.985754 -0.158588
C200  C     C_R   0.973938 0.732104 0.985757 -0.158589
C201  C     C_R   0.232104 0.473937 0.514241 -0.158588
C202  C     C_R   0.526062 0.232104 0.514243 -0.158588
C203  C     C_R   0.767896 0.526059 0.514246 -0.158588
C204  C     C_R   0.473936 0.767896 0.514240 -0.158588
C205  C     C_R   0.232104 0.526063 0.485759 -0.158588
C206  C     C_R   0.526064 0.767896 0.485760 -0.158588
C207  C     C_R   0.767896 0.473941 0.485754 -0.158589
C208  C     C_R   0.473938 0.232104 0.485757 -0.158589
H49   H     H_    0.718275 0.953760 0.025273 0.203433
H50   H     H_    0.046245 0.718275 0.025267 0.203433
H51   H     H_    0.281725 0.046240 0.025272 0.203433
H52   H     H_    0.953759 0.281725 0.025272 0.203433
H53   H     H_    0.718275 0.046240 0.974727 0.203433
H54   H     H_    0.046241 0.281725 0.974728 0.203433
H55   H     H_    0.281725 0.953760 0.974728 0.203433
H56   H     H_    0.953755 0.718275 0.974733 0.203433
H57   H     H_    0.218275 0.453752 0.525263 0.203433
H58   H     H_    0.546246 0.218275 0.525266 0.203433
H59   H     H_    0.781725 0.546240 0.525273 0.203433
H60   H     H_    0.453750 0.781725 0.525261 0.203433
H61   H     H_    0.218275 0.546248 0.474737 0.203433
H62   H     H_    0.546250 0.781725 0.474739 0.203433
H63   H     H_    0.781725 0.453760 0.474727 0.203433
H64   H     H_    0.453754 0.218275 0.474734 0.203433
C209  C     C_R   0.714253 0.000000 0.000000 0.044613
C210  C     C_R   0.000000 0.714253 0.000000 0.044611
C211  C     C_R   0.285747 0.000000 0.000000 0.044612
C212  C     C_R   1.000000 0.285747 1.000000 0.044612
C213  C     C_R   0.214253 0.500000 0.500000 0.044611
C214  C     C_R   0.500000 0.214253 0.500000 0.044614
C215  C     C_R   0.785747 0.500000 0.500000 0.044612
C216  C     C_R   0.500000 0.785748 0.500000 0.044613
C217  C     C_R   0.785810 0.000000 0.000000 -0.131436
C218  C     C_R   0.000000 0.785810 0.000000 -0.131437
C219  C     C_R   0.214190 0.000000 0.000000 -0.131436
C220  C     C_R   1.000000 0.214190 1.000000 -0.131437
C221  C     C_R   0.285810 0.500000 0.500000 -0.131437
C222  C     C_R   0.500000 0.285810 0.500000 -0.131437
C223  C     C_R   0.714190 0.500000 0.500000 -0.131437
C224  C     C_R   0.500000 0.714190 0.500000 -0.131437
C225  C     C_R   0.658687 0.026821 0.013780 0.181367
C226  C     C_R   0.973181 0.658687 0.013783 0.181368
C227  C     C_R   0.341313 0.973179 0.013780 0.181367
C228  C     C_R   0.026821 0.341313 0.013781 0.181365
C229  C     C_R   0.658687 0.973179 0.986220 0.181366
C230  C     C_R   0.973179 0.341313 0.986219 0.181365
C231  C     C_R   0.341313 0.026821 0.986220 0.181367
C232  C     C_R   0.026819 0.658687 0.986217 0.181367
C233  C     C_R   0.158687 0.526818 0.513785 0.181367
C234  C     C_R   0.473181 0.158687 0.513784 0.181366
C235  C     C_R   0.841313 0.473179 0.513780 0.181366
C236  C     C_R   0.526816 0.841313 0.513787 0.181367
C237  C     C_R   0.158687 0.473182 0.486215 0.181366
C238  C     C_R   0.473183 0.841313 0.486213 0.181365
C239  C     C_R   0.841313 0.526821 0.486220 0.181367
C240  C     C_R   0.526818 0.158687 0.486216 0.181365
C241  C     C_R   0.622752 0.026758 0.013376 0.534736
C242  C     C_R   0.973244 0.622752 0.013378 0.534732
C243  C     C_R   0.377248 0.973242 0.013376 0.534737
C244  C     C_R   0.026757 0.377248 0.013376 0.534738
C245  C     C_R   0.622752 0.973242 0.986624 0.534736
C246  C     C_R   0.973242 0.377248 0.986624 0.534738
C247  C     C_R   0.377248 0.026758 0.986624 0.534735
C248  C     C_R   0.026756 0.622752 0.986622 0.534733
C249  C     C_R   0.122752 0.526754 0.513380 0.534732
C250  C     C_R   0.473245 0.122752 0.513379 0.534734
C251  C     C_R   0.877248 0.473242 0.513375 0.534736
C252  C     C_R   0.526753 0.877248 0.513382 0.534730
C253  C     C_R   0.122752 0.473246 0.486620 0.534732
C254  C     C_R   0.473247 0.877248 0.486618 0.534730
C255  C     C_R   0.877248 0.526758 0.486624 0.534736
C256  C     C_R   0.526755 0.122752 0.486621 0.534734
C257  C     C_R   0.604792 0.000000 0.000000 -0.431605
C258  C     C_R   0.000000 0.604792 0.000000 -0.431601
C259  C     C_R   0.395208 0.000000 0.000000 -0.431605
C260  C     C_R   0.000000 0.395208 0.000000 -0.431605
C261  C     C_R   0.104792 0.500000 0.500000 -0.431601
C262  C     C_R   0.500000 0.104791 0.500000 -0.431602
C263  C     C_R   0.895208 0.500000 0.500000 -0.431605
C264  C     C_R   0.500000 0.895209 0.500000 -0.431597
C265  C     C_R   0.676686 0.000000 0.000000 -0.254256
C266  C     C_R   0.000000 0.676686 0.000000 -0.254254
C267  C     C_R   0.323313 0.000000 0.000000 -0.254256
C268  C     C_R   0.000000 0.323313 1.000000 -0.254254
C269  C     C_R   0.176686 0.500000 0.500000 -0.254251
C270  C     C_R   0.500000 0.176686 0.500000 -0.254252
C271  C     C_R   0.823313 0.500000 0.500000 -0.254256
C272  C     C_R   0.500000 0.823314 0.500000 -0.254251
F1    F     F_    0.475900 0.057181 0.912002 -0.571008
F2    F     F_    0.942819 0.475900 0.912002 -0.571007
F3    F     F_    0.524100 0.942819 0.912002 -0.571008
F4    F     F_    0.057181 0.524100 0.912002 -0.571005
F5    F     F_    0.475899 0.942819 0.087998 -0.571006
F6    F     F_    0.942819 0.524101 0.087998 -0.571004
F7    F     F_    0.524101 0.057181 0.087998 -0.571007
F8    F     F_    0.057181 0.475899 0.087998 -0.571006
F9    F     F_    0.975899 0.557181 0.412002 -0.571008
F10   F     F_    0.442819 0.975899 0.412002 -0.571002
F11   F     F_    0.024101 0.442819 0.412002 -0.571003
F12   F     F_    0.557181 0.024101 0.412002 -0.571004
F13   F     F_    0.975898 0.442819 0.587998 -0.571007
F14   F     F_    0.442819 0.024102 0.587998 -0.571005
F15   F     F_    0.024102 0.557180 0.587998 -0.571002
F16   F     F_    0.557180 0.975898 0.587998 -0.571001
F17   F     F_    0.824176 0.006903 0.050584 -0.576696
F18   F     F_    0.993105 0.824176 0.050585 -0.576695
F19   F     F_    0.175824 0.993097 0.050584 -0.576695
F20   F     F_    0.006902 0.175824 0.050585 -0.576694
F21   F     F_    0.824176 0.993097 0.949415 -0.576695
F22   F     F_    0.993098 0.175824 0.949415 -0.576695
F23   F     F_    0.175824 0.006903 0.949415 -0.576695
F24   F     F_    0.006894 0.824176 0.949415 -0.576695
F25   F     F_    0.324176 0.506888 0.550586 -0.576695
F26   F     F_    0.493107 0.324176 0.550585 -0.576696
F27   F     F_    0.675824 0.493097 0.550585 -0.576695
F28   F     F_    0.506886 0.675824 0.550586 -0.576696
F29   F     F_    0.324176 0.493112 0.449414 -0.576696
F30   F     F_    0.493114 0.675824 0.449414 -0.576696
F31   F     F_    0.675824 0.506903 0.449415 -0.576695
F32   F     F_    0.506893 0.324176 0.449414 -0.576696
F33   F     F_    0.784937 0.948144 0.027714 -0.577249
F34   F     F_    0.051861 0.784937 0.027708 -0.577248
F35   F     F_    0.215063 0.051856 0.027714 -0.577248
F36   F     F_    0.948143 0.215063 0.027713 -0.577249
F37   F     F_    0.784937 0.051856 0.972286 -0.577249
F38   F     F_    0.051857 0.215063 0.972287 -0.577249
F39   F     F_    0.215063 0.948144 0.972286 -0.577248
F40   F     F_    0.948139 0.784937 0.972292 -0.577248
F41   F     F_    0.284937 0.448135 0.527704 -0.577248
F42   F     F_    0.551862 0.284937 0.527707 -0.577249
F43   F     F_    0.715063 0.551856 0.527714 -0.577248
F44   F     F_    0.448133 0.715063 0.527702 -0.577249
F45   F     F_    0.284937 0.551865 0.472296 -0.577248
F46   F     F_    0.551866 0.715063 0.472298 -0.577250
F47   F     F_    0.715063 0.448144 0.472286 -0.577249
F48   F     F_    0.448138 0.284937 0.472293 -0.577249
N9    N     N_R   0.676574 0.053669 0.028806 0.257831
O65   O     O_R   0.665502 0.085246 0.027721 -0.232835
O66   O     O_R   0.702215 0.046303 0.045495 -0.313803
N10   N     N_R   0.946336 0.676573 0.028812 0.257830
O67   O     O_R   0.914758 0.665502 0.027731 -0.232834
O68   O     O_R   0.953704 0.702215 0.045500 -0.313803
N11   N     N_R   0.323426 0.946331 0.028806 0.257831
O69   O     O_R   0.334497 0.914754 0.027721 -0.232835
O70   O     O_R   0.297785 0.953697 0.045495 -0.313802
N12   N     N_R   0.053668 0.323426 0.028807 0.257831
O71   O     O_R   0.085245 0.334498 0.027723 -0.232835
O72   O     O_R   0.046302 0.297785 0.045496 -0.313802
N13   N     N_R   0.676574 0.946331 0.971194 0.257831
O73   O     O_R   0.665502 0.914754 0.972279 -0.232835
O74   O     O_R   0.702215 0.953697 0.954505 -0.313803
N14   N     N_R   0.946332 0.323426 0.971193 0.257831
O75   O     O_R   0.914755 0.334497 0.972277 -0.232835
O76   O     O_R   0.953698 0.297785 0.954504 -0.313802
N15   N     N_R   0.323426 0.053669 0.971194 0.257831
O77   O     O_R   0.334497 0.085246 0.972279 -0.232835
O78   O     O_R   0.297785 0.046303 0.954505 -0.313803
N16   N     N_R   0.053664 0.676574 0.971188 0.257829
O79   O     O_R   0.085242 0.665502 0.972269 -0.232833
O80   O     O_R   0.046296 0.702215 0.954500 -0.313803
N17   N     N_R   0.176573 0.553661 0.528816 0.257829
O81   O     O_R   0.165502 0.585239 0.527737 -0.232833
O82   O     O_R   0.202214 0.546291 0.545503 -0.313804
N18   N     N_R   0.446337 0.176573 0.528813 0.257830
O83   O     O_R   0.414759 0.165502 0.527733 -0.232834
O84   O     O_R   0.453706 0.202215 0.545501 -0.313804
N19   N     N_R   0.823426 0.446331 0.528806 0.257831
O85   O     O_R   0.834497 0.414754 0.527721 -0.232836
O86   O     O_R   0.797785 0.453697 0.545495 -0.313803
N20   N     N_R   0.553659 0.823427 0.528819 0.257829
O87   O     O_R   0.585236 0.834498 0.527742 -0.232831
O88   O     O_R   0.546287 0.797785 0.545506 -0.313805
N21   N     N_R   0.176573 0.446339 0.471184 0.257829
O89   O     O_R   0.165502 0.414761 0.472263 -0.232833
O90   O     O_R   0.202214 0.453709 0.454497 -0.313804
N22   N     N_R   0.446341 0.823427 0.471181 0.257829
O91   O     O_R   0.414764 0.834499 0.472258 -0.232832
O92   O     O_R   0.453713 0.797785 0.454494 -0.313805
N23   N     N_R   0.823426 0.553669 0.471194 0.257831
O93   O     O_R   0.834497 0.585246 0.472279 -0.232836
O94   O     O_R   0.797785 0.546303 0.454505 -0.313803
N24   N     N_R   0.553663 0.176573 0.471187 0.257830
O95   O     O_R   0.585241 0.165502 0.472267 -0.232834
O96   O     O_R   0.546294 0.202215 0.454499 -0.313804
F49   F     F_    0.605296 0.051840 0.027413 -0.547470
F50   F     F_    0.948164 0.605296 0.027418 -0.547472
F51   F     F_    0.394704 0.948160 0.027413 -0.547470
F52   F     F_    0.051839 0.394704 0.027414 -0.547470
F53   F     F_    0.605296 0.948160 0.972587 -0.547470
F54   F     F_    0.948161 0.394704 0.972586 -0.547471
F55   F     F_    0.394704 0.051840 0.972587 -0.547470
F56   F     F_    0.051836 0.605296 0.972582 -0.547472
F57   F     F_    0.105295 0.551833 0.527422 -0.547473
F58   F     F_    0.448165 0.105296 0.527420 -0.547473
F59   F     F_    0.894704 0.448160 0.527413 -0.547470
F60   F     F_    0.551831 0.894705 0.527425 -0.547474
F61   F     F_    0.105295 0.448167 0.472578 -0.547474
F62   F     F_    0.448169 0.894705 0.472575 -0.547474
F63   F     F_    0.894704 0.551840 0.472587 -0.547470
F64   F     F_    0.551835 0.105296 0.472580 -0.547473

loop_
_geom_bond_atom_site_label_1
_geom_bond_atom_site_label_2
_geom_bond_distance
_ccdc_geom_bond_type
O25   C13   1.288246 A    
O54   Zn10  2.014084 S    
C187  C203  1.389023 A    
N9    O65   1.301261 A    
C93   C107  1.409095 A    
C145  F17   1.357917 S    
C188  F44   1.357777 S    
C38   C62   1.404354 A    
O18   Zn2   2.011844 S    
C58   C71   1.393717 A    
C148  F20   1.357924 S    
C177  C217  1.403116 A    
C242  C258  1.402045 A    
C79   C115  1.397812 A    
C74   H18   1.083042 S    
O32   C16   1.288247 A    
O50   Zn9   2.014084 S    
O11   C7    1.285845 A    
O24   Zn4   2.011840 S    
O55   C121  1.283315 A    
N4    C117  1.429779 S    
C78   H22   1.083037 S    
C133  C169  1.402995 A    
O19   Zn3   2.011844 S    
N19   O86   1.301389 A    
C121  C172  1.460684 S    
C80   H24   1.083039 S    
C208  C214  1.399131 A    
C256  F64   1.359393 S    
O3    C3    1.285845 A    
C204  H60   1.083472 S    
C19   N1    1.368961 A    
C189  F45   1.357779 S    
O30   C16   1.288247 A    
O62   Zn12  2.014084 S    
C44   C54   1.408621 A    
C253  C261  1.402046 A    
C177  C193  1.389023 A    
C104  C112  1.409096 A    
C229  C265  1.413302 A    
C23   C37   1.400020 A    
C71   H15   1.083112 S    
C34   C50   1.408626 A    
C245  C257  1.402049 A    
C256  C262  1.402047 A    
C98   C110  1.409098 A    
C228  N12   1.439858 S    
C196  H52   1.083470 S    
C181  C217  1.403115 A    
C237  N21   1.439859 S    
C138  C154  1.389211 A    
N20   O88   1.301388 A    
C18   O34   1.349685 S    
C25   N5    1.368959 A    
C192  C208  1.389026 A    
C75   C113  1.397816 A    
C66   H10   1.083110 S    
O17   C9    1.288246 A    
C22   O38   1.349691 S    
C143  C175  1.402995 A    
C246  F54   1.359391 S    
C47   C71   1.404356 A    
C22   C40   1.400020 A    
C234  C250  1.396480 A    
C227  C243  1.396480 A    
O51   Zn9   2.014083 S    
O16   C6    1.285843 A    
C228  C244  1.396479 A    
C250  F58   1.359392 S    
N11   O70   1.301389 A    
C3    C259  1.460094 S    
C239  C271  1.413299 A    
C16   C112  1.468591 S    
C156  C168  1.401535 A    
C241  C257  1.402044 A    
N15   O78   1.301389 A    
C44   C68   1.404352 A    
O50   C122  1.283319 A    
C133  C149  1.389212 A    
O26   Zn6   2.011844 S    
O7    C3    1.285845 A    
C48   C56   1.408624 A    
C137  C173  1.402993 A    
C136  C170  1.402995 A    
N16   O79   1.301264 A    
C81   H25   1.083041 S    
O27   C13   1.288246 A    
C124  C171  1.460684 S    
C135  H39   1.083078 S    
C233  N17   1.439859 S    
O31   C15   1.288246 A    
C25   C43   1.400020 A    
C204  C216  1.399134 A    
O54   C122  1.283315 A    
C235  C271  1.413300 A    
C96   C108  1.409093 A    
C41   C53   1.408624 A    
C132  C172  1.402993 A    
C233  C269  1.413301 A    
C29   C47   1.400020 A    
C194  C210  1.399126 A    
C31   C45   1.400025 A    
C238  N22   1.439862 S    
O52   Zn9   2.014080 S    
C178  F34   1.357778 S    
C157  C165  1.401533 A    
C152  F24   1.357926 S    
C236  N20   1.439862 S    
C74   C114  1.397815 A    
C75   C91   1.391568 A    
C94   C108  1.409096 A    
C92   F4    1.357683 S    
C205  H61   1.083472 S    
C147  C163  1.401529 A    
C201  C213  1.399131 A    
C122  C169  1.460684 S    
C207  C215  1.399130 A    
C42   C66   1.404354 A    
C100  C110  1.409095 A    
C89   F1    1.357681 S    
O4    C4    1.285843 A    
C183  F39   1.357778 S    
C21   O37   1.349688 S    
C39   C63   1.404356 A    
C30   O46   1.349691 S    
C230  C268  1.413301 A    
O5    Zn3   2.013781 S    
C69   H13   1.083110 S    
C180  C220  1.403114 A    
C102  C112  1.409100 A    
C131  H35   1.083078 S    
C4    C260  1.460097 S    
C132  H36   1.083080 S    
N7    C114  1.429779 S    
C144  C160  1.389211 A    
C231  C247  1.396480 A    
C142  H46   1.083081 S    
C30   C48   1.400025 A    
C86   H30   1.083041 S    
C87   C119  1.397815 A    
C129  H33   1.083079 S    
C45   C55   1.408622 A    
C31   N7    1.368959 A    
O7    Zn1   2.013786 S    
C141  C157  1.389212 A    
C74   C90   1.391568 A    
C140  C156  1.389211 A    
O23   C11   1.288246 A    
C187  F43   1.357778 S    
C252  F60   1.359394 S    
C202  H58   1.083474 S    
C186  C222  1.403113 A    
C78   C94   1.391568 A    
C94   F6    1.357687 S    
C134  C172  1.402989 A    
C246  C260  1.402049 A    
C65   H9    1.083110 S    
C146  C162  1.401532 A    
C229  N13   1.439858 S    
C70   H14   1.083110 S    
C133  H37   1.083079 S    
C191  C223  1.403118 A    
C102  F14   1.357684 S    
C21   C39   1.400020 A    
C149  C161  1.401530 A    
C179  F35   1.357778 S    
C151  C163  1.401533 A    
C180  C196  1.389026 A    
C232  C266  1.413300 A    
C96   F8    1.357689 S    
C135  C171  1.402995 A    
C57   C72   1.393722 A    
O28   C14   1.288247 A    
O26   C14   1.288247 A    
C123  C170  1.460684 S    
C249  F57   1.359393 S    
O29   C15   1.288246 A    
O8    Zn4   2.013781 S    
C59   C70   1.393717 A    
C161  C217  1.457735 S    
N5    C116  1.429784 S    
C63   H7    1.083108 S    
C232  N16   1.439857 S    
C197  C209  1.399127 A    
C242  F50   1.359395 S    
C227  N11   1.439855 S    
C206  H62   1.083474 S    
C45   C69   1.404356 A    
C43   C53   1.408624 A    
N18   O84   1.301390 A    
N14   O75   1.301260 A    
C244  C260  1.402046 A    
C47   C55   1.408624 A    
O49   Zn9   2.014079 S    
C24   N4    1.368959 A    
C33   C57   1.404354 A    
N21   O90   1.301390 A    
C97   C109  1.409095 A    
C225  C265  1.413297 A    
C240  C256  1.396479 A    
O51   C123  1.283319 A    
C158  C168  1.401532 A    
N10   O67   1.301263 A    
O61   Zn12  2.014083 S    
C26   C44   1.400025 A    
C84   C118  1.397810 A    
C76   H20   1.083038 S    
C48   C72   1.404354 A    
C92   C106  1.409095 A    
C253  F61   1.359393 S    
O16   Zn8   2.013781 S    
C37   C51   1.408624 A    
C190  C206  1.389026 A    
C28   C42   1.400025 A    
C178  C194  1.389026 A    
C152  C162  1.401531 A    
C17   C35   1.400025 A    
N13   O73   1.301261 A    
C81   C97   1.391568 A    
C135  C151  1.389212 A    
O6    Zn2   2.013784 S    
C143  H47   1.083078 S    
C130  C170  1.402995 A    
C200  H56   1.083470 S    
C77   C115  1.397813 A    
C185  C221  1.403115 A    
C153  F25   1.357924 S    
C10   C106  1.468591 S    
C131  C171  1.402991 A    
N23   O93   1.301261 A    
C194  H50   1.083470 S    
C248  C258  1.402044 A    
C255  C263  1.402046 A    
O18   C10   1.288247 A    
O21   Zn3   2.011839 S    
C129  C169  1.402991 A    
C14   C110  1.468591 S    
C150  C164  1.401528 A    
C179  C219  1.403111 A    
C190  C224  1.403113 A    
C189  C221  1.403114 A    
C60   C69   1.393717 A    
C165  C221  1.457735 S    
C84   H28   1.083041 S    
C127  C174  1.460688 S    
O58   C126  1.283319 A    
C84   C100  1.391568 A    
O57   C125  1.283319 A    
C159  F31   1.357921 S    
O12   C8    1.285841 A    
O1    C1    1.285845 A    
C88   C120  1.397813 A    
O63   Zn12  2.014079 S    
C100  F12   1.357687 S    
C32   C46   1.400025 A    
C32   N8    1.368957 A    
O13   C5    1.285843 A    
C83   H27   1.083042 S    
C46   C70   1.404356 A    
C158  F30   1.357926 S    
C231  C267  1.413299 A    
C62   C67   1.393717 A    
C52   C53   1.408560 A    
C148  C164  1.401531 A    
C138  C174  1.402995 A    
C34   C58   1.404356 A    
C131  C147  1.389212 A    
N12   O71   1.301261 A    
C132  C148  1.389211 A    
C29   N7    1.368960 A    
C46   C56   1.408619 A    
C144  H48   1.083078 S    
C243  F51   1.359392 S    
C77   H21   1.083040 S    
N15   O77   1.301264 A    
C12   C108  1.468591 S    
C87   C103  1.391563 A    
C61   H5    1.083110 S    
C234  C270  1.413305 A    
C141  C173  1.402997 A    
C186  F42   1.357777 S    
C255  F63   1.359393 S    
C192  C222  1.403116 A    
N22   O91   1.301264 A    
C180  F36   1.357775 S    
C192  F48   1.357777 S    
C199  C211  1.399130 A    
C31   O47   1.349691 S    
C183  C199  1.389023 A    
N2    C119  1.429784 S    
C238  C254  1.396480 A    
C160  C166  1.401534 A    
C234  N18   1.439859 S    
C164  C220  1.457738 S    
O10   C6    1.285843 A    
C241  F49   1.359395 S    
C18   N2    1.368957 A    
C155  C167  1.401530 A    
C182  C220  1.403111 A    
O15   Zn5   2.013786 S    
N22   O92   1.301392 A    
C28   N6    1.368959 A    
C37   C61   1.404354 A    
C82   C118  1.397813 A    
C239  N23   1.439858 S    
O5    C1    1.285845 A    
C50   C55   1.408560 A    
C134  C150  1.389211 A    
C139  C155  1.389212 A    
C178  C218  1.403109 A    
C6    C262  1.460089 S    
C89   C105  1.409097 A    
C28   O44   1.349693 S    
C247  F55   1.359395 S    
C61   C68   1.393722 A    
C136  H40   1.083081 S    
C137  H41   1.083082 S    
O32   Zn8   2.011840 S    
C27   N5    1.368959 A    
C183  C219  1.403116 A    
C191  F47   1.357776 S    
C206  C216  1.399129 A    
C190  F46   1.357775 S    
C38   C52   1.408622 A    
C130  H34   1.083077 S    
C244  F52   1.359393 S    
C142  C158  1.389211 A    
C76   C92   1.391568 A    
O22   Zn2   2.011839 S    
N17   O81   1.301264 A    
O21   C11   1.288246 A    
C19   O35   1.349688 S    
O22   C12   1.288247 A    
N16   O80   1.301391 A    
O23   Zn1   2.011840 S    
C24   C38   1.400025 A    
O52   C124  1.283319 A    
C229  C245  1.396480 A    
N9    O66   1.301389 A    
C78   C116  1.397815 A    
C26   N6    1.368959 A    
C205  C213  1.399130 A    
C93   F5    1.357689 S    
C104  F16   1.357684 S    
C76   C114  1.397816 A    
C208  H64   1.083473 S    
C79   C95   1.391568 A    
C91   F3    1.357684 S    
C134  H38   1.083079 S    
C68   H12   1.083110 S    
O3    Zn3   2.013785 S    
C97   F9    1.357684 S    
C2    C258  1.460093 S    
C30   N8    1.368962 A    
C184  C200  1.389026 A    
O8    C2    1.285843 A    
C8    C264  1.460089 S    
C201  H57   1.083472 S    
C252  C264  1.402041 A    
C209  C265  1.459740 S    
C147  F19   1.357921 S    
O28   Zn8   2.011844 S    
C7    C263  1.460094 S    
C216  C272  1.459743 S    
C251  C263  1.402047 A    
O30   Zn6   2.011839 S    
C41   C65   1.404354 A    
C83   C99   1.391568 A    
O59   C127  1.283319 A    
C237  C269  1.413306 A    
C86   C102  1.391563 A    
C235  C251  1.396480 A    
C250  C262  1.402048 A    
C225  N9    1.439858 S    
C236  C252  1.396480 A    
C80   C96   1.391568 A    
C40   C52   1.408624 A    
C149  F21   1.357921 S    
C215  C271  1.459740 S    
C213  C269  1.459744 S    
C226  C266  1.413303 A    
O9    Zn5   2.013782 S    
C9    C105  1.468591 S    
O11   Zn7   2.013785 S    
C198  C212  1.399123 A    
C238  C272  1.413304 A    
C184  C218  1.403115 A    
C195  C211  1.399125 A    
N20   O87   1.301267 A    
C13   C109  1.468591 S    
C88   C104  1.391563 A    
C153  C165  1.401529 A    
O64   Zn12  2.014080 S    
C186  C202  1.389026 A    
C19   C33   1.400020 A    
C25   O41   1.349690 S    
O60   C128  1.283319 A    
C140  C176  1.402998 A    
C193  C209  1.399127 A    
O57   Zn11  2.014079 S    
O6    C4    1.285843 A    
C91   C105  1.409096 A    
C202  C214  1.399128 A    
C67   H11   1.083112 S    
C177  F33   1.357775 S    
O56   C124  1.283315 A    
C36   C50   1.408624 A    
C146  F18   1.357922 S    
C73   C113  1.397815 A    
C83   C117  1.397816 A    
C125  C176  1.460688 S    
C198  H54   1.083472 S    
O58   Zn11  2.014084 S    
O31   Zn5   2.011840 S    
O60   Zn11  2.014080 S    
O56   Zn10  2.014080 S    
C254  F62   1.359396 S    
O53   C123  1.283315 A    
C36   C60   1.404356 A    
C43   C67   1.404354 A    
N24   O95   1.301266 A    
C63   C66   1.393717 A    
C154  F26   1.357923 S    
O17   Zn1   2.011844 S    
C49   C56   1.408560 A    
C58   H2    1.083113 S    
C40   C64   1.404354 A    
C51   C54   1.408560 A    
C182  F38   1.357773 S    
C227  C267  1.413300 A    
C35   C49   1.408624 A    
C73   H17   1.083039 S    
C228  C268  1.413299 A    
C33   C49   1.408629 A    
N6    C115  1.429784 S    
C86   C120  1.397818 A    
N8    C113  1.429779 S    
O13   Zn7   2.013781 S    
C62   H6    1.083113 S    
N23   O94   1.301389 A    
C191  C207  1.389023 A    
C188  C224  1.403116 A    
C155  F27   1.357921 S    
O2    C2    1.285843 A    
O25   Zn5   2.011844 S    
O20   Zn4   2.011844 S    
C225  C241  1.396480 A    
C236  C272  1.413303 A    
C211  C267  1.459740 S    
C210  C266  1.459743 S    
N14   O76   1.301390 A    
C139  H43   1.083078 S    
C21   N3    1.368962 A    
C140  H44   1.083077 S    
N21   O89   1.301263 A    
C23   N3    1.368957 A    
C139  C175  1.402991 A    
O4    Zn4   2.013785 S    
C251  F59   1.359393 S    
C187  C223  1.403111 A    
N10   O68   1.301389 A    
C151  F23   1.357921 S    
C85   C101  1.391568 A    
C136  C152  1.389211 A    
O59   Zn11  2.014083 S    
C137  C153  1.389212 A    
C32   O48   1.349691 S    
O55   Zn10  2.014079 S    
O14   C8    1.285841 A    
N19   O85   1.301261 A    
C179  C195  1.389023 A    
C27   C41   1.400025 A    
C156  F28   1.357922 S    
C20   O36   1.349690 S    
C247  C259  1.402046 A    
C130  C146  1.389211 A    
C20   C34   1.400020 A    
O49   C121  1.283319 A    
C184  F40   1.357779 S    
C42   C54   1.408624 A    
C185  C201  1.389023 A    
C24   O40   1.349689 S    
C248  F56   1.359395 S    
C239  C255  1.396480 A    
C162  C218  1.457738 S    
C159  C167  1.401534 A    
C95   F7    1.357685 S    
C226  C242  1.396480 A    
C199  H55   1.083473 S    
C167  C223  1.457735 S    
O15   C7    1.285845 A    
C230  N14   1.439858 S    
C79   H23   1.083040 S    
C59   H3    1.083112 S    
C188  C204  1.389026 A    
C231  N15   1.439855 S    
C99   F11   1.357683 S    
C245  F53   1.359393 S    
C212  C268  1.459740 S    
C64   C65   1.393717 A    
C166  C222  1.457734 S    
C39   C51   1.408626 A    
O53   Zn10  2.014083 S    
C200  C210  1.399128 A    
C80   C116  1.397812 A    
C1    C257  1.460094 S    
C72   H16   1.083108 S    
C82   H26   1.083039 S    
C11   C107  1.468591 S    
O27   Zn7   2.011844 S    
C235  N19   1.439858 S    
C230  C246  1.396479 A    
C87   H31   1.083043 S    
C233  C249  1.396480 A    
N11   O69   1.301264 A    
C60   H4    1.083110 S    
C5    C261  1.460090 S    
C240  N24   1.439859 S    
C196  C212  1.399128 A    
C126  C173  1.460688 S    
C88   H32   1.083041 S    
C57   H1    1.083108 S    
C138  H42   1.083079 S    
C144  C174  1.402995 A    
O29   Zn7   2.011839 S    
N24   O96   1.301389 A    
C160  F32   1.357923 S    
C203  H59   1.083475 S    
C18   C36   1.400025 A    
O19   C9    1.288246 A    
C189  C205  1.389023 A    
C99   C109  1.409099 A    
C90   C106  1.409098 A    
C143  C159  1.389212 A    
C82   C98   1.391568 A    
C103  C111  1.409098 A    
O24   C12   1.288247 A    
C203  C215  1.399125 A    
N1    C120  1.429784 S    
N12   O72   1.301390 A    
O12   Zn8   2.013785 S    
C142  C176  1.402994 A    
C128  C175  1.460684 S    
C195  H51   1.083473 S    
O14   Zn6   2.013784 S    
C181  C197  1.389023 A    
C95   C107  1.409097 A    
O2    Zn2   2.013780 S    
C254  C264  1.402046 A    
C90   F2    1.357684 S    
O62   C126  1.283315 A    
C240  C270  1.413303 A    
O61   C127  1.283315 A    
O9    C5    1.285843 A    
C193  H49   1.083475 S    
C182  C198  1.389026 A    
C85   C119  1.397813 A    
C20   N2    1.368961 A    
C81   C117  1.397813 A    
C98   F10   1.357683 S    
C29   O45   1.349691 S    
C22   N4    1.368959 A    
C17   N1    1.368957 A    
C232  C248  1.396480 A    
C27   O43   1.349691 S    
C129  C145  1.389212 A    
N3    C118  1.429784 S    
C141  H45   1.083082 S    
C237  C253  1.396480 A    
C15   C111  1.468591 S    
O63   C125  1.283315 A    
C85   H29   1.083036 S    
C64   H8    1.083112 S    
N17   O82   1.301387 A    
C197  H53   1.083475 S    
C157  F29   1.357920 S    
C181  F37   1.357775 S    
C150  F22   1.357924 S    
C249  C261  1.402041 A    
C226  N10   1.439855 S    
C73   C89   1.391568 A    
C243  C259  1.402047 A    
C163  C219  1.457735 S    
N18   O83   1.301262 A    
N13   O74   1.301389 A    
C35   C59   1.404352 A    
C214  C270  1.459740 S    
O10   Zn6   2.013780 S    
C77   C93   1.391568 A    
C101  C111  1.409095 A    
C17   O33   1.349688 S    
C75   H19   1.083039 S    
C168  C224  1.457734 S    
C145  C161  1.401530 A    
C103  F15   1.357686 S    
O64   C128  1.283315 A    
C154  C166  1.401535 A    
C207  H63   1.083475 S    
C101  F13   1.357686 S    
O1    Zn1   2.013782 S    
C23   O39   1.349691 S    
C185  F41   1.357778 S    
C26   O42   1.349691 S    
O20   C10   1.288247 A    
