data_mof_unit_41128.cif
_audit_creation_date              2012-12-10T20:34:46-0500
_audit_creation_method            fapswitch 2.2
_symmetry_space_group_name_H-M    P1
_symmetry_Int_Tables_number       1
_space_group_crystal_system       triclinic
_cell_length_a                    10.937329
_cell_length_b                    10.920439
_cell_length_c                    9.936474
_cell_angle_alpha                 89.386298
_cell_angle_beta                  89.772463
_cell_angle_gamma                 91.799646
_cell_volume                      1186.15231292

loop_
_atom_site_label
_atom_site_type_symbol
_atom_type_description
_atom_site_fract_x
_atom_site_fract_y
_atom_site_fract_z
_atom_type_partial_charge
C1    C     C_R   0.498351 0.259816 0.499949 0.876646
C2    C     C_3   0.877734 0.498451 0.501465 -0.390901
C3    C     C_3   0.938533 0.631972 0.487992 0.928659
C4    C     C_3   0.915869 0.403968 0.386165 0.728213
C5    C     C_R   0.474869 0.056714 0.612970 -0.125695
C6    C     C_R   0.493823 0.126937 0.496221 -0.229555
C7    C     C_R   0.510653 0.063402 0.372507 0.525445
C8    C     C_R   0.508290 0.934090 0.374738 -0.341401
C9    C     C_R   0.497636 0.869169 0.496520 -0.125409
C10   C     C_R   0.482484 0.933974 0.612789 -0.084587
C11   C     C_3   0.459567 0.913405 0.758490 0.290795
C12   C     C_R   0.257096 0.486878 0.500668 0.947220
C13   C     C_3   0.446232 0.054979 0.762346 0.954947
C14   C     C_R   0.469415 0.396215 0.072189 0.289164
C15   C     C_R   0.552763 0.594309 0.070698 -0.171437
C16   C     C_R   0.556568 0.592143 0.927005 -0.202248
C17   C     C_R   0.459680 0.401027 0.930010 0.297177
C18   C     C_3   0.330958 0.361916 0.935949 -0.505192
C19   C     C_3   0.348462 0.337518 0.083681 -0.590006
C20   C     C_R   0.498371 0.738834 0.499199 0.904806
C21   C     C_R   0.741939 0.502940 0.500196 1.007844
C22   C     C_3   0.062021 0.427797 0.644536 0.886741
C23   C     C_3   0.919403 0.441186 0.641588 0.198947
C24   C     C_3   0.077946 0.611595 0.468851 -0.670978
C25   C     C_3   0.061472 0.388123 0.384125 0.813249
C26   C     C_3   0.117850 0.477555 0.501549 -0.366274
H1    H     H_    0.591757 0.672428 0.123156 0.149259
N1    N     N_R   0.499150 0.499140 0.142800 -0.116887
N2    N     N_R   0.499150 0.499180 0.857150 -0.131292
O1    O     O_R   0.500020 0.316790 0.614690 -0.607897
O2    O     O_R   0.500000 0.316760 0.385350 -0.577880
O3    O     O_R   0.314800 0.500000 0.614670 -0.583218
O4    O     O_R   0.314790 0.499960 0.385330 -0.615430
O5    O     O_R   0.500000 0.683240 0.614650 -0.619487
O6    O     O_R   0.499980 0.683210 0.385310 -0.644066
O7    O     O_R   0.685210 0.500040 0.614670 -0.614013
O8    O     O_R   0.685200 0.500000 0.385330 -0.560720
Zn1   Zn    Zn3+2 0.500010 0.500020 0.653130 0.970884
Zn2   Zn    Zn3+2 0.499990 0.499980 0.346870 0.976863
O9    O     O_3   0.118129 0.476534 0.763468 -0.624569
C27   C     C_3   0.120842 0.603325 0.788059 -0.225266
H2    H     H_    0.032093 0.645826 0.791655 0.256661
H3    H     H_    0.188938 0.653693 0.725199 0.214305
H4    H     H_    0.151909 0.614127 0.893096 0.129708
O10   O     O_3   0.861567 0.431764 0.257130 -0.624328
C28   C     C_3   0.899796 0.537033 0.182324 -0.204190
H5    H     H_    0.982922 0.584136 0.216783 0.202539
H6    H     H_    0.822796 0.600219 0.173043 0.210086
H7    H     H_    0.923115 0.509962 0.079542 0.153488
H8    H     H_    0.108685 0.635224 0.365414 0.211811
O11   O     O_3   0.888737 0.699094 0.378168 -0.662440
C29   C     C_3   0.947962 0.815062 0.354961 -0.385248
H9    H     H_    0.999102 0.852152 0.442897 0.214437
H10   H     H_    0.877671 0.881983 0.327696 0.180653
H11   H     H_    0.011765 0.809161 0.268325 0.159794
O12   O     O_3   0.518733 0.129271 0.251812 -0.606634
C30   C     C_3   0.593751 0.074807 0.154883 -0.348236
H12   H     H_    0.629637 0.148573 0.087316 0.223560
H13   H     H_    0.539385 0.008573 0.093857 0.186908
H14   H     H_    0.674125 0.029420 0.199219 0.120320
H15   H     H_    0.514099 0.884111 0.281674 0.170949
O13   O     O_3   0.348490 0.845500 0.777511 -0.578481
C31   C     C_3   0.347308 0.783293 0.903176 -0.344888
H16   H     H_    0.418616 0.815100 0.975831 0.132536
H17   H     H_    0.354153 0.684607 0.884998 0.214929
H18   H     H_    0.257768 0.794144 0.953206 0.150099
H19   H     H_    0.541659 0.875598 0.807910 0.017387
O14   O     O_3   0.324194 0.091564 0.783588 -0.614150
C32   C     C_3   0.277754 0.055146 0.912215 -0.292388
H20   H     H_    0.348545 0.027445 0.985406 0.173926
H21   H     H_    0.206619 0.982136 0.899181 0.193896
H22   H     H_    0.226470 0.129269 0.958548 0.132950
O15   O     O_3   0.531650 0.120085 0.846006 -0.644468
C33   C     C_3   0.654910 0.116622 0.801092 -0.481715
H23   H     H_    0.669700 0.172532 0.708279 0.214010
H24   H     H_    0.685637 0.022066 0.785291 0.143559
H25   H     H_    0.715376 0.157599 0.878707 0.178053
O16   O     O_3   0.086328 0.300113 0.648867 -0.603671
C34   C     C_3   0.050714 0.235174 0.767433 -0.230242
H26   H     H_    0.950895 0.216592 0.773687 0.106515
H27   H     H_    0.085639 0.278759 0.859729 0.169078
H28   H     H_    0.090055 0.143373 0.762077 0.218501
H29   H     H_    0.599479 0.668107 0.872449 0.156180
H30   H     H_    0.272606 0.440999 0.919799 0.244591
H31   H     H_    0.313036 0.286798 0.867470 0.289848
H32   H     H_    0.295751 0.396452 0.148707 0.279989
H33   H     H_    0.352701 0.239377 0.112620 0.248123
H34   H     H_    0.875637 0.348591 0.644559 0.142885
O17   O     O_3   0.876807 0.508216 0.753730 -0.562153
C35   C     C_3   0.820313 0.431685 0.853094 -0.273378
H35   H     H_    0.776068 0.490331 0.927548 0.185570
H36   H     H_    0.888700 0.376376 0.905942 0.137057
H37   H     H_    0.746273 0.371634 0.811535 0.178713
H38   H     H_    0.130250 0.681000 0.527021 0.207808
O18   O     O_3   0.923932 0.699450 0.609146 -0.624216
C36   C     C_3   0.811325 0.759100 0.623502 -0.176202
H39   H     H_    0.770759 0.733881 0.722745 0.175985
H40   H     H_    0.742531 0.737576 0.545283 0.157784
H41   H     H_    0.829230 0.859677 0.622383 0.138507
O19   O     O_3   0.109197 0.420885 0.254699 -0.654378
C37   C     C_3   0.078492 0.333626 0.152500 -0.345486
H42   H     H_    0.982391 0.302717 0.147356 0.189217
H43   H     H_    0.132544 0.249956 0.159818 0.174170
H44   H     H_    0.097604 0.378353 0.054180 0.194748
O20   O     O_3   0.083679 0.260898 0.410707 -0.586585
C38   C     C_3   0.207670 0.227442 0.408172 -0.203141
H45   H     H_    0.247756 0.231325 0.510106 0.202893
H46   H     H_    0.211381 0.130893 0.375267 0.158203
H47   H     H_    0.265461 0.282436 0.338236 0.178219
O21   O     O_3   0.860715 0.289461 0.432328 -0.647194
C39   C     C_3   0.829330 0.202299 0.333421 -0.164411
H48   H     H_    0.911113 0.162298 0.287589 0.157111
H49   H     H_    0.766534 0.238995 0.256769 0.209452
H50   H     H_    0.779195 0.125259 0.384817 0.148058

loop_
_geom_bond_atom_site_label_1
_geom_bond_atom_site_label_2
_ccdc_geom_bond_type
C31   H17   S    
C37   H42   S    
C17   N2    A    
C27   H2    S    
O6    Zn2   S    
O18   C36   S    
C11   O13   S    
C4    C25   S    
C15   N1    A    
C25   O20   S    
C7    C8    A    
C21   O7    A    
O10   C28   S    
C28   H7    S    
O4    Zn2   S    
C33   H24   S    
C24   C26   S    
C19   H33   S    
C5    C6    A    
C30   H13   S    
C38   H45   S    
C15   C16   A    
C36   H41   S    
C1    O2    A    
O12   C30   S    
O1    Zn1   S    
C18   C19   S    
O15   C33   S    
C32   H21   S    
O21   C39   S    
C1    O1    A    
C9    C20   S    
C20   O6    A    
C15   H1    S    
C39   H48   S    
C11   H19   S    
O14   C32   S    
C33   H25   S    
C36   H40   S    
N2    Zn1   S    
C18   H30   S    
C23   O17   S    
O3    Zn1   S    
C9    C10   A    
C5    C13   S    
C29   H11   S    
C8    H15   S    
C20   O5    A    
C19   H32   S    
C31   H18   S    
C37   H43   S    
C12   O3    A    
C27   H3    S    
C14   C17   A    
C3    C24   S    
C7    O12   S    
C29   H10   S    
C30   H12   S    
C4    O10   S    
C24   H8    S    
C28   H6    S    
C18   H31   S    
C33   H23   S    
C1    C6    S    
C34   H26   S    
C22   O16   S    
C34   H27   S    
C3    O11   S    
O16   C34   S    
C8    C9    A    
C30   H14   S    
N1    Zn2   S    
C16   N2    A    
C16   H29   S    
O11   C29   S    
C12   C26   S    
C32   H22   S    
C2    C4    S    
O13   C31   S    
C24   H38   S    
C25   O19   S    
C35   H36   S    
C22   O9    S    
C36   H39   S    
C2    C21   S    
C17   C18   S    
C39   H49   S    
O9    C27   S    
C13   O15   S    
C37   H44   S    
C23   H34   S    
C27   H4    S    
O17   C35   S    
C29   H9    S    
C35   H37   S    
C4    O21   S    
C28   H5    S    
O5    Zn1   S    
C14   C19   S    
C34   H28   S    
C6    C7    A    
O20   C38   S    
O7    Zn1   S    
C2    C3    S    
C25   C26   S    
C5    C10   A    
O8    Zn2   S    
C11   C13   S    
C35   H35   S    
C38   H46   S    
O19   C37   S    
O2    Zn2   S    
C39   H50   S    
C32   H20   S    
C10   C11   S    
C31   H16   S    
C21   O8    A    
C22   C26   S    
C2    C23   S    
C22   C23   S    
C3    O18   S    
C14   N1    A    
C12   O4    A    
C38   H47   S    
C13   O14   S    
