data_mof_unit_42568.cif
_audit_creation_date              2012-10-26T20:33:13-0400
_audit_creation_method            fapswitch 2.2
_symmetry_space_group_name_H-M    P1
_symmetry_Int_Tables_number       1
_space_group_crystal_system       triclinic
_cell_length_a                    17.66734
_cell_length_b                    10.858774
_cell_length_c                    9.563418
_cell_angle_alpha                 90.477619
_cell_angle_beta                  90.24117
_cell_angle_gamma                 90.704132
_cell_volume                      1834.48082179

loop_
_atom_site_label
_atom_site_type_symbol
_atom_type_description
_atom_site_fract_x
_atom_site_fract_y
_atom_site_fract_z
_atom_type_partial_charge
C1    C     C_R   0.495935 0.262446 0.498557 0.575249
C2    C     C_R   0.114010 0.469841 0.495996 0.042961
C3    C     C_R   0.508322 0.065472 0.617948 -0.033269
C4    C     C_R   0.355450 0.497774 0.499688 0.543918
C5    C     C_R   0.493243 0.128626 0.494105 0.023392
C6    C     C_R   0.482259 0.059302 0.367891 0.194184
C7    C     C_R   0.487027 0.931328 0.372783 -0.098082
C8    C     C_R   0.499982 0.870333 0.498775 0.010590
C9    C     C_R   0.513560 0.939027 0.619715 0.007331
C10   C     C_3   0.477367 0.928298 0.759622 -0.190868
C11   C     C_3   0.469148 0.067520 0.757493 0.163340
C12   C     C_R   0.884507 0.476849 0.496466 -0.005161
C13   C     C_R   0.564367 0.476296 0.073267 0.193276
C14   C     C_R   0.435220 0.519922 0.073842 0.081844
C15   C     C_R   0.435396 0.521278 0.925590 0.062957
C16   C     C_R   0.498976 0.737325 0.500316 0.596768
C17   C     C_R   0.563517 0.470202 0.926360 0.132046
C18   C     C_3   0.639250 0.530807 0.915674 -0.237215
C19   C     C_3   0.638961 0.545287 0.073846 0.099499
C20   C     C_R   0.644218 0.503202 0.500211 0.593960
C21   C     C_R   0.851903 0.584498 0.547558 -0.087889
C22   C     C_R   0.773289 0.597505 0.549753 0.194829
C23   C     C_1   0.965185 0.468115 0.494365 -0.003279
C24   C     C_R   0.726864 0.498966 0.500017 0.009079
C25   C     C_R   0.760423 0.391724 0.447237 -0.164544
C26   C     C_R   0.838922 0.380497 0.445758 -0.104527
C27   C     C_1   0.033084 0.466375 0.494417 -0.003335
C28   C     C_R   0.152712 0.485189 0.622866 -0.095556
C29   C     C_R   0.231484 0.494963 0.624278 -0.116695
C30   C     C_R   0.272227 0.489657 0.498476 0.025704
C31   C     C_R   0.232730 0.473697 0.371458 -0.110877
C32   C     C_R   0.153955 0.463992 0.370378 -0.096869
Cu1   Cu    Cu3+1 0.500000 0.499980 0.640670 1.039275
Cu2   Cu    Cu3+1 0.500000 0.500020 0.359330 1.110302
H1    H     H_    0.888069 0.659562 0.584242 0.164485
H2    H     H_    0.124211 0.452853 0.271670 0.125763
H3    H     H_    0.476240 0.878244 0.278663 0.195753
H4    H     H_    0.311836 0.284173 0.778070 0.354876
H5    H     H_    0.502920 0.115682 0.840125 0.175593
H6    H     H_    0.383362 0.541119 0.871210 0.111543
H7    H     H_    0.685267 0.494348 0.125915 0.109229
H8    H     H_    0.779951 0.710569 0.815744 0.342482
H9    H     H_    0.558717 0.854283 0.078725 0.375287
H10   H     H_    0.725579 0.316065 0.408037 0.138186
H11   H     H_    0.262573 0.468471 0.272963 0.136825
H12   H     H_    0.423283 0.874802 0.755824 0.180166
H13   H     H_    0.346424 0.180957 0.282669 0.348783
H14   H     H_    0.518299 0.896889 0.839669 0.169908
H15   H     H_    0.382979 0.538038 0.127944 0.109150
H16   H     H_    0.682933 0.465848 0.877787 0.099662
H17   H     H_    0.636919 0.618368 0.856880 0.229883
H18   H     H_    0.863969 0.297034 0.405097 0.152087
H19   H     H_    0.121967 0.490687 0.720484 0.124548
H20   H     H_    0.260312 0.507159 0.723639 0.119221
N1    N     N_R   0.500470 0.500930 0.147930 -0.192151
N2    N     N_R   0.500480 0.500890 0.852020 -0.222481
O1    O     O_R   0.500000 0.319640 0.618810 -0.472371
O2    O     O_2   0.328520 0.050360 0.865665 -0.216340
O3    O     O_3   0.366674 0.266575 0.775150 -0.490465
O4    O     O_2   0.757941 0.835855 0.496372 -0.190580
O5    O     O_2   0.655362 0.742230 0.630149 -0.273991
O6    O     O_3   0.783624 0.783934 0.755178 -0.470157
O7    O     O_2   0.646176 0.722308 0.277134 -0.203883
O8    O     O_2   0.697105 0.774237 0.048381 -0.257412
O9    O     O_3   0.551070 0.763814 0.074926 -0.548094
O10   O     O_2   0.522215 0.186993 0.140399 -0.269439
O11   O     O_2   0.427948 0.023545 0.105354 -0.274268
O12   O     O_R   0.500010 0.319680 0.381230 -0.436619
O13   O     O_3   0.385018 0.224881 0.226425 -0.473021
O14   O     O_R   0.391250 0.499990 0.618840 -0.507745
O15   O     O_R   0.391260 0.500020 0.381250 -0.518739
O16   O     O_R   0.499990 0.680320 0.618770 -0.488820
O17   O     O_R   0.500000 0.680360 0.381190 -0.464302
O18   O     O_R   0.608740 0.499980 0.618750 -0.505318
O19   O     O_R   0.608750 0.500010 0.381160 -0.485418
O20   O     O_2   0.336699 0.078884 0.612374 -0.308815
S1    S     S_3+6 0.371645 0.113506 0.751073 0.038513
S2    S     S_3+6 0.739083 0.742313 0.606135 0.042181
S3    S     S_3+6 0.634938 0.705652 0.122541 0.035463
S4    S     S_3+6 0.455052 0.122992 0.204368 0.038505

loop_
_geom_bond_atom_site_label_1
_geom_bond_atom_site_label_2
_ccdc_geom_bond_type
O9    S3    S    
C16   O16   A    
O3    S1    S    
C4    O14   A    
C7    C8    A    
O7    S3    D    
C12   C23   S    
O4    S2    D    
C1    C5    S    
C32   H2    S    
C28   C29   A    
C1    O1    A    
C5    C6    A    
C14   H15   S    
C29   H20   S    
C1    O12   A    
C2    C32   A    
C18   C19   S    
H13   O13   S    
C11   S1    S    
O2    S1    D    
C20   C24   S    
C8    C9    A    
C10   H12   S    
C2    C27   S    
C23   C27   T    
C9    C10   S    
H8    O6    S    
Cu1   O16   S    
Cu2   O19   S    
Cu1   N2    S    
C14   N1    A    
Cu2   N1    S    
C8    C16   S    
C21   C22   A    
C25   H10   S    
C18   H17   S    
C17   C18   S    
C13   C19   S    
C16   O17   A    
C24   C25   A    
C22   S2    S    
Cu2   O12   S    
C25   C26   A    
C12   C21   A    
C20   O19   A    
C12   C26   A    
C19   S3    S    
C29   C30   A    
C3    C9    A    
C26   H18   S    
C6    S4    S    
C31   C32   A    
O5    S2    D    
H9    O9    S    
Cu1   Cu2   S    
C7    H3    S    
C20   O18   A    
O20   S1    D    
C11   H5    S    
C17   N2    A    
Cu1   O14   S    
C10   H14   S    
O8    S3    D    
C22   C24   A    
C18   H16   S    
Cu1   O1    S    
O6    S2    S    
O11   S4    D    
C3    C5    A    
C28   H19   S    
C6    C7    A    
C21   H1    S    
O10   S4    D    
C13   C17   A    
C15   N2    A    
C30   C31   A    
C15   H6    S    
C3    C11   S    
C10   C11   S    
Cu2   O17   S    
H4    O3    S    
Cu1   O18   S    
C31   H11   S    
C14   C15   A    
O13   S4    S    
C2    C28   A    
Cu2   O15   S    
C4    O15   A    
C4    C30   S    
C19   H7    S    
C13   N1    A    
