data_mof_unit_44188.cif
_audit_creation_date              2012-12-10T20:05:01-0500
_audit_creation_method            fapswitch 2.2
_symmetry_space_group_name_H-M    P1
_symmetry_Int_Tables_number       1
_space_group_crystal_system       triclinic
_cell_length_a                    15.938843
_cell_length_b                    15.917912
_cell_length_c                    26.041162
_cell_angle_alpha                 90.081622
_cell_angle_beta                  89.851647
_cell_angle_gamma                 90.001671
_cell_volume                      6606.95509175

loop_
_atom_site_label
_atom_site_type_symbol
_atom_type_description
_atom_site_fract_x
_atom_site_fract_y
_atom_site_fract_z
_atom_type_partial_charge
C1    C     C_R   0.998828 0.496105 0.445866 -0.020667
C2    C     C_R   0.508607 0.999602 0.609838 0.535838
C3    C     C_2   0.864580 0.650426 0.903558 0.292505
C4    C     C_2   0.649250 0.106365 0.071788 0.274862
C5    C     C_2   0.319800 0.899236 0.907238 0.280467
C6    C     C_2   0.869307 0.650294 0.092302 0.281278
C7    C     C_2   0.878406 0.340278 0.913571 0.275680
C8    C     C_2   0.839258 0.396940 0.574462 0.270893
C9    C     C_2   0.090249 0.341104 0.410246 0.248347
C10   C     C_2   0.601574 0.829436 0.579785 0.242067
C11   C     C_2   0.647929 0.124503 0.403620 0.277189
C12   C     C_2   0.182276 0.562569 0.571915 0.261588
C13   C     C_R   0.999665 0.500092 0.390058 0.471118
C14   C     C_2   0.882402 0.648181 0.422433 0.239296
C15   C     C_2   0.631944 0.150605 0.596325 0.297136
C16   C     C_2   0.357421 0.896707 0.422550 0.244324
C17   C     C_3   0.795257 0.979501 0.063609 -0.227612
C18   C     C_3   0.865749 0.043958 0.057738 -0.404748
C19   C     C_3   0.195185 0.027976 0.950952 -0.287198
C20   C     C_3   0.118884 0.970511 0.950066 -0.466317
C21   C     C_3   0.980183 0.803127 0.054745 -0.265790
C22   C     C_3   0.075628 0.807705 0.056939 -0.411626
C23   C     C_3   0.004096 0.198654 0.932647 -0.230668
C24   C     C_R   0.000619 0.498285 0.609437 0.472863
C25   C     C_3   0.939236 0.128524 0.937882 -0.399041
C26   C     C_3   0.206281 0.017484 0.069141 -0.275567
C27   C     C_3   0.241376 0.091698 0.099470 -0.413259
C28   C     C_3   0.806028 0.915771 0.953749 -0.256296
C29   C     C_3   0.816164 0.955617 0.900514 -0.409344
C30   C     C_3   0.065587 0.197112 0.042525 -0.259163
C31   C     C_3   0.026285 0.188791 0.096000 -0.396460
C32   C     C_3   0.978033 0.796751 0.935911 -0.313810
C33   C     C_3   0.054571 0.772357 0.903712 -0.423306
C34   C     C_3   0.304169 0.418092 0.548471 -0.229663
C35   C     C_R   0.989806 0.499814 0.889884 0.530812
C36   C     C_3   0.374984 0.472439 0.527242 -0.422103
C37   C     C_3   0.703115 0.604586 0.456477 -0.244253
C38   C     C_3   0.646113 0.534111 0.437067 -0.458368
C39   C     C_3   0.524501 0.296783 0.550287 -0.307210
C40   C     C_3   0.587475 0.363966 0.565444 -0.425232
C41   C     C_3   0.354518 0.725902 0.470818 -0.242833
C42   C     C_3   0.269527 0.749759 0.493995 -0.408519
C43   C     C_3   0.705218 0.540041 0.566046 -0.285580
C44   C     C_3   0.723623 0.620514 0.595886 -0.410766
C45   C     C_3   0.271745 0.338510 0.444877 -0.240612
C46   C     C_R   0.998156 0.500319 0.109175 0.466193
C47   C     C_3   0.301626 0.383813 0.396172 -0.379590
C48   C     C_3   0.500460 0.683769 0.540993 -0.271726
C49   C     C_3   0.447038 0.662407 0.587970 -0.380985
C50   C     C_3   0.576208 0.299042 0.436566 -0.252131
C51   C     C_3   0.510612 0.293117 0.394139 -0.409347
C52   C     C_R   0.499148 0.991406 0.890037 0.514067
C53   C     C_R   0.499729 0.998915 0.109336 0.471286
C54   C     C_R   0.340003 0.160069 0.250035 0.513757
C55   C     C_R   0.659967 0.839906 0.749991 0.529452
C56   C     C_R   0.839959 0.339927 0.250007 0.515080
C57   C     C_R   0.001810 0.492682 0.552712 -0.034068
C58   C     C_R   0.160052 0.660057 0.750009 0.512254
C59   C     C_R   0.660060 0.839973 0.249985 0.509608
C60   C     C_R   0.339940 0.160022 0.750009 0.507865
C61   C     C_R   0.159998 0.660040 0.249980 0.509758
C62   C     C_R   0.840005 0.339964 0.750015 0.524945
C63   C     C_R   0.339974 0.839920 0.750021 0.523140
C64   C     C_R   0.660046 0.160054 0.250006 0.534622
C65   C     C_R   0.839980 0.660042 0.750060 0.525684
C66   C     C_R   0.160002 0.339942 0.249956 0.550149
C67   C     C_R   0.660031 0.160003 0.749948 0.529133
C68   C     C_R   0.509916 0.001535 0.446903 -0.028528
C69   C     C_R   0.340010 0.839964 0.250008 0.536815
C70   C     C_R   0.160050 0.339970 0.749983 0.506464
C71   C     C_R   0.839945 0.660020 0.250007 0.519360
C72   C     C_1   0.276681 0.776642 0.250009 0.021748
C73   C     C_1   0.723358 0.223338 0.749925 -0.001772
C74   C     C_1   0.223293 0.276600 0.249960 0.009036
C75   C     C_1   0.776651 0.723352 0.750097 -0.010799
C76   C     C_1   0.723351 0.223342 0.250022 0.024224
C77   C     C_1   0.276676 0.776619 0.750034 -0.012828
C78   C     C_1   0.776636 0.723326 0.250004 0.014622
C79   C     C_R   0.530000 0.997637 0.554075 0.007114
C80   C     C_1   0.223363 0.276660 0.749976 -0.024845
C81   C     C_1   0.276620 0.223327 0.750010 -0.025017
C82   C     C_1   0.723381 0.776661 0.249970 0.002113
C83   C     C_1   0.223366 0.723349 0.750035 -0.013633
C84   C     C_1   0.776658 0.276615 0.250017 0.002321
C85   C     C_1   0.723252 0.776551 0.750007 0.006826
C86   C     C_1   0.276688 0.223399 0.250053 -0.014998
C87   C     C_1   0.776706 0.276604 0.749987 0.012221
C88   C     C_1   0.223322 0.723388 0.249966 0.000098
C89   C     C_R   0.346214 0.948280 0.053707 0.053125
C90   C     C_R   0.496016 0.968120 0.945333 0.004190
C91   C     C_R   0.645842 0.924270 0.953647 0.048206
C92   C     C_R   0.050206 0.357016 0.039569 0.050375
C93   C     C_R   0.925160 0.649016 0.947124 0.038690
C94   C     C_R   0.649142 0.026097 0.041958 0.041257
C95   C     C_R   0.337657 0.957950 0.950369 0.033300
C96   C     C_R   0.934536 0.651035 0.051157 0.045640
C97   C     C_R   0.949495 0.344367 0.951128 0.035602
C98   C     C_R   0.846295 0.477714 0.545598 0.053019
C99   C     C_R   0.124159 0.400429 0.449901 0.036736
C100  C     C_R   0.529307 0.841290 0.544252 0.045982
C101  C     C_R   0.497881 0.988858 0.052599 -0.029392
C102  C     C_R   0.587427 0.139479 0.446502 0.048815
C103  C     C_R   0.159812 0.485227 0.542287 0.040144
C104  C     C_R   0.861660 0.575268 0.456349 0.045552
C105  C     C_R   0.576003 0.147919 0.550778 0.032800
C106  C     C_R   0.423814 0.870236 0.459452 0.045593
C107  C     C_R   0.272311 0.982007 0.032983 0.059836
C108  C     C_R   0.723766 0.941154 0.978584 0.042763
C109  C     C_R   0.036987 0.277029 0.016052 0.034029
C110  C     C_R   0.950231 0.724643 0.970129 -0.015370
C111  C     C_R   0.724456 0.988977 0.024828 0.032313
C112  C     C_R   0.964258 0.498610 0.945068 0.006035
C113  C     C_R   0.268419 0.988508 0.978824 -0.019841
C114  C     C_R   0.952436 0.726610 0.024647 0.055860
C115  C     C_R   0.990425 0.271765 0.969581 0.029474
C116  C     C_R   0.775543 0.522388 0.527982 0.045449
C117  C     C_R   0.204685 0.389778 0.472809 0.023682
C118  C     C_R   0.483781 0.772884 0.522664 0.024546
C119  C     C_R   0.577257 0.219883 0.469305 0.057170
C120  C     C_R   0.222526 0.432833 0.519839 0.024551
C121  C     C_R   0.782101 0.569393 0.481501 0.051876
C122  C     C_R   0.564523 0.222668 0.523191 -0.013186
C123  C     C_R   0.987475 0.501316 0.052205 -0.031687
C124  C     C_R   0.422246 0.790172 0.484182 0.030255
C125  C     C_R   0.928850 0.525095 0.474738 -0.048361
C126  C     C_R   0.077012 0.480136 0.523537 -0.063465
C127  C     C_R   0.482397 0.931590 0.476303 -0.056527
C128  C     C_R   0.552174 0.071562 0.526712 -0.000685
C129  C     C_R   0.067116 0.458322 0.472142 -0.052463
C130  C     C_R   0.925176 0.498201 0.525352 -0.054372
C131  C     C_R   0.550916 0.069813 0.472407 -0.065883
C132  C     C_R   0.514695 0.923154 0.525622 -0.062432
C133  C     C_R   0.418857 0.963860 0.973199 0.010634
C134  C     C_R   0.501123 0.000411 0.390481 0.479701
C135  C     C_R   0.572567 0.995001 0.022908 -0.057459
C136  C     C_R   0.969251 0.422998 0.972999 -0.061898
C137  C     C_R   0.955829 0.574458 0.026283 -0.061029
C138  C     C_R   0.571928 0.962456 0.973053 -0.055352
C139  C     C_R   0.421961 0.965406 0.027340 -0.063170
C140  C     C_R   0.948241 0.573574 0.972152 0.008706
C141  C     C_R   0.002089 0.426759 0.022729 -0.051819
C142  C     C_2   0.342837 0.877262 0.090885 0.283239
C143  C     C_2   0.635945 0.854736 0.915032 0.263959
C144  C     C_2   0.126750 0.374490 0.071269 0.258200
H1    H     H_    0.400568 0.847027 0.102928 0.108227
H2    H     H_    0.022898 0.331828 0.407760 0.108418
H3    H     H_    0.655265 0.871145 0.576889 0.122829
H4    H     H_    0.660077 0.060854 0.390616 0.104223
H5    H     H_    0.137620 0.614046 0.573708 0.107644
H6    H     H_    0.936972 0.647408 0.397690 0.120715
H7    H     H_    0.639411 0.207986 0.618115 0.131324
H8    H     H_    0.336087 0.961475 0.422790 0.092059
H9    H     H_    0.920973 0.015429 0.038591 0.097535
H10   H     H_    0.845020 0.099985 0.035934 0.198867
H11   H     H_    0.886482 0.064565 0.096399 0.163494
H12   H     H_    0.576512 0.845035 0.895824 0.138208
H13   H     H_    0.769212 0.984472 0.103195 0.197717
H14   H     H_    0.821256 0.914864 0.061875 0.142493
H15   H     H_    0.139322 0.905303 0.942563 0.153229
H16   H     H_    0.084260 0.972030 0.986970 0.136443
H17   H     H_    0.075377 0.990460 0.919170 0.142296
H18   H     H_    0.179303 0.089377 0.968620 0.140567
H19   H     H_    0.213327 0.042016 0.910600 0.145812
H20   H     H_    0.101357 0.750107 0.075101 0.191718
H21   H     H_    0.103127 0.814556 0.018052 0.158455
H22   H     H_    0.094040 0.862554 0.080483 0.156491
H23   H     H_    0.144422 0.438953 0.079386 0.109259
H24   H     H_    0.954051 0.861489 0.038232 0.114151
H25   H     H_    0.957624 0.800635 0.095001 0.205148
H26   H     H_    0.962203 0.078674 0.963752 0.108647
H27   H     H_    0.878207 0.152268 0.952422 0.203736
H28   H     H_    0.929404 0.099420 0.899647 0.154611
H29   H     H_    0.003673 0.222260 0.892473 0.195798
H30   H     H_    0.068118 0.172394 0.936991 0.113555
H31   H     H_    0.292121 0.070482 0.125170 0.218010
H32   H     H_    0.266574 0.140313 0.073044 0.165684
H33   H     H_    0.191487 0.119897 0.123746 0.158554
H34   H     H_    0.853129 0.707426 0.882082 0.135931
H35   H     H_    0.149976 0.039215 0.048746 0.124896
H36   H     H_    0.184592 0.969395 0.096686 0.193312
H37   H     H_    0.776639 0.923863 0.871459 0.212128
H38   H     H_    0.798465 0.023059 0.901849 0.166908
H39   H     H_    0.882435 0.950877 0.887660 0.114392
H40   H     H_    0.860559 0.936626 0.976379 0.123095
H41   H     H_    0.810566 0.846559 0.952220 0.196292
H42   H     H_    0.052840 0.235118 0.123280 0.221140
H43   H     H_    0.957428 0.198745 0.093873 0.164465
H44   H     H_    0.038183 0.124868 0.111352 0.118397
H45   H     H_    0.590715 0.139849 0.077857 0.103813
H46   H     H_    0.046499 0.140329 0.021272 0.124301
H47   H     H_    0.134721 0.194570 0.044043 0.189274
H48   H     H_    0.074062 0.826203 0.879421 0.133917
H49   H     H_    0.107535 0.753520 0.928814 0.157280
H50   H     H_    0.039162 0.719942 0.877452 0.208066
H51   H     H_    0.993117 0.853846 0.957985 0.145980
H52   H     H_    0.927774 0.814312 0.908978 0.131465
H53   H     H_    0.399893 0.446942 0.490692 0.127226
H54   H     H_    0.352506 0.537091 0.520577 0.181754
H55   H     H_    0.426611 0.474956 0.555435 0.135825
H56   H     H_    0.260867 0.902551 0.886642 0.105592
H57   H     H_    0.296150 0.430929 0.590055 0.205769
H58   H     H_    0.321911 0.350767 0.548239 0.109001
H59   H     H_    0.679432 0.496289 0.407483 0.172313
H60   H     H_    0.626250 0.491856 0.468515 0.134910
H61   H     H_    0.588962 0.561627 0.419510 0.140698
H62   H     H_    0.668691 0.645804 0.483618 0.137374
H63   H     H_    0.716797 0.643282 0.422292 0.210336
H64   H     H_    0.620958 0.344883 0.600709 0.196422
H65   H     H_    0.633053 0.375874 0.534077 0.196429
H66   H     H_    0.554356 0.423284 0.574476 0.115955
H67   H     H_    0.848252 0.591046 0.108383 0.110479
H68   H     H_    0.475248 0.323974 0.525379 0.143332
H69   H     H_    0.491264 0.275440 0.585559 0.150468
H70   H     H_    0.222929 0.699930 0.485166 0.141332
H71   H     H_    0.274702 0.755704 0.536366 0.155756
H72   H     H_    0.245956 0.809869 0.478212 0.176139
H73   H     H_    0.349755 0.716906 0.428763 0.203208
H74   H     H_    0.368709 0.662712 0.485011 0.118204
H75   H     H_    0.784761 0.615302 0.616005 0.187685
H76   H     H_    0.725783 0.675405 0.569670 0.168222
H77   H     H_    0.673815 0.630719 0.625101 0.189296
H78   H     H_    0.844278 0.397161 0.904071 0.140436
H79   H     H_    0.643479 0.545341 0.547107 0.121578
H80   H     H_    0.698788 0.489624 0.594880 0.201498
H81   H     H_    0.248954 0.412658 0.374772 0.224081
H82   H     H_    0.346329 0.434623 0.406255 0.120763
H83   H     H_    0.333433 0.338646 0.370140 0.146734
H84   H     H_    0.327977 0.325448 0.468095 0.115266
H85   H     H_    0.247560 0.274973 0.435719 0.190350
H86   H     H_    0.456268 0.709197 0.619063 0.218328
H87   H     H_    0.379725 0.661842 0.577706 0.188581
H88   H     H_    0.464899 0.599618 0.602803 0.141926
H89   H     H_    0.895524 0.364338 0.586754 0.118682
H90   H     H_    0.491233 0.636809 0.510074 0.111031
H91   H     H_    0.567390 0.675388 0.550417 0.173255
H92   H     H_    0.529604 0.246473 0.364671 0.225116
H93   H     H_    0.449367 0.273969 0.410729 0.141977
H94   H     H_    0.503545 0.355153 0.375179 0.127524
H95   H     H_    0.561101 0.355626 0.459350 0.121222
H96   H     H_    0.638955 0.311335 0.419777 0.204303
O1    O     O_3   0.500000 0.000000 0.250000 -0.447772
O2    O     O_R   0.500000 0.930770 0.634140 -0.522514
O3    O     O_R   0.930770 0.500000 0.365860 -0.555427
O4    O     O_R   0.069230 0.500000 0.634140 -0.536459
O5    O     O_R   0.000000 0.430770 0.865860 -0.550326
O6    O     O_R   1.000000 0.569230 0.134140 -0.554447
O7    O     O_R   0.569230 0.000000 0.865860 -0.557635
O8    O     O_R   0.430770 0.000000 0.134140 -0.570850
O9    O     O_R   0.000000 0.569230 0.865860 -0.549256
O10   O     O_R   0.000000 0.430770 0.134140 -0.540295
O11   O     O_R   0.430770 0.000000 0.865860 -0.527723
O12   O     O_3   0.500000 0.000000 0.750000 -0.448269
O13   O     O_R   0.569230 0.000000 0.134140 -0.539338
O14   O     O_R   0.402550 0.166630 0.280410 -0.546863
O15   O     O_R   0.597450 0.833370 0.719590 -0.489721
O16   O     O_R   0.833370 0.402550 0.280410 -0.532431
O17   O     O_R   0.166630 0.597450 0.719590 -0.508050
O18   O     O_R   0.597450 0.833370 0.280410 -0.539022
O19   O     O_R   0.402550 0.166630 0.719590 -0.542870
O20   O     O_R   0.166630 0.597450 0.280410 -0.542559
O21   O     O_R   0.833370 0.402550 0.719590 -0.529894
O22   O     O_R   0.402550 0.833370 0.719590 -0.535739
O23   O     O_3   0.000000 0.500000 0.250000 -0.446541
O24   O     O_R   0.597450 0.166630 0.280410 -0.534645
O25   O     O_R   0.833370 0.597450 0.719590 -0.541100
O26   O     O_R   0.166630 0.402550 0.280410 -0.524951
O27   O     O_R   0.597450 0.166630 0.719590 -0.543026
O28   O     O_R   0.402550 0.833370 0.280410 -0.506597
O29   O     O_R   0.166630 0.402550 0.719590 -0.530694
O30   O     O_R   0.833370 0.597450 0.280410 -0.544428
O31   O     O_R   0.902550 0.666630 0.780410 -0.545222
O32   O     O_R   0.097450 0.333370 0.219590 -0.533123
O33   O     O_R   0.333370 0.902550 0.780410 -0.533472
O34   O     O_3   0.000000 0.500000 0.750000 -0.444387
O35   O     O_R   0.666630 0.097450 0.219590 -0.521868
O36   O     O_R   0.097450 0.333370 0.780410 -0.542626
O37   O     O_R   0.902550 0.666630 0.219590 -0.518616
O38   O     O_R   0.666630 0.097450 0.780410 -0.528531
O39   O     O_R   0.333370 0.902550 0.219590 -0.520834
O40   O     O_R   0.902550 0.333370 0.219590 -0.536776
O41   O     O_R   0.097450 0.666630 0.780410 -0.560283
O42   O     O_R   0.333370 0.097450 0.219590 -0.550955
O43   O     O_R   0.666630 0.902550 0.780410 -0.548491
O44   O     O_R   0.097450 0.666630 0.219590 -0.531053
O45   O     O_R   0.500000 0.930770 0.365860 -0.511046
O46   O     O_R   0.902550 0.333370 0.780410 -0.515591
O47   O     O_R   0.666630 0.902550 0.219590 -0.533780
O48   O     O_R   0.333370 0.097450 0.780410 -0.546768
O49   O     O_2   0.276357 0.849609 0.106920 -0.535284
O50   O     O_2   0.691040 0.803416 0.906479 -0.537827
O51   O     O_2   0.172939 0.319286 0.087070 -0.546766
O52   O     O_2   0.823743 0.588080 0.892497 -0.514059
O53   O     O_2   0.713463 0.137067 0.088935 -0.520984
O54   O     O_2   0.369803 0.844250 0.895529 -0.511715
O55   O     O_2   0.834812 0.714667 0.106699 -0.527721
O56   O     O_R   0.500000 0.069230 0.634140 -0.543045
O57   O     O_2   0.855396 0.274834 0.893733 -0.523221
O58   O     O_2   0.772280 0.362441 0.581935 -0.565217
O59   O     O_2   0.134570 0.303363 0.379760 -0.532260
O60   O     O_2   0.600013 0.777880 0.614340 -0.525360
O61   O     O_2   0.687684 0.181434 0.383855 -0.527324
O62   O     O_2   0.248410 0.570542 0.594776 -0.545201
O63   O     O_2   0.843829 0.714253 0.425507 -0.531594
O64   O     O_2   0.672983 0.089172 0.608817 -0.519640
O65   O     O_2   0.328999 0.849013 0.390284 -0.513421
O66   O     O_R   0.069230 0.500000 0.365860 -0.534061
O67   O     O_R   0.930770 0.500000 0.634140 -0.559148
O68   O     O_R   0.500000 0.069230 0.365860 -0.564314
Zn1   Zn    Zn3+2 0.401050 0.000000 0.206670 0.937031
Zn2   Zn    Zn3+2 0.098950 0.500000 0.293330 0.953083
Zn3   Zn    Zn3+2 0.500000 0.901050 0.706670 0.994758
Zn4   Zn    Zn3+2 0.500000 0.098950 0.293330 0.930202
Zn5   Zn    Zn3+2 0.098950 0.500000 0.706670 0.967820
Zn6   Zn    Zn3+2 0.901050 0.500000 0.293330 0.944503
Zn7   Zn    Zn3+2 0.500000 0.098950 0.706670 0.949710
Zn8   Zn    Zn3+2 0.500000 0.901050 0.293330 0.978507
Zn9   Zn    Zn3+2 0.598950 1.000000 0.793330 0.957967
Zn10  Zn    Zn3+2 0.000000 0.401050 0.206670 0.953280
Zn11  Zn    Zn3+2 1.000000 0.598950 0.793330 0.934214
Zn12  Zn    Zn3+2 0.598950 0.000000 0.206670 0.956464
Zn13  Zn    Zn3+2 0.401050 1.000000 0.793330 0.949040
Zn14  Zn    Zn3+2 0.000000 0.598950 0.206670 0.950483
Zn15  Zn    Zn3+2 0.000000 0.401050 0.793330 0.961673
Zn16  Zn    Zn3+2 0.901050 0.500000 0.706670 0.948091

loop_
_geom_bond_atom_site_label_1
_geom_bond_atom_site_label_2
_ccdc_geom_bond_type
C54   O42   A    
C40   H64   S    
C56   O40   A    
C37   H62   S    
O36   Zn15  S    
O14   Zn4   S    
C19   C20   S    
C32   H52   S    
C15   H7    S    
C41   H74   S    
O66   Zn2   S    
C1    C129  A    
O18   Zn8   S    
C92   C109  A    
C11   O61   D    
O1    Zn4   S    
C19   C113  S    
C34   H57   S    
O2    Zn3   S    
C69   O39   A    
C94   C111  A    
C95   C133  A    
C103  C126  A    
C107  C113  A    
C97   C115  A    
O4    Zn5   S    
O23   Zn6   S    
C93   C110  A    
C8    H89   S    
C25   H27   S    
C142  O49   D    
O56   Zn7   S    
C38   H60   S    
C21   C22   S    
C55   O43   A    
C96   C114  A    
O27   Zn7   S    
C12   H5    S    
C5    C95   S    
C5    H56   S    
C45   C47   S    
C144  O51   D    
C34   C120  S    
C137  C140  A    
C35   O5    A    
C116  C121  A    
C99   C129  A    
C30   C109  S    
C13   O66   A    
C36   H53   S    
C126  C129  A    
O1    Zn8   S    
C59   O47   A    
C40   H65   S    
C60   O48   A    
C19   H18   S    
C68   C131  A    
C43   C44   S    
C37   C38   S    
C78   C82   T    
O34   Zn5   S    
O35   Zn12  S    
C123  C141  A    
C118  C124  A    
C67   O38   A    
C37   C121  S    
C8    O58   D    
C33   H50   S    
C133  C139  A    
C57   C126  A    
C7    C97   S    
O20   Zn2   S    
O47   Zn12  S    
C27   H32   S    
C100  C132  A    
C108  C111  A    
C5    O54   D    
C47   H82   S    
C28   C108  S    
C68   C134  S    
C55   O15   A    
C24   O4    A    
O28   Zn8   S    
C20   H16   S    
C31   H43   S    
O31   Zn11  S    
C61   O20   A    
C102  C119  A    
C112  C140  A    
C44   H76   S    
C59   C82   S    
C101  C139  A    
C23   H30   S    
C26   H35   S    
C39   C122  S    
C50   H95   S    
C11   H4    S    
O6    Zn14  S    
C66   C74   S    
C9    H2    S    
C22   H20   S    
O41   Zn11  S    
C49   H86   S    
C8    C98   S    
C97   C136  A    
C42   H71   S    
O43   Zn9   S    
C134  O68   A    
C98   C116  A    
C63   O33   A    
C46   O10   A    
C24   C57   S    
C59   O18   A    
C17   H13   S    
C110  C114  A    
C18   H10   S    
C54   O14   A    
O32   Zn10  S    
C3    O52   D    
C112  C136  A    
C17   C111  S    
C62   O21   A    
C90   C138  A    
C94   C135  A    
C91   C143  S    
C101  C135  A    
C64   O35   A    
C70   O36   A    
C29   H38   S    
C39   H69   S    
C144  H23   S    
C57   C130  A    
C4    O53   D    
C46   O6    A    
C39   C40   S    
C54   C86   S    
C6    O55   D    
C6    H67   S    
O34   Zn15  S    
C22   H22   S    
C69   C72   S    
C43   H79   S    
C62   O46   A    
O23   Zn10  S    
C21   C114  S    
C43   C116  S    
C99   C117  A    
C91   C138  A    
O15   Zn3   S    
C60   C81   S    
C20   H17   S    
C17   C18   S    
C3    C93   S    
C19   H19   S    
C92   C141  A    
C2    O2    A    
C56   O16   A    
C106  C124  A    
C63   O22   A    
C45   C117  S    
O1    Zn12  S    
O9    Zn11  S    
C41   H73   S    
O8    Zn1   S    
C123  C137  A    
O33   Zn13  S    
C49   H88   S    
C28   H40   S    
O25   Zn16  S    
C58   C83   S    
O23   Zn14  S    
C34   H58   S    
C21   H25   S    
C105  C122  A    
C51   H94   S    
C34   C36   S    
O67   Zn16  S    
C30   H46   S    
O26   Zn2   S    
C48   H91   S    
C47   H83   S    
C16   O65   D    
C35   C112  S    
O68   Zn4   S    
O48   Zn13  S    
O19   Zn7   S    
C25   H26   S    
O42   Zn1   S    
C38   H61   S    
O37   Zn14  S    
C41   C42   S    
C52   C90   S    
C103  C120  A    
C65   O25   A    
C76   C84   T    
C26   C27   S    
C71   O37   A    
C32   C110  S    
C41   C124  S    
C28   C29   S    
C3    H34   S    
C36   H54   S    
C30   C31   S    
O29   Zn5   S    
C89   C142  S    
C40   H66   S    
C73   C87   T    
C2    C79   S    
C75   C85   T    
C104  C125  A    
O7    Zn9   S    
C53   C101  S    
C36   H55   S    
O39   Zn1   S    
C14   O63   D    
C67   C73   S    
O46   Zn15  S    
C7    O57   D    
C33   H49   S    
C37   H63   S    
C142  H1    S    
C53   O13   A    
C32   H51   S    
C56   C84   S    
C70   C80   S    
C2    O56   A    
C102  C131  A    
C12   C103  S    
C117  C120  A    
C27   H31   S    
C90   C133  A    
O11   Zn13  S    
C70   O29   A    
C51   H92   S    
C55   C85   S    
O44   Zn14  S    
O5    Zn15  S    
C143  O50   D    
C47   H81   S    
O45   Zn8   S    
C89   C107  A    
C50   C51   S    
C16   H8    S    
C10   C100  S    
C21   H24   S    
C68   C127  A    
C25   H28   S    
C48   C49   S    
C38   H59   S    
C46   C123  S    
C100  C118  A    
C52   O7    A    
C91   C108  A    
C27   H33   S    
O12   Zn13  S    
C64   O24   A    
C23   H29   S    
C58   O41   A    
C26   H36   S    
C62   C87   S    
C32   C33   S    
C15   C105  S    
C50   H96   S    
C53   O8    A    
C93   C140  A    
O38   Zn9   S    
C24   O67   A    
C71   O30   A    
C106  C127  A    
C11   C102  S    
O34   Zn11  S    
O10   Zn10  S    
C9    O59   D    
C42   H72   S    
C10   O60   D    
C14   H6    S    
O12   Zn3   S    
O24   Zn4   S    
C48   H90   S    
C18   H11   S    
C135  C138  A    
C79   C128  A    
O22   Zn3   S    
C69   O28   A    
C136  C141  A    
C29   H37   S    
C33   H48   S    
C60   O19   A    
C1    C125  A    
C128  C131  A    
C77   C83   T    
O34   Zn16  S    
C35   O9    A    
C134  O45   A    
C127  C132  A    
C22   H21   S    
C125  C130  A    
C89   C139  A    
C20   H15   S    
C31   H44   S    
C39   H68   S    
O12   Zn7   S    
C66   O26   A    
C16   C106  S    
C10   H3    S    
C9    C99   S    
C98   C130  A    
C44   H75   S    
C45   H85   S    
O21   Zn16  S    
C65   O31   A    
C72   C88   T    
O30   Zn6   S    
O1    Zn1   S    
C58   O17   A    
C50   C119  S    
C61   O44   A    
C96   C137  A    
C7    H78   S    
C48   C118  S    
C104  C121  A    
C45   H84   S    
C49   H87   S    
C42   H70   S    
C61   C88   S    
O17   Zn5   S    
C67   O27   A    
C14   C104  S    
C64   C76   S    
C51   H93   S    
C30   H47   S    
C74   C86   T    
C17   H14   S    
C18   H9    S    
C4    C94   S    
C6    C96   S    
O16   Zn6   S    
C1    C13   S    
C63   C77   S    
C119  C122  A    
O40   Zn10  S    
C29   H39   S    
C105  C128  A    
C4    H45   S    
C80   C81   T    
C26   C107  S    
C65   C75   S    
C43   H80   S    
C28   H41   S    
C143  H12   S    
C13   O3    A    
C15   O64   D    
C95   C113  A    
C79   C132  A    
C31   H42   S    
O12   Zn9   S    
O13   Zn12  S    
C23   C25   S    
C92   C144  S    
C52   O11   A    
C66   O32   A    
C109  C115  A    
C23   C115  S    
C12   O62   D    
O3    Zn6   S    
C44   H77   S    
O23   Zn2   S    
C71   C78   S    
