data_mof_unit_67201.cif
_audit_creation_date              2013-03-05T16:01:22-0500
_audit_creation_method            fapswitch 2.2
_symmetry_space_group_name_H-M    P1
_symmetry_Int_Tables_number       1
_space_group_crystal_system       triclinic
_cell_length_a                    20.189943
_cell_length_b                    20.163832
_cell_length_c                    8.40014
_cell_angle_alpha                 89.999959
_cell_angle_beta                  92.33979
_cell_angle_gamma                 90.001639
_cell_volume                      3416.90148845

loop_
_atom_site_label
_atom_site_type_symbol
_atom_site_description
_atom_site_fract_x
_atom_site_fract_y
_atom_site_fract_z
_atom_type_partial_charge
P1    P     P_3+3 0.136530 0.426510 0.931350 0.466670
P2    P     P_3+3 0.136530 0.573490 0.431350 0.466671
P3    P     P_3+3 0.636530 0.926510 0.931350 0.466690
P4    P     P_3+3 0.636530 0.073490 0.431350 0.466687
O1    O     O_2   0.130070 0.404060 0.104920 -0.373619
O2    O     O_2   0.130070 0.595940 0.604920 -0.373626
O3    O     O_2   0.630070 0.904060 0.104920 -0.373618
O4    O     O_2   0.630070 0.095940 0.604920 -0.373568
O5    O     O_3   0.075780 0.466370 0.861070 -0.411752
O6    O     O_3   0.075780 0.533630 0.361070 -0.411755
O7    O     O_3   0.575780 0.966370 0.861070 -0.411743
O8    O     O_3   0.575780 0.033630 0.361070 -0.411752
O9    O     O_3   0.022320 0.344950 0.359800 -0.325579
O10   O     O_3   0.022320 0.655050 0.859800 -0.325574
O11   O     O_3   0.522320 0.844950 0.359800 -0.325566
O12   O     O_3   0.522320 0.155050 0.859800 -0.325743
O13   O     O_2   0.134956 0.299364 0.253711 -0.402651
O14   O     O_2   0.134954 0.700640 0.753703 -0.402649
O15   O     O_2   0.634961 0.799369 0.253733 -0.402641
O16   O     O_2   0.634976 0.200607 0.753684 -0.402624
O17   O     O_3   0.206592 0.477754 0.942607 -0.537587
O18   O     O_3   0.206591 0.522249 0.442603 -0.537587
O19   O     O_3   0.706596 0.977748 0.942593 -0.537598
O20   O     O_3   0.706588 0.022243 0.442611 -0.537600
O21   O     O_3   0.050718 0.206943 0.310141 -0.551683
O22   O     O_3   0.050714 0.793056 0.810131 -0.551682
O23   O     O_3   0.550713 0.706945 0.310090 -0.551589
O24   O     O_3   0.550770 0.293048 0.810089 -0.551830
C1    C     C_3   0.017406 0.097411 0.395762 -0.045576
C2    C     C_3   0.017403 0.902586 0.895756 -0.045585
C3    C     C_3   0.517408 0.597412 0.395734 -0.045671
C4    C     C_3   0.517484 0.402561 0.895947 -0.045896
H1    H     H_    0.056056 0.082445 0.312799 0.148687
H2    H     H_    0.056052 0.917554 0.812790 0.148689
H3    H     H_    0.556058 0.582457 0.312757 0.148723
H4    H     H_    0.556111 0.417554 0.812936 0.149105
P5    P     P_3+3 0.863410 0.426100 0.379280 0.497237
P6    P     P_3+3 0.863410 0.573900 0.879280 0.497198
P7    P     P_3+3 0.363410 0.926100 0.379280 0.497243
P8    P     P_3+3 0.363410 0.073900 0.879280 0.497210
P9    P     P_3+3 0.915997 0.284442 0.933533 0.541825
P10   P     P_3+3 0.915994 0.715554 0.433536 0.541841
P11   P     P_3+3 0.415990 0.784446 0.933540 0.541822
P12   P     P_3+3 0.416009 0.215574 0.433563 0.541723
O25   O     O_2   0.869860 0.403670 0.205810 -0.360262
O26   O     O_2   0.869860 0.596330 0.705810 -0.360233
O27   O     O_2   0.369860 0.903670 0.205810 -0.360231
O28   O     O_2   0.369860 0.096330 0.705810 -0.360258
O29   O     O_3   0.977590 0.344880 0.951200 -0.389698
O30   O     O_3   0.977590 0.655120 0.451200 -0.389703
O31   O     O_3   0.477590 0.844880 0.951200 -0.389609
O32   O     O_3   0.477590 0.155120 0.451200 -0.389652
O33   O     O_2   0.868533 0.294726 0.070597 -0.348642
O34   O     O_2   0.868529 0.705269 0.570599 -0.348564
O35   O     O_2   0.368515 0.794747 0.070572 -0.348615
O36   O     O_2   0.368536 0.205268 0.570597 -0.348723
O37   O     O_3   0.792706 0.475962 0.365506 -0.513540
O38   O     O_3   0.792707 0.524032 0.865503 -0.513651
O39   O     O_3   0.292708 0.975966 0.365500 -0.513573
O40   O     O_3   0.292703 0.024037 0.865511 -0.513543
O41   O     O_3   0.951343 0.206975 0.975528 -0.435975
O42   O     O_3   0.951341 0.793023 0.475532 -0.435982
O43   O     O_3   0.451325 0.706980 0.975603 -0.435984
O44   O     O_3   0.451381 0.293033 0.475650 -0.436228
C5    C     C_3   0.014932 0.203742 0.913369 0.254042
C6    C     C_3   0.014926 0.796261 0.413356 0.254016
C7    C     C_3   0.514872 0.703696 0.913234 0.253788
C8    C     C_3   0.514953 0.296256 0.413378 0.253532
H5    H     H_    0.049669 0.236502 0.983000 0.103457
H6    H     H_    0.049667 0.763506 0.482980 0.103453
H7    H     H_    0.549669 0.736433 0.982757 0.103339
H8    H     H_    0.549707 0.263516 0.483005 0.103544
H9    H     H_    0.014062 0.219027 0.786308 0.038677
H10   H     H_    0.014051 0.780975 0.286296 0.038677
H11   H     H_    0.513945 0.718981 0.786170 0.038716
H12   H     H_    0.514052 0.280935 0.286339 0.038888
C9    C     C_3   0.039658 0.132246 0.928416 0.576454
C10   C     C_3   0.039649 0.867760 0.428391 0.576442
C11   C     C_3   0.539553 0.632181 0.928194 0.576304
C12   C     C_3   0.539691 0.367756 0.428240 0.576538
H13   H     H_    0.043713 0.118151 0.055406 0.108199
H14   H     H_    0.043707 0.881858 0.555380 0.108201
H15   H     H_    0.543686 0.618089 0.055186 0.108164
H16   H     H_    0.543798 0.381896 0.555201 0.108523
C13   C     C_3   0.808745 0.460020 0.816833 0.325696
C14   C     C_3   0.808741 0.539974 0.316831 0.325736
C15   C     C_3   0.308736 0.960024 0.816843 0.325683
C16   C     C_3   0.308748 0.039980 0.316845 0.325637
H17   H     H_    0.835280 0.461907 0.704155 0.026563
H18   H     H_    0.835294 0.538089 0.204177 0.026537
H19   H     H_    0.335284 0.961907 0.704182 0.026536
H20   H     H_    0.335302 0.038099 0.204190 0.026562
H21   H     H_    0.839795 0.434636 0.910402 0.096523
H22   H     H_    0.839774 0.565368 0.410419 0.096473
H23   H     H_    0.339774 0.934635 0.910427 0.096508
H24   H     H_    0.339784 0.065367 0.410438 0.096540
C17   C     C_3   0.744334 0.421391 0.788819 0.045709
C18   C     C_3   0.744328 0.578591 0.288749 0.045785
C19   C     C_3   0.244323 0.921402 0.788785 0.045780
C20   C     C_3   0.244338 0.078603 0.288777 0.045812
H25   H     H_    0.717026 0.440754 0.681149 0.205614
H26   H     H_    0.717046 0.559226 0.181043 0.205570
H27   H     H_    0.217033 0.940766 0.681091 0.205646
H28   H     H_    0.217048 0.059238 0.181081 0.205664
H29   H     H_    0.754889 0.368124 0.770405 0.031121
H30   H     H_    0.754879 0.631860 0.270359 0.031056
H31   H     H_    0.254875 0.868134 0.770386 0.031127
H32   H     H_    0.254893 0.131870 0.270377 0.031118
Ba1   Ba    Ba6+2 0.999980 0.452130 0.155200 1.607093
Ba2   Ba    Ba6+2 0.999980 0.547870 0.655200 1.607094
Ba3   Ba    Ba6+2 0.499980 0.952130 0.155200 1.607090
Ba4   Ba    Ba6+2 0.499980 0.047870 0.655200 1.607021
C21   C     C_3   0.189322 0.540982 0.995275 0.359653
C22   C     C_3   0.189320 0.459020 0.495271 0.359786
C23   C     C_3   0.689335 0.040975 0.995283 0.359602
C24   C     C_3   0.689311 0.959016 0.495274 0.359652
H33   H     H_    0.167102 0.537616 0.113249 0.093344
H34   H     H_    0.167104 0.462385 0.613249 0.093320
H35   H     H_    0.667125 0.037606 0.113269 0.093361
H36   H     H_    0.667090 0.962381 0.613247 0.093345
H37   H     H_    0.154126 0.565279 0.908541 0.125398
H38   H     H_    0.154122 0.434722 0.408542 0.125389
H39   H     H_    0.654135 0.065278 0.908570 0.125397
H40   H     H_    0.654113 0.934720 0.408538 0.125419
C25   C     C_3   0.252107 0.582739 0.010267 -0.781730
C26   C     C_3   0.252105 0.417265 0.510251 -0.781934
C27   C     C_3   0.752125 0.082726 0.010256 -0.781665
C28   C     C_3   0.752092 0.917255 0.510266 -0.781763
H41   H     H_    0.287195 0.560749 0.100890 0.302975
H42   H     H_    0.287195 0.439254 0.600872 0.302977
H43   H     H_    0.787220 0.060726 0.100848 0.302967
H44   H     H_    0.787181 0.939243 0.600892 0.302953
H45   H     H_    0.240297 0.633973 0.046815 0.188689
H46   H     H_    0.240294 0.366030 0.546796 0.188647
H47   H     H_    0.740324 0.133958 0.046836 0.188694
H48   H     H_    0.740276 0.866021 0.546809 0.188707
H49   H     H_    0.276230 0.584772 0.893845 0.266931
H50   H     H_    0.276225 0.415235 0.393825 0.266973
H51   H     H_    0.776236 0.084766 0.893818 0.266904
H52   H     H_    0.776216 0.915223 0.393844 0.266918
O45   O     O_3   0.924190 0.533610 0.949240 -0.410796
O46   O     O_3   0.924190 0.466390 0.449240 -0.410802
O47   O     O_3   0.424190 0.033610 0.949240 -0.410790
O48   O     O_3   0.424190 0.966390 0.449240 -0.410798
P13   P     P_3+3 0.083393 0.716676 0.878310 0.487264
P14   P     P_3+3 0.083394 0.283327 0.378318 0.487256
P15   P     P_3+3 0.583415 0.216656 0.878276 0.487150
P16   P     P_3+3 0.583389 0.783324 0.378310 0.487317
C29   C     C_3   0.022898 0.172072 0.436788 0.590719
C30   C     C_3   0.022891 0.827924 0.936775 0.590701
C31   C     C_3   0.522864 0.672080 0.436706 0.590664
C32   C     C_3   0.522892 0.327876 0.936710 0.590174
H53   H     H_    0.055316 0.175570 0.546394 -0.010150
H54   H     H_    0.055306 0.824425 0.046386 -0.010155
H55   H     H_    0.555248 0.675600 0.546362 -0.010223
H56   H     H_    0.555238 0.324303 0.046422 -0.009992
H57   H     H_    0.027192 0.068138 0.506316 0.188364
H58   H     H_    0.027191 0.931857 0.006311 0.188379
H59   H     H_    0.527215 0.568158 0.506312 0.188488
H60   H     H_    0.527361 0.431753 0.006583 0.188389
C33   C     C_R   0.239339 0.303391 0.009170 -0.059684
C34   C     C_R   0.239337 0.696608 0.509152 -0.059628
C35   C     C_R   0.739329 0.803383 0.009163 -0.059637
C36   C     C_R   0.739350 0.196598 0.509134 -0.059634
C37   C     C_R   0.150391 0.347233 0.821671 0.251415
C38   C     C_R   0.150388 0.652766 0.321661 0.251400
C39   C     C_R   0.650380 0.847227 0.821673 0.251451
C40   C     C_R   0.650398 0.152759 0.321647 0.251398
C41   C     C_R   0.112185 0.337399 0.680652 -0.496069
C42   C     C_R   0.112181 0.662598 0.180641 -0.496069
C43   C     C_R   0.612174 0.837394 0.680652 -0.496061
C44   C     C_R   0.612196 0.162589 0.180621 -0.496153
C45   C     C_R   0.126550 0.286154 0.575697 0.171242
C46   C     C_R   0.126545 0.713847 0.075690 0.171234
C47   C     C_R   0.626530 0.786141 0.575708 0.171195
C48   C     C_R   0.626571 0.213828 0.075653 0.171344
C49   C     C_R   0.177010 0.241239 0.615137 -0.235463
C50   C     C_R   0.177002 0.758766 0.115136 -0.235453
C51   C     C_R   0.676975 0.741214 0.615170 -0.235365
C52   C     C_R   0.677035 0.258740 0.115087 -0.235326
C53   C     C_R   0.212627 0.245758 0.761739 0.092879
C54   C     C_R   0.212618 0.754249 0.261737 0.092910
C55   C     C_R   0.712590 0.745729 0.761774 0.092875
C56   C     C_R   0.712644 0.254228 0.261699 0.092892
C57   C     C_R   0.200830 0.299731 0.865610 -0.041105
C58   C     C_R   0.200825 0.700271 0.365600 -0.041095
C59   C     C_R   0.700809 0.799715 0.865622 -0.041117
C60   C     C_R   0.700842 0.200259 0.365577 -0.041099
H61   H     H_    0.073901 0.372800 0.646537 0.169087
H62   H     H_    0.073899 0.627194 0.146524 0.169096
H63   H     H_    0.573899 0.872804 0.646525 0.169081
H64   H     H_    0.573908 0.127189 0.146512 0.169111
C61   C     C_R   0.797460 0.699561 0.948654 -0.012668
C62   C     C_R   0.797487 0.300419 0.448620 -0.012569
C63   C     C_R   0.297488 0.199582 0.948636 -0.012573
C64   C     C_R   0.297475 0.800428 0.448637 -0.012579
C65   C     C_R   0.785270 0.753236 0.053374 0.084146
C66   C     C_R   0.785289 0.246747 0.553349 0.084158
C67   C     C_R   0.285282 0.253246 0.053380 0.084209
C68   C     C_R   0.285278 0.746756 0.553364 0.084216
C69   C     C_R   0.847910 0.651986 0.992058 0.280433
C70   C     C_R   0.847921 0.348008 0.492049 0.280423
C71   C     C_R   0.347933 0.152002 0.992045 0.280240
C72   C     C_R   0.347917 0.848011 0.492054 0.280430
C73   C     C_R   0.884722 0.660558 0.135219 -0.494059
C74   C     C_R   0.884726 0.339444 0.635224 -0.494121
C75   C     C_R   0.384744 0.160576 0.135215 -0.494250
C76   C     C_R   0.384727 0.839441 0.635219 -0.494080
C77   C     C_R   0.869377 0.710754 0.241851 0.232659
C78   C     C_R   0.869381 0.289243 0.741848 0.232697
C79   C     C_R   0.369390 0.210767 0.241864 0.232917
C80   C     C_R   0.369382 0.789241 0.741845 0.232540
C81   C     C_R   0.819241 0.756326 0.202519 -0.149923
C82   C     C_R   0.819250 0.243666 0.702507 -0.149967
C83   C     C_R   0.319239 0.256325 0.202546 -0.149976
C84   C     C_R   0.319242 0.743671 0.702517 -0.149966
C85   C     C_R   0.759806 0.696532 0.804058 -0.000233
C86   C     C_R   0.759857 0.303428 0.303989 0.000113
C87   C     C_R   0.259848 0.196565 0.804018 0.000062
C88   C     C_R   0.259835 0.803446 0.304021 0.000046
H65   H     H_    0.188312 0.202804 0.530948 0.191135
H66   H     H_    0.188303 0.797205 0.030951 0.191138
H67   H     H_    0.688270 0.702772 0.530991 0.191175
H68   H     H_    0.688342 0.297172 0.030891 0.191147
H69   H     H_    0.808676 0.795597 0.285853 0.149693
H70   H     H_    0.808682 0.204395 0.785841 0.149688
H71   H     H_    0.308661 0.295587 0.285893 0.149624
H72   H     H_    0.308672 0.704402 0.785854 0.149687
H73   H     H_    0.923520 0.625540 0.168233 0.159825
H74   H     H_    0.923516 0.374469 0.668250 0.159835
H75   H     H_    0.423542 0.125559 0.168226 0.159872
H76   H     H_    0.423522 0.874463 0.668239 0.159839
H77   H     H_    0.234042 0.344827 0.088979 0.171777
H78   H     H_    0.234046 0.655168 0.588951 0.171760
H79   H     H_    0.734045 0.844828 0.088953 0.171759
H80   H     H_    0.734056 0.155159 0.588937 0.171764
H81   H     H_    0.765775 0.655525 0.723366 0.196038
H82   H     H_    0.765828 0.344432 0.223290 0.196056
H83   H     H_    0.265821 0.155563 0.723315 0.196022
H84   H     H_    0.265805 0.844452 0.223327 0.196020
N1    N     N_R   0.957593 0.198613 0.468903 0.213680
O49   O     O_R   0.926221 0.235002 0.362649 -0.317369
O50   O     O_R   0.924858 0.172748 0.583309 -0.402433
N2    N     N_R   0.957584 0.801380 0.968877 0.213686
O51   O     O_R   0.926219 0.764981 0.862632 -0.317339
O52   O     O_R   0.924844 0.827245 0.083272 -0.402426
N3    N     N_R   0.457540 0.698606 0.468695 0.213705
O53   O     O_R   0.426219 0.735050 0.362482 -0.317341
O54   O     O_R   0.424768 0.672740 0.583044 -0.402508
N4    N     N_R   0.457550 0.301354 0.968520 0.213614
O55   O     O_R   0.426136 0.265184 0.861887 -0.317422
O56   O     O_R   0.424840 0.327082 0.083135 -0.402662
Cl1   Cl    Cl    0.692912 0.429613 0.955534 -0.582244
Cl2   Cl    Cl    0.692868 0.570353 0.455393 -0.582134
Cl3   Cl    Cl    0.192875 0.929633 0.955452 -0.582172
Cl4   Cl    Cl    0.192886 0.070374 0.455439 -0.582188
N5    N     N_R   0.951709 0.079719 0.328296 0.298387
O57   O     O_R   0.932463 0.099987 0.187093 -0.290900
O58   O     O_R   0.909915 0.048211 0.414804 -0.236954
N6    N     N_R   0.951706 0.920278 0.828296 0.298387
O59   O     O_R   0.909913 0.951785 0.914807 -0.236955
O60   O     O_R   0.932464 0.900029 0.687067 -0.290887
N7    N     N_R   0.451716 0.579678 0.328310 0.298387
O61   O     O_R   0.432470 0.599865 0.187014 -0.290930
O62   O     O_R   0.409954 0.548127 0.414817 -0.236488
N8    N     N_R   0.451776 0.420378 0.828793 0.298538
O63   O     O_R   0.432919 0.401378 0.686131 -0.290753
O64   O     O_R   0.409892 0.451492 0.915848 -0.236789
Cl5   Cl    Cl    0.119039 0.121607 0.849877 -0.658152
Cl6   Cl    Cl    0.119028 0.878404 0.349839 -0.658168
Cl7   Cl    Cl    0.618873 0.621491 0.849334 -0.658139
Cl8   Cl    Cl    0.619050 0.378361 0.349568 -0.658312
Cl9   Cl    Cl    0.983880 0.077026 0.827356 -0.463251
Cl10  Cl    Cl    0.983866 0.922971 0.327330 -0.463250
Cl11  Cl    Cl    0.483661 0.576998 0.827352 -0.462632
Cl12  Cl    Cl    0.483899 0.422930 0.327077 -0.462754

loop_
_geom_bond_atom_site_label_1
_geom_bond_atom_site_label_2
_geom_bond_distance
_ccdc_geom_bond_type
C8    C12   1.529188 S    
O10   Ba2   2.786490 S    
C79   C83   1.396761 A    
P11   O43   1.747338 S    
C16   H24   1.110203 S    
P1    O17   1.751158 S    
P8    O40   1.746037 S    
C63   C71   1.435405 A    
C15   H19   1.107155 S    
C10   H14   1.103754 S    
C74   H74   1.082286 S    
P3    O19   1.751153 S    
Ba3   Ba4   4.622485 S    
C41   H61   1.082154 S    
P4    O4    1.537288 D    
O14   P13   1.540412 D    
P11   O31   1.743156 S    
C63   C87   1.407698 A    
P3    C39   1.871831 S    
N7    O61   1.299145 A    
P8    Ba4   3.441707 S    
C6    H6    1.112115 S    
P12   O44   1.747501 S    
C54   C88   1.411160 A    
O10   P13   1.752985 S    
C84   H72   1.083867 S    
O1    Ba1   2.847307 S    
O12   P15   1.753008 S    
C67   C83   1.404922 A    
O44   C8    1.407159 S    
Ba4   O47   2.972128 S    
C35   C59   1.409820 A    
C22   H34   1.106457 S    
C9    Cl9   1.774968 S    
C27   H47   1.106495 S    
N1    O49   1.300024 A    
P3    O3    1.537286 D    
O4    Ba4   2.847256 S    
C52   C56   1.403424 A    
C31   N3    1.458346 S    
O11   P16   1.752994 S    
P4    O20   1.751163 S    
C61   C65   1.422489 A    
C2    C30   1.547353 S    
C36   H80   1.079263 S    
O32   Ba4   2.784672 S    
C16   H20   1.107155 S    
N4    O56   1.297747 A    
C6    H10   1.110386 S    
P14   C45   1.842132 S    
C1    H1    1.109100 S    
O30   Ba2   2.784672 S    
C5    H9    1.110386 S    
O37   C14   1.395982 S    
O6    Ba1   2.795908 S    
C3    N7    1.465059 S    
N5    O57   1.298956 A    
C54   C58   1.421066 A    
C87   H83   1.079037 S    
Ba2   O46   2.796014 S    
C29   H53   1.109889 S    
O39   C16   1.395988 S    
N2    O52   1.297773 A    
O9    Ba1   2.786509 S    
C14   H22   1.110207 S    
P1    Ba1   3.439004 S    
P6    O38   1.746032 S    
C13   H21   1.110210 S    
C13   H17   1.107148 S    
C20   H28   1.110741 S    
C32   H56   1.109892 S    
C72   C76   1.398389 A    
P3    Ba3   3.439004 S    
O23   P16   1.761975 S    
P6    C69   1.870492 S    
C12   Cl12  1.774991 S    
O7    Ba4   2.795956 S    
C53   C87   1.411176 A    
C33   C57   1.409832 A    
P5    C70   1.870492 S    
C4    N8    1.464989 S    
Ba1   O46   2.972137 S    
P9    O41   1.747333 S    
P6    Ba2   3.441707 S    
C26   H50   1.110944 S    
N2    O51   1.300017 A    
P2    C38   1.871776 S    
O25   Ba1   2.851019 S    
C15   C19   1.525853 S    
C64   C68   1.422483 A    
P10   O42   1.747330 S    
C17   H29   1.107086 S    
C86   H82   1.079031 S    
P12   O32   1.743196 S    
C30   N2    1.458347 S    
P4    Ba4   3.438977 S    
C23   C27   1.522693 S    
C39   C59   1.435297 A    
C55   C85   1.411182 A    
C21   C25   1.522694 S    
P7    C72   1.870489 S    
C75   C79   1.394857 A    
O2    Ba2   2.847256 S    
C73   C77   1.394789 A    
P2    O2    1.537288 D    
C27   H51   1.110944 S    
O9    P14   1.753019 S    
C49   H65   1.079830 S    
C14   C18   1.525854 S    
C28   H44   1.110832 S    
P9    O29   1.743119 S    
C76   C80   1.394795 A    
C64   C88   1.407680 A    
O40   C15   1.395990 S    
C36   C66   1.411586 A    
C51   C55   1.403423 A    
C44   H64   1.082153 S    
N3    O54   1.297811 A    
C37   C41   1.401061 A    
P5    O37   1.746030 S    
C6    C10   1.529190 S    
O43   C7    1.407078 S    
C20   H32   1.107082 S    
P16   C47   1.842142 S    
C23   H39   1.110654 S    
P5    O46   1.565982 S    
C2    H2    1.109101 S    
C43   H63   1.082153 S    
C12   H16   1.103791 S    
C49   C53   1.403433 A    
P1    O5    1.562000 S    
C80   C84   1.396728 A    
O22   C30   1.410822 S    
O42   C6    1.407082 S    
C13   C17   1.525844 S    
C74   C78   1.394793 A    
C62   C86   1.407678 A    
C19   H27   1.110742 S    
C14   H18   1.107154 S    
C34   C58   1.409814 A    
C26   H42   1.110831 S    
C53   C57   1.421067 A    
P15   C48   1.842115 S    
C1    H57   1.111256 S    
P9    O33   1.541764 D    
C5    H5    1.112117 S    
N4    O55   1.300042 A    
C78   C82   1.396735 A    
C43   C47   1.396443 A    
C11   Cl7   1.771038 S    
C24   H36   1.106455 S    
C56   C60   1.421058 A    
N1    O50   1.297776 A    
O20   C24   1.398339 S    
C31   H55   1.109868 S    
O22   P13   1.761958 S    
C61   C85   1.407693 A    
P2    O18   1.751159 S    
O11   Ba3   2.786509 S    
C15   H23   1.110206 S    
C5    C9    1.529194 S    
C3    C31   1.547339 S    
C64   C72   1.435388 A    
P12   O36   1.541755 D    
C17   H25   1.110744 S    
C4    C32   1.547247 S    
P8    C71   1.870630 S    
C9    H13   1.103751 S    
C8    H8    1.112114 S    
P7    O39   1.746039 S    
N6    O60   1.298997 A    
O16   P15   1.540379 D    
C7    C11   1.529213 S    
C16   C20   1.525856 S    
Ba4   O48   2.796014 S    
P13   C46   1.842115 S    
P11   C80   1.834143 S    
C34   C68   1.411583 A    
C50   C54   1.403416 A    
P10   C77   1.834163 S    
N8    O64   1.301541 A    
Ba3   O48   2.972137 S    
P10   O30   1.743154 S    
C21   H33   1.106457 S    
P9    C78   1.834148 S    
O17   C21   1.398336 S    
O28   Ba4   2.851074 S    
C33   C67   1.411609 A    
C76   H76   1.082286 S    
C38   C42   1.401069 A    
C23   H35   1.106458 S    
O26   Ba2   2.851074 S    
C25   H41   1.110832 S    
C24   C28   1.522696 S    
C2    N6    1.465066 S    
P6    O45   1.566018 S    
C9    Cl5   1.770946 S    
P4    O8    1.561961 S    
C10   Cl10  1.774967 S    
P5    O25   1.536347 D    
P2    O6    1.561961 S    
O38   C13   1.395979 S    
C85   H81   1.079048 S    
P1    O1    1.537286 D    
C19   Cl3   1.784756 S    
C65   C81   1.404906 A    
O12   Ba4   2.786490 S    
P7    O27   1.536347 D    
C42   C46   1.396441 A    
C40   C44   1.401064 A    
C70   C74   1.398386 A    
O5    Ba2   2.795956 S    
C2    H58   1.111255 S    
C81   H69   1.083865 S    
C46   C50   1.392964 A    
P8    O28   1.536343 D    
P2    Ba2   3.438977 S    
O24   P15   1.761948 S    
C11   Cl11  1.775102 S    
C24   H40   1.110649 S    
C37   C57   1.435291 A    
C63   C67   1.422495 A    
C38   C58   1.435265 A    
P5    Ba1   3.441682 S    
P1    C37   1.871774 S    
C88   H84   1.079038 S    
C32   N4    1.458278 S    
O15   P16   1.540411 D    
O21   C29   1.410820 S    
O23   C31   1.410826 S    
N6    O59   1.301454 A    
C36   C60   1.409815 A    
C33   H77   1.079262 S    
C73   H73   1.082288 S    
C47   C51   1.392974 A    
N3    O53   1.299946 A    
C4    H4    1.109149 S    
O24   C32   1.410742 S    
P11   O35   1.541756 D    
C35   C65   1.411600 A    
Ba3   O47   2.796062 S    
C8    H12   1.110402 S    
C21   H37   1.110651 S    
C19   H31   1.107091 S    
C42   H62   1.082154 S    
O18   C22   1.398335 S    
C25   H45   1.106500 S    
O31   Ba3   2.784653 S    
C18   H30   1.107084 S    
C39   C43   1.401072 A    
C77   C81   1.396744 A    
Ba2   O45   2.972128 S    
C25   H49   1.110943 S    
P12   C79   1.834284 S    
C27   H43   1.110832 S    
C28   H48   1.106500 S    
O13   P14   1.540409 D    
C28   H52   1.110944 S    
O29   Ba1   2.784653 S    
C35   H79   1.079263 S    
N7    O62   1.301429 A    
Ba1   Ba2   4.622485 S    
P10   O34   1.541780 D    
C34   H78   1.079262 S    
C11   H15   1.103805 S    
C56   C86   1.411157 A    
C41   C45   1.396427 A    
C75   H75   1.082284 S    
C62   C66   1.422483 A    
C61   C69   1.435409 A    
C71   C75   1.398430 A    
O27   Ba3   2.851019 S    
C3    H3    1.109112 S    
P7    Ba3   3.441682 S    
C68   C84   1.404897 A    
C83   H71   1.083865 S    
O3    Ba3   2.847307 S    
C52   H68   1.079829 S    
C17   Cl1   1.784746 S    
C7    H7    1.112126 S    
C10   Cl6   1.770945 S    
O41   C5    1.407081 S    
C82   H70   1.083865 S    
C1    N5    1.465069 S    
P6    O26   1.536343 D    
C1    C29   1.547353 S    
P3    O7    1.562000 S    
N8    O63   1.300219 A    
C18   H26   1.110743 S    
C40   C60   1.435259 A    
O19   C23   1.398330 S    
C22   H38   1.110650 S    
P4    C40   1.871749 S    
C48   C52   1.392961 A    
O21   P14   1.761956 S    
C7    H11   1.110382 S    
P7    O48   1.565982 S    
C26   H46   1.106497 S    
C62   C70   1.435392 A    
C29   N1    1.458344 S    
C30   H54   1.109888 S    
P8    O47   1.566018 S    
C51   H67   1.079827 S    
C22   C26   1.522694 S    
C69   C73   1.398385 A    
C50   H66   1.079828 S    
Ba1   O45   2.796062 S    
C18   Cl2   1.784748 S    
N5    O58   1.301453 A    
C45   C49   1.392982 A    
C20   Cl4   1.784756 S    
C12   Cl8   1.770899 S    
O8    Ba3   2.795908 S    
C3    H59   1.111279 S    
C55   C59   1.421084 A    
C44   C48   1.396434 A    
C4    H60   1.111222 S    
C66   C82   1.404896 A    
