data_mof_unit_39215.cif
_audit_creation_date              2012-12-10T17:02:19-0500
_audit_creation_method            fapswitch 2.2
_symmetry_space_group_name_H-M    P1
_symmetry_Int_Tables_number       1
_space_group_crystal_system       triclinic
_cell_length_a                    10.701285
_cell_length_b                    10.651902
_cell_length_c                    10.046416
_cell_angle_alpha                 89.375579
_cell_angle_beta                  88.079255
_cell_angle_gamma                 91.234123
_cell_volume                      1144.19501125

loop_
_atom_site_label
_atom_site_type_symbol
_atom_type_description
_atom_site_fract_x
_atom_site_fract_y
_atom_site_fract_z
_atom_type_partial_charge
C1    C     C_R   0.498083 0.261914 0.500436 0.915137
C2    C     C_2   0.490834 0.128220 0.499836 -0.350262
C3    C     C_2   0.558554 0.584233 0.923525 0.259248
C4    C     C_R   0.259914 0.492976 0.502559 0.847155
C5    C     C_2   0.583299 0.560352 0.070627 0.233928
C6    C     C_R   0.487777 0.737038 0.499626 0.871159
C7    C     C_R   0.739136 0.495018 0.498064 0.862559
C8    C     C_R   0.110172 0.329702 0.696546 -0.273325
C9    C     C_R   0.034802 0.253273 0.783061 0.286583
C10   C     C_R   0.907893 0.239108 0.761245 -0.170028
C11   C     C_R   0.854191 0.307820 0.661030 -0.253679
C12   C     C_R   0.056299 0.403828 0.596277 0.066995
C13   C     C_R   0.925969 0.396942 0.583964 0.106861
C14   C     C_3   0.582030 0.813259 0.923550 -0.850831
C15   C     C_3   0.388702 0.314287 0.911373 -0.762838
C16   C     C_3   0.812616 0.594396 0.047938 -0.819102
C17   C     C_3   0.136478 0.072474 0.869762 -0.832955
C18   C     C_3   0.326779 0.831286 0.215324 -0.762110
C19   C     C_3   0.253642 0.856387 0.641894 -0.771364
C20   C     C_R   0.126284 0.484996 0.506891 -0.090219
C21   C     C_R   0.067866 0.559381 0.413234 -0.217270
C22   C     C_R   0.940524 0.558838 0.408974 -0.225318
C23   C     C_R   0.870397 0.480011 0.494567 -0.083759
C24   C     C_2   0.435057 0.934669 0.390244 0.204766
C25   C     C_2   0.439380 0.863106 0.501765 -0.005373
C26   C     C_2   0.431027 0.070386 0.402127 -0.195245
H1    H     H_    0.120906 0.621661 0.345622 0.152133
H2    H     H_    0.630728 0.819695 0.018961 0.246578
H3    H     H_    0.479961 0.823570 0.941196 0.244891
H4    H     H_    0.577888 0.329519 0.856967 0.242434
H5    H     H_    0.383855 0.256747 0.004232 0.222736
H6    H     H_    0.378649 0.250523 0.825745 0.249120
H7    H     H_    0.310833 0.381624 0.915021 0.224037
H8    H     H_    0.691289 0.672965 0.196452 0.243802
H9    H     H_    0.841539 0.688225 0.007117 0.232072
H10   H     H_    0.803350 0.526671 0.965213 0.244587
H11   H     H_    0.886917 0.560307 0.112655 0.252187
H12   H     H_    0.415714 0.483157 0.107805 0.166408
H13   H     H_    0.141993 0.250938 0.949720 0.225123
H14   H     H_    0.167897 0.030245 0.964152 0.241020
H15   H     H_    0.218136 0.082761 0.798979 0.256571
H16   H     H_    0.064422 0.008977 0.827812 0.253703
H17   H     H_    0.755717 0.291211 0.646040 0.160911
H18   H     H_    0.486544 0.942747 0.189820 0.219061
H19   H     H_    0.342876 0.779465 0.121452 0.227626
H20   H     H_    0.260094 0.907815 0.197679 0.219167
H21   H     H_    0.285062 0.764338 0.290513 0.249678
H22   H     H_    0.433511 0.888182 0.705334 0.247118
H23   H     H_    0.209233 0.329858 0.710017 0.176489
H24   H     H_    0.222339 0.866113 0.747307 0.233360
H25   H     H_    0.246629 0.754759 0.618648 0.241283
H26   H     H_    0.190764 0.909289 0.576980 0.252088
H27   H     H_    0.849961 0.176531 0.824051 0.146278
H28   H     H_    0.896389 0.623402 0.341985 0.158431
H29   H     H_    0.389345 0.123459 0.322525 0.166718
H30   H     H_    0.537202 0.077874 0.577984 0.144281
H31   H     H_    0.696318 0.687884 0.819539 0.236575
H32   H     H_    0.616553 0.892003 0.857948 0.232363
N1    N     N_2   0.501340 0.501330 0.852150 -0.064704
N2    N     N_2   0.501380 0.501360 0.147810 -0.212643
N3    N     N_2   0.606590 0.695445 0.858642 -0.259344
N4    N     N_2   0.507560 0.380450 0.901760 -0.264688
N5    N     N_2   0.696942 0.603672 0.125863 -0.266769
N6    N     N_2   0.084463 0.193695 0.895887 -0.311091
N7    N     N_2   0.444091 0.883016 0.259983 -0.298047
N8    N     N_2   0.380907 0.904016 0.623061 -0.313697
O1    O     O_R   0.499980 0.319060 0.613040 -0.633368
O2    O     O_R   0.500020 0.319100 0.386900 -0.600004
O3    O     O_R   0.316750 0.499980 0.613090 -0.619481
O4    O     O_R   0.316790 0.500020 0.386950 -0.623245
O5    O     O_R   0.499980 0.680900 0.613100 -0.589352
O6    O     O_R   0.500020 0.680940 0.386960 -0.599714
O7    O     O_R   0.683210 0.499980 0.613050 -0.632418
O8    O     O_R   0.683250 0.500020 0.386910 -0.597122
Zn1   Zn    Zn3+2 0.499970 0.499970 0.650990 0.938259
Zn2   Zn    Zn3+2 0.500030 0.500030 0.349010 0.947886

loop_
_geom_bond_atom_site_label_1
_geom_bond_atom_site_label_2
_ccdc_geom_bond_type
O5    Zn1   S    
C15   H5    S    
C16   N5    S    
N1    Zn1   S    
O2    Zn2   S    
C9    N6    S    
C11   C13   A    
C9    C10   A    
O6    Zn2   S    
C16   H11   S    
C8    C12   A    
H22   N8    S    
C26   H29   S    
C12   C20   A    
C4    O4    A    
C21   H1    S    
C15   H6    S    
C2    C26   D    
C2    H30   S    
C21   C22   A    
C18   H21   S    
C18   N7    S    
C6    O6    A    
H13   N6    S    
O7    Zn1   S    
C19   H24   S    
C5    N5    S    
H18   N7    S    
O8    Zn2   S    
C24   N7    S    
H12   N2    S    
C18   H20   S    
C4    O3    A    
C1    O1    A    
C15   N4    S    
C15   H7    S    
O3    Zn1   S    
C7    O8    A    
C17   H15   S    
C3    N3    S    
C16   H9    S    
O4    Zn2   S    
C6    O5    A    
C14   H32   S    
C7    C23   S    
C11   H17   S    
C8    H23   S    
C6    C25   S    
O1    Zn1   S    
C10   C11   A    
C14   H3    S    
C12   C13   A    
C4    C20   S    
C18   H19   S    
C19   H25   S    
C7    O7    A    
C1    O2    A    
C24   C25   D    
C13   C23   A    
C19   N8    S    
C22   H28   S    
C1    C2    S    
H31   N3    S    
C10   H27   S    
C17   H16   S    
H8    N5    S    
N1    N4    S    
C17   N6    S    
C5    N2    D    
C14   H2    S    
C20   C21   A    
C22   C23   A    
C14   N3    S    
C19   H26   S    
N2    Zn2   S    
H4    N4    S    
C16   H10   S    
C25   N8    S    
C24   C26   S    
C8    C9    A    
C3    C5    S    
C17   H14   S    
C3    N1    D    
