data_mof_unit_7982.cif
_audit_creation_date              2012-12-10T17:25:20-0500
_audit_creation_method            fapswitch 2.2
_symmetry_space_group_name_H-M    P1
_symmetry_Int_Tables_number       1
_space_group_crystal_system       triclinic
_cell_length_a                    18.918503
_cell_length_b                    18.860707
_cell_length_c                    18.791015
_cell_angle_alpha                 109.610517
_cell_angle_beta                  109.32166
_cell_angle_gamma                 109.775896
_cell_volume                      5142.56488159

loop_
_atom_site_label
_atom_site_type_symbol
_atom_type_description
_atom_site_fract_x
_atom_site_fract_y
_atom_site_fract_z
_atom_type_partial_charge
C1    C     C_R   0.615397 0.618642 0.496350 1.000232
C2    C     C_R   0.236450 0.184574 0.219959 0.351801
C3    C     C_R   0.176755 0.420978 0.178837 -0.040179
C4    C     C_R   0.187038 0.500839 0.185310 -0.139689
C5    C     C_R   0.265516 0.580352 0.250673 -0.022288
C6    C     C_R   0.328125 0.582166 0.318661 0.412394
C7    C     C_R   0.316216 0.501369 0.313051 -0.234760
C8    C     C_R   0.242682 0.420900 0.240877 -0.063040
C9    C     C_R   0.331151 0.686301 0.204901 0.355813
C10   C     C_R   0.357529 0.770425 0.213227 0.152856
C11   C     C_R   0.323163 0.820722 0.248388 0.216580
C12   C     C_R   0.381391 0.500097 0.380868 0.877015
C13   C     C_R   0.280073 0.795973 0.292395 0.359485
C14   C     C_R   0.259221 0.715820 0.288327 -0.299866
C15   C     C_R   0.284039 0.661239 0.245740 -0.022702
C16   C     C_R   0.741427 0.763160 0.570841 -0.265744
C17   C     C_R   0.809321 0.827250 0.575810 0.377212
C18   C     C_R   0.815091 0.812892 0.499756 -0.329785
C19   C     C_R   0.757253 0.731153 0.421656 0.208162
C20   C     C_R   0.683555 0.669987 0.415142 0.325945
C21   C     C_R   0.679059 0.685290 0.492381 -0.247816
C22   C     C_R   0.667725 0.484079 0.749540 -0.201023
C23   C     C_R   0.379289 0.381182 0.498377 0.753385
C24   C     C_R   0.732703 0.488849 0.818789 0.336975
C25   C     C_R   0.812751 0.505243 0.820817 -0.209836
C26   C     C_R   0.828222 0.521211 0.758607 -0.331257
C27   C     C_R   0.766296 0.520449 0.692731 0.413077
C28   C     C_R   0.685315 0.501236 0.687539 -0.234046
C29   C     C_R   0.247038 0.331212 0.514272 -0.044161
C30   C     C_R   0.182154 0.265681 0.513591 -0.071190
C31   C     C_R   0.184177 0.188574 0.501803 -0.058144
C32   C     C_R   0.246569 0.174557 0.485824 -0.128640
C33   C     C_R   0.307102 0.236276 0.480822 -0.150438
C34   C     C_R   0.619361 0.500858 0.619129 0.877660
C35   C     C_R   0.309127 0.315078 0.496382 -0.079022
C36   C     C_R   0.997860 0.618969 0.116089 0.812288
C37   C     C_R   0.118958 0.500494 0.119047 0.818378
C38   C     C_R   0.999603 0.381080 0.880995 0.799766
C39   C     C_R   0.880911 0.502991 0.884477 0.868486
C40   C     C_R   0.003448 0.885005 0.380635 0.922473
C41   C     C_R   0.881473 0.881987 0.501040 0.973146
C42   C     C_R   0.998426 0.117168 0.618804 0.817986
C43   C     C_R   0.118514 0.119783 0.500942 0.803868
C44   C     C_R   0.983902 0.751811 0.164894 -0.072669
C45   C     C_R   0.283567 0.231208 0.189989 0.353851
C46   C     C_R   0.991444 0.821674 0.232506 0.414772
C47   C     C_R   0.005891 0.821592 0.311816 -0.125380
C48   C     C_R   0.020264 0.757884 0.325207 -0.060943
C49   C     C_R   0.015314 0.691242 0.259871 -0.136158
C50   C     C_R   0.996862 0.687398 0.180131 -0.068122
C51   C     C_R   0.074416 0.315259 0.823961 -0.222064
C52   C     C_R   0.073433 0.249112 0.761551 -0.216578
C53   C     C_R   0.995152 0.181453 0.685582 -0.022526
C54   C     C_R   0.915796 0.178326 0.673293 -0.028147
C55   C     C_R   0.917048 0.245015 0.737325 -0.057957
C56   C     C_R   0.281369 0.305935 0.193680 -0.196035
C57   C     C_R   0.996875 0.313318 0.812411 -0.071012
C58   C     C_R   0.235257 0.335875 0.228043 0.069804
C59   C     C_R   0.182682 0.285195 0.249626 -0.266474
C60   C     C_R   0.184051 0.210846 0.246610 -0.256903
Cu1   Cu    Cu3+1 0.500020 0.438210 0.438220 1.161829
Cu2   Cu    Cu3+1 0.499980 0.561790 0.561780 1.049527
Cu3   Cu    Cu3+1 0.938210 0.438200 0.999980 1.060319
Cu4   Cu    Cu3+1 0.061840 0.561770 0.999960 1.014733
Cu5   Cu    Cu3+1 0.061800 0.999890 0.561700 1.084615
Cu6   Cu    Cu3+1 0.938200 0.999930 0.438120 1.110072
H1    H     H_    0.225763 0.696425 0.321318 0.199014
H2    H     H_    0.739003 0.772517 0.629932 0.241047
H3    H     H_    0.889476 0.533592 0.761146 0.217657
H4    H     H_    0.247062 0.114599 0.475093 0.172752
H5    H     H_    0.354691 0.223739 0.467981 0.194202
H6    H     H_    0.034577 0.758942 0.386442 0.188475
H7    H     H_    0.027096 0.642920 0.271983 0.140991
H8    H     H_    0.135678 0.367442 0.882150 0.183414
H9    H     H_    0.319221 0.344013 0.173929 0.193836
H10   H     H_    0.134377 0.252130 0.771418 0.167008
H11   H     H_    0.141437 0.303777 0.269902 0.150265
H12   H     H_    0.145202 0.174810 0.266989 0.205952
O1    O     O_R   0.590200 0.537990 0.447840 -0.512917
O2    O     O_R   0.052220 0.642350 0.090110 -0.619482
O3    O     O_R   0.038000 0.447810 0.090170 -0.598399
O4    O     O_R   0.142390 0.552170 0.090150 -0.566500
O5    O     O_R   0.947830 0.357620 0.909840 -0.583658
O6    O     O_R   0.052230 0.461980 0.909820 -0.571299
O7    O     O_R   0.857660 0.447800 0.909790 -0.509927
O8    O     O_R   0.962050 0.552160 0.909780 -0.606388
O9    O     O_R   0.052180 0.909730 0.461910 -0.587469
O10   O     O_R   0.947800 0.909770 0.357550 -0.501532
O11   O     O_R   0.962000 0.909720 0.552080 -0.524832
O12   O     O_R   0.590170 0.642360 0.552180 -0.566702
O13   O     O_R   0.857620 0.909750 0.447720 -0.562498
O14   O     O_R   0.052200 0.090060 0.642270 -0.556863
O15   O     O_R   0.947820 0.090090 0.537910 -0.608099
O16   O     O_R   0.142380 0.090070 0.552100 -0.611252
O17   O     O_R   0.038000 0.090100 0.447740 -0.549351
O18   O     O_R   0.409840 0.447810 0.357640 -0.578854
O19   O     O_R   0.409810 0.552180 0.461990 -0.537142
O20   O     O_R   0.409830 0.357640 0.447820 -0.574858
O21   O     O_R   0.409800 0.462010 0.552160 -0.593177
O22   O     O_R   0.590190 0.447820 0.538010 -0.532010
O23   O     O_R   0.590160 0.552190 0.642360 -0.612177
O24   O     O_R   0.947830 0.537990 0.090130 -0.535054
S1    S     S_3+6 0.242803 0.095935 0.228329 0.093854
O25   O     O_2   0.201601 0.072508 0.279124 -0.214646
O26   O     O_2   0.195502 0.017842 0.138442 -0.234321
O27   O     O_3   0.347372 0.123206 0.280622 -0.449953
H13   H     H_    0.355741 0.085671 0.236658 0.401703
S2    S     S_3+6 0.327909 0.909671 0.231571 0.113975
O28   O     O_2   0.249873 0.917852 0.223760 -0.195175
O29   O     O_2   0.408370 0.992875 0.307512 -0.202845
O30   O     O_3   0.329590 0.894630 0.138870 -0.464946
H14   H     H_    0.332692 0.946707 0.135293 0.381662
S3    S     S_3+6 0.261024 0.867439 0.363118 0.060720
O31   O     O_2   0.180768 0.866104 0.310425 -0.277177
O32   O     O_2   0.248511 0.839096 0.425986 -0.295753
O33   O     O_3   0.345970 0.969745 0.420443 -0.451029
H15   H     H_    0.325321 0.006938 0.447560 0.371123
S4    S     S_3+6 0.891165 0.917713 0.681219 -0.005241
O34   O     O_2   0.963907 0.900730 0.715226 -0.235929
O35   O     O_2   0.925956 0.000155 0.678302 -0.352632
O36   O     O_3   0.851176 0.930158 0.749426 -0.557227
H16   H     H_    0.902036 0.976887 0.807609 0.373596
S5    S     S_3+6 0.789599 0.701570 0.342181 0.075357
O37   O     O_2   0.746055 0.604705 0.284095 -0.173740
O38   O     O_2   0.770615 0.741915 0.286864 -0.201338
O39   O     O_3   0.896734 0.740113 0.395219 -0.588901
H17   H     H_    0.904580 0.710928 0.429904 0.349164
S6    S     S_3+6 0.595600 0.579457 0.310861 0.128126
O40   O     O_2   0.591936 0.601131 0.240153 -0.162591
O41   O     O_2   0.608100 0.502012 0.293318 -0.212671
O42   O     O_3   0.500127 0.552971 0.307530 -0.502650
H18   H     H_    0.456501 0.501004 0.248911 0.382854
C61   C     C_R   0.579071 0.454385 0.737633 0.160356
C62   C     C_R   0.522124 0.365383 0.701792 -0.084479
C63   C     C_R   0.440327 0.337220 0.694641 -0.104839
C64   C     C_R   0.414150 0.397418 0.721614 -0.089392
C65   C     C_R   0.469985 0.486054 0.756293 -0.094596
C66   C     C_R   0.552435 0.514689 0.764858 -0.064602
H19   H     H_    0.541517 0.318121 0.680429 0.120918
H20   H     H_    0.397102 0.268634 0.667955 0.143940
H21   H     H_    0.350596 0.375271 0.715583 0.121493
H22   H     H_    0.449743 0.532675 0.777366 0.132666
H23   H     H_    0.596060 0.583762 0.793976 0.125212
S7    S     S_3+6 0.713522 0.475272 0.902044 0.028909
O43   O     O_2   0.681678 0.381585 0.878352 -0.236704
O44   O     O_2   0.795452 0.532062 0.989264 -0.305244
O45   O     O_3   0.639132 0.500176 0.913354 -0.476037
H24   H     H_    0.668771 0.564648 0.942525 0.340535
S8    S     S_3+6 0.349808 0.203088 0.152182 0.053065
O46   O     O_2   0.305219 0.106175 0.093544 -0.246485
O47   O     O_2   0.369524 0.247258 0.102223 -0.256667
O48   O     O_3   0.443713 0.237247 0.238735 -0.501236
H25   H     H_    0.476081 0.216589 0.213505 0.385977
S9    S     S_3+6 0.794221 0.546961 0.620135 0.007114
O49   O     O_2   0.887532 0.573280 0.647505 -0.290441
O50   O     O_2   0.737298 0.469539 0.529121 -0.243779
O51   O     O_3   0.780045 0.630469 0.621504 -0.572748
H26   H     H_    0.810185 0.651547 0.592399 0.379658
C67   C     C_R   0.249454 0.415922 0.534749 0.138570
C68   C     C_R   0.237676 0.442863 0.472712 -0.139017
C69   C     C_R   0.240260 0.522321 0.492191 -0.087661
C70   C     C_R   0.254795 0.575766 0.574076 -0.076956
C71   C     C_R   0.267180 0.549932 0.636614 -0.133073
C72   C     C_R   0.264812 0.470539 0.617252 -0.122182
H27   H     H_    0.228598 0.403374 0.410299 0.099979
H28   H     H_    0.231651 0.542694 0.444006 0.142705
H29   H     H_    0.256956 0.637382 0.589234 0.155671
H30   H     H_    0.278914 0.591560 0.700234 0.154954
H31   H     H_    0.275332 0.451881 0.666667 0.117364
C73   C     C_R   0.110893 0.277125 0.521903 0.117818
C74   C     C_R   0.111863 0.302507 0.601645 -0.181707
C75   C     C_R   0.047889 0.319733 0.610315 -0.121608
C76   C     C_R   0.981561 0.309366 0.539085 -0.107842
C77   C     C_R   0.979570 0.282780 0.459175 -0.122357
C78   C     C_R   0.044376 0.267324 0.450674 -0.084976
H32   H     H_    0.163237 0.311115 0.657362 0.111497
H33   H     H_    0.049888 0.341770 0.672353 0.154818
H34   H     H_    0.931964 0.322347 0.545972 0.138810
H35   H     H_    0.928365 0.275094 0.404107 0.145778
H36   H     H_    0.043231 0.248352 0.388942 0.127066
C79   C     C_R   0.956610 0.742764 0.077051 0.106083
C80   C     C_R   0.870366 0.717518 0.023088 -0.043196
C81   C     C_R   0.844467 0.711567 0.941473 -0.148553
C82   C     C_R   0.904569 0.731344 0.913400 -0.096881
C83   C     C_R   0.990790 0.757599 0.967131 -0.085916
C84   C     C_R   0.017012 0.763928 0.048941 0.017557
H37   H     H_    0.823406 0.702758 0.044486 0.164910
H38   H     H_    0.777737 0.691387 0.899888 0.139600
H39   H     H_    0.884331 0.726387 0.850052 0.182188
H40   H     H_    0.037460 0.773615 0.945642 0.169566
H41   H     H_    0.084461 0.786576 0.090847 0.191377
S10   S     S_3+6 0.989882 0.911555 0.220536 0.039629
O52   O     O_2   0.900195 0.898561 0.192942 -0.283013
O53   O     O_2   0.053689 0.995119 0.306107 -0.293195
O54   O     O_3   0.016595 0.921381 0.146067 -0.478926
H42   H     H_    0.011787 0.971476 0.144139 0.383184
C85   C     C_R   0.830813 0.104896 0.596379 0.112854
C86   C     C_R   0.796086 0.108696 0.520059 -0.118518
C87   C     C_R   0.712718 0.043032 0.450586 -0.083557
C88   C     C_R   0.663322 0.973932 0.457376 -0.060395
C89   C     C_R   0.697310 0.970002 0.533294 -0.148792
C90   C     C_R   0.780387 0.035717 0.602950 -0.111624
H43   H     H_    0.833118 0.162921 0.514957 0.131216
H44   H     H_    0.685964 0.046298 0.391958 0.176308
H45   H     H_    0.598197 0.924239 0.404527 0.164357
H46   H     H_    0.658690 0.916939 0.538832 0.165565
H47   H     H_    0.804312 0.034083 0.662905 0.183990
C91   C     C_R   0.835232 0.245025 0.723767 0.105132
C92   C     C_R   0.782540 0.198720 0.748676 -0.103618
C93   C     C_R   0.705001 0.198041 0.734921 -0.086451
C94   C     C_R   0.679575 0.243131 0.695934 -0.046865
C95   C     C_R   0.731747 0.289240 0.670873 -0.124838
C96   C     C_R   0.809655 0.290545 0.685008 -0.167821
H48   H     H_    0.801716 0.163486 0.778803 0.124006
H49   H     H_    0.664506 0.162387 0.754272 0.147988
H50   H     H_    0.619345 0.242069 0.684989 0.136697
H51   H     H_    0.711788 0.323943 0.640532 0.154276
H52   H     H_    0.849734 0.326432 0.665412 0.134160
C97   C     C_R   0.101623 0.336607 0.101672 0.145413
C98   C     C_R   0.103913 0.301233 0.024289 -0.139099
C99   C     C_R   0.032992 0.222243 0.951441 -0.117461
C100  C     C_R   0.959407 0.178579 0.955302 -0.103269
C101  C     C_R   0.956950 0.213315 0.032319 -0.118485
C102  C     C_R   0.027899 0.292006 0.105474 -0.103110
H53   H     H_    0.160479 0.334810 0.020535 0.165058
H54   H     H_    0.034885 0.194911 0.891891 0.175474
H55   H     H_    0.904324 0.117832 0.898652 0.139491
H56   H     H_    0.899986 0.179344 0.035272 0.141152
H57   H     H_    0.025223 0.318657 0.164700 0.117305
S11   S     S_3+6 0.419908 0.685042 0.411100 0.025326
O55   O     O_2   0.405131 0.702138 0.487515 -0.286231
O56   O     O_2   0.501028 0.680062 0.433108 -0.274299
O57   O     O_3   0.438225 0.771728 0.397158 -0.559620
H58   H     H_    0.485808 0.822862 0.454850 0.374053
S12   S     S_3+6 0.356113 0.612016 0.144288 0.070142
O58   O     O_2   0.440749 0.626172 0.205897 -0.208527
O59   O     O_2   0.287660 0.518673 0.102874 -0.335615
O60   O     O_3   0.364103 0.627593 0.063652 -0.447302
H59   H     H_    0.388609 0.592109 0.041939 0.386647
S13   S     S_3+6 0.441746 0.817720 0.191367 0.129115
O61   O     O_2   0.401601 0.793800 0.097131 -0.149913
O62   O     O_2   0.492678 0.915396 0.247379 -0.247424
O63   O     O_3   0.512773 0.782445 0.210964 -0.425428
H60   H     H_    0.535241 0.797468 0.272727 0.350426

loop_
_geom_bond_atom_site_label_1
_geom_bond_atom_site_label_2
_ccdc_geom_bond_type
C75   H33   S    
Cu5   O14   S    
C23   O21   A    
C65   H22   S    
S6    O42   S    
C1    C21   S    
C91   C96   A    
C38   O5    A    
C40   C47   S    
C42   O15   A    
S12   O59   D    
C89   C90   A    
C54   C55   A    
C41   O11   A    
Cu1   O20   S    
C51   H8    S    
C74   C75   A    
S6    O40   D    
C59   H11   S    
C69   C70   A    
Cu1   O18   S    
S8    O46   D    
S5    O37   D    
C29   C67   S    
C76   C77   A    
C82   C83   A    
Cu5   O11   S    
C55   C91   S    
C60   H12   S    
C26   C27   A    
O51   H26   S    
C54   C85   S    
C31   C43   S    
Cu3   O3    S    
O27   H13   S    
C2    S1    S    
C40   O9    A    
Cu1   O1    S    
C20   S6    S    
C66   H23   S    
S8    O47   D    
C42   C53   S    
Cu6   O10   S    
C5    C6    A    
C2    C60   A    
S5    O38   D    
C9    S12   S    
C95   H51   S    
O63   H60   S    
Cu2   O19   S    
C88   H45   S    
C43   O16   A    
S2    O28   D    
S11   O57   S    
C36   O24   A    
C18   C19   A    
C22   C24   A    
C84   H41   S    
C99   C100  A    
S4    O34   D    
Cu4   O6    S    
C8    C58   S    
C97   C102  A    
C77   C78   A    
C30   C73   S    
O45   H24   S    
C45   C56   A    
C76   H34   S    
C88   C89   A    
C98   H53   S    
C34   O22   A    
C14   H1    S    
C86   C87   A    
C51   C57   A    
S1    O27   S    
C9    C10   A    
S9    O50   D    
C69   H28   S    
Cu2   O23   S    
C27   S9    S    
C94   H50   S    
C28   C34   S    
C87   C88   A    
C95   C96   A    
C56   H9    S    
C22   C28   A    
C13   C14   A    
Cu3   O7    S    
Cu4   O2    S    
C67   C68   A    
C37   O3    A    
C72   H31   S    
C85   C86   A    
C48   H6    S    
Cu3   O24   S    
Cu4   O8    S    
C98   C99   A    
C44   C46   A    
Cu5   O9    S    
C73   C78   A    
C56   C58   A    
C2    C45   A    
C63   H20   S    
C92   C93   A    
C34   O23   A    
O36   H16   S    
C22   C61   S    
C51   C52   A    
S7    O45   S    
C44   C79   S    
C63   C64   A    
C24   C25   A    
C101  C102  A    
S7    O44   D    
C3    C8    A    
C36   O2    A    
C18   C41   S    
C62   H19   S    
C101  H56   S    
C91   C92   A    
S5    O39   S    
C32   H4    S    
C58   C59   A    
C79   C80   A    
C99   H54   S    
S13   O63   S    
C70   H29   S    
Cu3   Cu4   S    
Cu3   O5    S    
S4    O36   S    
S10   O53   D    
C81   C82   A    
S10   O54   S    
C94   C95   A    
C29   C30   A    
C42   O14   A    
C38   C57   S    
C43   O17   A    
C47   C48   A    
C14   C15   A    
C30   C31   A    
S12   O58   D    
C19   S5    S    
S13   O62   D    
C17   C18   A    
S9    O49   D    
C85   C90   A    
S1    O26   D    
C59   C60   A    
C68   H27   S    
C20   C21   A    
S11   O56   D    
C10   S13   S    
Cu4   O4    S    
C12   O19   A    
Cu6   O13   S    
C17   S4    S    
S9    O51   S    
Cu6   O15   S    
C16   H2    S    
Cu5   O16   S    
C41   O13   A    
C86   H43   S    
C13   S3    S    
C87   H44   S    
C93   C94   A    
C23   C35   S    
C90   H47   S    
C6    S11   S    
C61   C62   A    
C1    O1    A    
S12   O60   S    
C49   H7    S    
C37   O4    A    
S8    O48   S    
Cu1   O22   S    
C39   O7    A    
C3    C4    A    
C1    O12   A    
C11   S2    S    
C36   C50   S    
C75   C76   A    
S3    O31   D    
C65   C66   A    
C44   C50   A    
C97   C98   A    
C46   C47   A    
C48   C49   A    
O30   H14   S    
C38   O6    A    
C82   H39   S    
C31   C32   A    
C46   S10   S    
S7    O43   D    
C52   H10   S    
O42   H18   S    
S6    O41   D    
C79   C84   A    
C16   C21   A    
C53   C54   A    
C6    C7    A    
C70   C71   A    
C74   H32   S    
C29   C35   A    
C62   C63   A    
C92   H48   S    
S2    O30   S    
C96   H52   S    
S10   O52   D    
S3    O33   S    
C19   C20   A    
C55   C57   A    
C71   H30   S    
C25   C26   A    
S11   O55   D    
C81   H38   S    
C32   C33   A    
Cu2   O21   S    
C11   C13   A    
C40   O10   A    
C83   C84   A    
C16   C17   A    
C100  H55   S    
C24   S7    S    
O39   H17   S    
C4    C5    A    
Cu2   O12   S    
O60   H59   S    
S13   O61   D    
C33   C35   A    
C64   H21   S    
S2    O29   D    
O33   H15   S    
C89   H46   S    
C45   S8    S    
C80   H37   S    
Cu5   Cu6   S    
C9    C15   A    
Cu1   Cu2   S    
C100  C101  A    
C68   C69   A    
S4    O35   D    
C5    C15   S    
C71   C72   A    
C7    C8    A    
C10   C11   A    
C33   H5    S    
C78   H36   S    
O54   H42   S    
C83   H40   S    
C61   C66   A    
C23   O20   A    
C4    C37   S    
C3    C97   S    
C49   C50   A    
C73   C74   A    
S1    O25   D    
C26   H3    S    
C67   C72   A    
C12   O18   A    
C7    C12   S    
O48   H25   S    
C39   O8    A    
S3    O32   D    
C93   H49   S    
C102  H57   S    
C77   H35   S    
C25   C39   S    
C64   C65   A    
C80   C81   A    
O57   H58   S    
C52   C53   A    
Cu6   O17   S    
C27   C28   A    
