data_mof_unit_32803.cif
_audit_creation_date              2013-03-05T16:03:41-0500
_audit_creation_method            fapswitch 2.2
_symmetry_space_group_name_H-M    P1
_symmetry_Int_Tables_number       1
_space_group_crystal_system       triclinic
_cell_length_a                    8.779066
_cell_length_b                    10.997233
_cell_length_c                    9.605172
_cell_angle_alpha                 89.346736
_cell_angle_beta                  97.364487
_cell_angle_gamma                 92.613258
_cell_volume                      918.714844798

loop_
_atom_site_label
_atom_site_type_symbol
_atom_site_description
_atom_site_fract_x
_atom_site_fract_y
_atom_site_fract_z
_atom_type_partial_charge
O1    O     O_R   0.499990 0.319660 0.618740 -0.539613
O2    O     O_R   0.500010 0.680340 0.381260 -0.539610
O3    O     O_R   0.499990 0.319630 0.381170 -0.532264
O4    O     O_R   0.500010 0.680370 0.618830 -0.532262
C1    C     C_R   0.505829 0.262498 0.501488 0.890994
C2    C     C_R   0.494170 0.737502 0.498513 0.890995
O5    O     O_R   0.274840 0.500010 0.591370 -0.541880
O6    O     O_R   0.725160 0.499990 0.408630 -0.541879
O7    O     O_R   0.274830 0.499980 0.353800 -0.542102
O8    O     O_R   0.725170 0.500020 0.646200 -0.542101
C3    C     C_R   0.204554 0.497354 0.465390 0.828175
C4    C     C_R   0.795446 0.502646 0.534609 0.828173
Cu1   Cu    Cu3+1 0.500000 0.500020 0.640660 1.162771
Cu2   Cu    Cu3+1 0.500000 0.499980 0.359340 1.162772
N1    N     N_R   0.500040 0.500030 0.852080 -0.303304
N2    N     N_R   0.499960 0.499970 0.147920 -0.303305
C5    C     C_2   0.040596 0.474447 0.453367 0.067272
C6    C     C_2   0.959404 0.525552 0.546633 0.067270
C7    C     C_R   0.529216 0.065875 0.378918 0.242117
C8    C     C_R   0.470784 0.934124 0.621083 0.242118
C9    C     C_R   0.511876 0.939015 0.373811 0.231635
C10   C     C_R   0.488121 0.060984 0.626190 0.231630
C11   C     C_R   0.487989 0.871633 0.496383 -0.324844
C12   C     C_R   0.512010 0.128367 0.503618 -0.324844
C13   C     C_R   0.385976 0.438516 0.061117 0.307654
C14   C     C_R   0.614024 0.561484 0.938883 0.307654
C15   C     C_R   0.387886 0.436765 0.913614 0.425975
C16   C     C_R   0.612113 0.563234 0.086386 0.425976
N3    N     N_R   0.976423 0.375808 0.364579 0.142930
O9    O     O_R   0.898543 0.398351 0.243358 -0.200124
O10   O     O_R   0.023688 0.266585 0.391406 -0.257655
N4    N     N_R   0.023577 0.624192 0.635420 0.142929
O11   O     O_R   0.101454 0.601650 0.756643 -0.200123
O12   O     O_R   0.976323 0.733417 0.608584 -0.257657
N5    N     N_R   0.570442 0.129998 0.257063 0.183998
O13   O     O_R   0.705944 0.183689 0.261418 -0.223887
O14   O     O_R   0.484074 0.118677 0.136899 -0.179954
N6    N     N_R   0.429567 0.870001 0.742941 0.183998
O15   O     O_R   0.294065 0.816310 0.738593 -0.223883
O16   O     O_R   0.515942 0.881321 0.863100 -0.179959
N7    N     N_R   0.518651 0.880385 0.242063 0.187293
O17   O     O_R   0.393342 0.831603 0.174035 -0.237762
O18   O     O_R   0.638187 0.900363 0.176338 -0.180864
N8    N     N_R   0.481342 0.119614 0.757941 0.187293
O19   O     O_R   0.606652 0.168396 0.825973 -0.237759
O20   O     O_R   0.361804 0.099630 0.823666 -0.180859
N9    N     N_R   0.255442 0.383858 0.116012 0.188517
O21   O     O_R   0.120650 0.425271 0.074807 -0.197714
O22   O     O_R   0.264433 0.278852 0.179041 -0.228939
N10   N     N_R   0.744561 0.616138 0.883990 0.188518
O23   O     O_R   0.879352 0.574727 0.925200 -0.197714
O24   O     O_R   0.735571 0.721139 0.820948 -0.228942
Cl1   Cl    Cl    0.245931 0.345456 0.812731 -0.368429
Cl2   Cl    Cl    0.754068 0.654545 0.187269 -0.368424

loop_
_geom_bond_atom_site_label_1
_geom_bond_atom_site_label_2
_geom_bond_distance
_ccdc_geom_bond_type
N2    C16   1.371190 A    
N6    O16   1.301103 A    
O7    Cu2   1.970669 S    
C15   Cl1   1.760362 S    
N3    O9    1.299778 A    
Cu2   N2    2.030681 S    
C13   C15   1.419406 A    
C5    N3    1.436521 S    
N7    O17   1.301872 A    
C13   N9    1.427380 S    
N1    C15   1.371192 A    
N9    O21   1.299741 A    
C8    C11   1.415753 A    
O6    C4    1.285915 A    
N4    O11   1.299778 A    
C14   N10   1.427381 S    
N10   O23   1.299742 A    
C6    N4    1.436521 S    
N9    O22   1.298605 A    
C7    N5    1.436906 S    
Cu1   Cu2   2.702132 S    
O5    C3    1.285914 A    
N7    O18   1.301434 A    
O7    C3    1.302885 A    
O2    C2    1.303871 A    
O3    Cu2   1.992022 S    
O8    C4    1.302888 A    
C7    C12   1.415754 A    
O1    C1    1.303868 A    
C2    C11   1.478345 S    
N5    O14   1.301105 A    
C8    C10   1.397208 A    
C5    C6    1.355796 D    
C10   C12   1.417194 A    
Cu1   N1    2.030683 S    
C9    C11   1.417186 A    
N6    O15   1.299707 A    
O2    Cu2   1.996986 S    
C9    N7    1.435988 S    
N10   O24   1.298608 A    
O1    Cu1   1.996985 S    
O5    Cu1   1.972698 S    
C8    N6    1.436901 S    
N8    O19   1.301898 A    
O4    C2    1.305430 A    
C4    C6    1.440017 S    
N2    C13   1.374965 A    
C16   Cl2   1.760362 S    
C10   N8    1.436013 S    
C1    C12   1.478347 S    
N1    C14   1.374965 A    
O6    Cu2   1.972696 S    
C7    C9    1.397207 A    
N3    O10   1.300888 A    
C14   C16   1.419406 A    
O8    Cu1   1.970667 S    
C3    C5    1.440017 S    
O4    Cu1   1.992023 S    
N8    O20   1.301459 A    
O3    C1    1.305432 A    
N5    O13   1.299709 A    
N4    O12   1.300896 A    
