data_mof_unit_17769.cif
_audit_creation_date              2012-12-10T18:42:50-0500
_audit_creation_method            fapswitch 2.2
_symmetry_space_group_name_H-M    P1
_symmetry_Int_Tables_number       1
_space_group_crystal_system       triclinic
_cell_length_a                    18.067821
_cell_length_b                    18.12897
_cell_length_c                    18.088036
_cell_angle_alpha                 120.098661
_cell_angle_beta                  89.973029
_cell_angle_gamma                 60.003867
_cell_volume                      4182.42920082

loop_
_atom_site_label
_atom_site_type_symbol
_atom_type_description
_atom_site_fract_x
_atom_site_fract_y
_atom_site_fract_z
_atom_type_partial_charge
C1    C     C_R   0.890969 0.216949 0.608248 0.902441
C2    C     C_3   0.550556 0.897473 0.949004 -0.146061
C3    C     C_3   0.442213 0.035372 0.075042 -0.007688
C4    C     C_3   0.557789 0.964628 0.924955 -0.007699
C5    C     C_3   0.977241 0.434984 0.446127 -0.283167
C6    C     C_3   0.022759 0.565016 0.553873 -0.283176
C7    C     C_3   0.075739 0.401498 0.441490 -0.343310
C8    C     C_3   0.924260 0.598503 0.558510 -0.343322
C9    C     C_3   0.051360 0.500359 0.449286 -0.086290
C10   C     C_3   0.948639 0.499641 0.550714 -0.086288
C11   C     C_3   0.954435 0.533256 0.454173 0.621495
C12   C     C_R   0.109029 0.783051 0.391752 0.902410
C13   C     C_3   0.045565 0.466744 0.545827 0.621498
C14   C     C_3   0.973508 0.032041 0.446374 0.447040
C15   C     C_3   0.026480 0.967958 0.553613 0.446997
C16   C     C_R   0.608275 0.783128 0.892051 0.852428
C17   C     C_R   0.391725 0.216872 0.107948 0.852423
C18   C     C_3   0.951405 0.964967 0.456422 -0.167903
C19   C     C_3   0.048581 0.035034 0.543579 -0.167977
C20   C     C_3   0.051450 0.897266 0.449379 -0.284832
C21   C     C_3   0.948542 0.102732 0.550617 -0.284862
C22   C     C_3   0.072578 0.965450 0.439782 0.428540
C23   C     C_3   0.554671 0.433722 0.411020 -0.452863
C24   C     C_3   0.927417 0.034555 0.560216 0.428498
C25   C     C_3   0.983688 0.428290 0.981819 -0.292507
C26   C     C_3   0.016312 0.571709 0.018181 -0.292530
C27   C     C_3   0.957154 0.524755 0.076269 0.626418
C28   C     C_3   0.042845 0.475245 0.923731 0.626414
C29   C     C_3   0.051179 0.500354 0.051265 -0.090598
C30   C     C_3   0.948820 0.499645 0.948736 -0.090596
C31   C     C_3   0.079207 0.403493 0.956039 -0.337320
C32   C     C_3   0.920792 0.596507 0.043962 -0.337347
C33   C     C_3   0.588227 0.417114 0.970440 -0.454579
C34   C     C_3   0.445329 0.566271 0.588980 -0.452865
C35   C     C_3   0.411774 0.582883 0.029558 -0.454580
C36   C     C_3   0.507314 0.410735 0.952179 0.460315
C37   C     C_3   0.492687 0.589261 0.047819 0.460315
C38   C     C_3   0.448153 0.501031 0.051911 -0.225149
C39   C     C_3   0.551848 0.498966 0.948086 -0.225148
C40   C     C_R   0.608452 0.499691 0.891199 0.927299
C41   C     C_R   0.391548 0.500308 0.108800 0.927292
C42   C     C_3   0.527817 0.509083 0.070286 0.479277
C43   C     C_3   0.472185 0.490914 0.929711 0.479276
C44   C     C_R   0.891800 0.499671 0.608282 0.849962
C45   C     C_3   0.445591 0.966144 0.977398 -0.357503
C46   C     C_R   0.108200 0.500329 0.391718 0.849960
C47   C     C_R   0.891887 0.499619 0.891240 0.859032
C48   C     C_R   0.108113 0.500381 0.108759 0.859013
C49   C     C_R   0.608334 0.499806 0.608523 0.917942
C50   C     C_R   0.391666 0.500192 0.391477 0.917945
C51   C     C_3   0.547762 0.531817 0.486899 0.461691
C52   C     C_3   0.452238 0.468176 0.513101 0.461683
C53   C     C_3   0.443936 0.596665 0.522675 0.478311
C54   C     C_3   0.556064 0.403329 0.477326 0.478297
C55   C     C_3   0.449291 0.499842 0.448029 -0.223545
C56   C     C_3   0.554409 0.033857 0.022599 -0.357517
C57   C     C_3   0.550709 0.500152 0.551971 -0.223540
C58   C     C_3   0.383094 0.771819 0.619564 -0.298558
C59   C     C_3   0.616898 0.228175 0.380450 -0.298477
C60   C     C_3   0.901689 0.918553 0.405396 -0.368980
C61   C     C_3   0.803512 0.003600 0.425791 -0.285446
C62   C     C_3   0.755375 0.955211 0.374776 -0.938358
C63   C     C_3   0.098267 0.081435 0.594703 -0.368868
C64   C     C_3   0.196451 0.996381 0.574281 -0.285405
C65   C     C_3   0.244591 0.044764 0.625300 -0.938410
C66   C     C_3   0.975121 0.995263 0.303269 -0.281336
C67   C     C_3   0.453786 0.033509 0.953976 0.591324
C68   C     C_3   0.024783 0.004885 0.696784 -0.280618
C69   C     C_3   0.155015 0.996044 0.374451 -0.320516
C70   C     C_3   0.845027 0.003950 0.625603 -0.319792
C71   C     C_3   0.830764 0.568553 0.164023 -0.303280
C72   C     C_3   0.169214 0.431499 0.835996 -0.303267
C73   C     C_3   0.576364 0.245290 0.821355 -0.284660
C74   C     C_3   0.423637 0.754707 0.178640 -0.284656
C75   C     C_3   0.632230 0.512388 0.142339 -0.310642
C76   C     C_3   0.367772 0.487608 0.857658 -0.310656
C77   C     C_3   0.594909 0.576004 0.407030 -0.291328
C78   C     C_3   0.546215 0.966490 0.046020 0.591322
C79   C     C_3   0.405078 0.424010 0.592981 -0.291339
C80   C     C_3   0.395660 0.004562 0.836675 -0.343429
C81   C     C_3   0.604362 0.995424 0.163306 -0.343431
C82   C     C_3   0.372791 0.082757 0.161792 -0.398574
C83   C     C_3   0.379665 0.998919 0.168698 -0.279306
C84   C     C_3   0.306657 0.049070 0.253841 -0.933006
C85   C     C_3   0.627216 0.917247 0.838211 -0.398580
C86   C     C_3   0.620344 0.001087 0.831311 -0.279268
C87   C     C_3   0.693374 0.950943 0.746187 -0.933054
C88   C     C_3   0.822534 0.593930 0.421200 -0.291430
C89   C     C_3   0.449445 0.102527 0.050993 -0.146059
C90   C     C_3   0.177466 0.406070 0.578799 -0.291421
H1    H     H_    0.968852 0.370670 0.966806 0.167927
H2    H     H_    0.596919 0.063769 0.041690 0.171314
H3    H     H_    0.138679 0.321796 0.393417 0.160195
H4    H     H_    0.861321 0.678204 0.606583 0.160194
H5    H     H_    0.957014 0.383043 0.403369 0.176217
H6    H     H_    0.042986 0.616957 0.596631 0.176218
H7    H     H_    0.452221 0.753640 0.615291 0.180286
H8    H     H_    0.353075 0.781423 0.680040 0.164847
H9    H     H_    0.339982 0.847855 0.628974 0.183069
H10   H     H_    0.646913 0.218562 0.319966 0.164831
H11   H     H_    0.547769 0.246360 0.384733 0.180285
H12   H     H_    0.031147 0.629330 0.033196 0.167931
H13   H     H_    0.660007 0.152143 0.371048 0.183079
H14   H     H_    0.789463 0.906919 0.300400 0.264903
H15   H     H_    0.755724 0.905581 0.393848 0.274823
H16   H     H_    0.683842 0.017942 0.392357 0.247657
H17   H     H_    0.765466 0.055603 0.499530 0.248895
H18   H     H_    0.802147 0.052810 0.405737 0.253545
H19   H     H_    0.939224 0.866920 0.331472 0.205386
H20   H     H_    0.902402 0.869286 0.425133 0.194681
H21   H     H_    0.244233 0.094408 0.606241 0.274822
H22   H     H_    0.210511 0.093042 0.699676 0.264907
H23   H     H_    0.144886 0.325477 0.921119 0.167685
H24   H     H_    0.316127 0.982032 0.607706 0.247657
H25   H     H_    0.197823 0.947158 0.594320 0.253520
H26   H     H_    0.234491 0.944391 0.500542 0.248922
H27   H     H_    0.097520 0.130811 0.575093 0.194693
H28   H     H_    0.060734 0.132944 0.668620 0.205380
H29   H     H_    0.925407 0.976228 0.285604 0.162100
H30   H     H_    0.042692 0.922579 0.279823 0.192027
H31   H     H_    0.981754 0.024788 0.264592 0.183083
H32   H     H_    0.957752 0.078089 0.720039 0.191505
H33   H     H_    0.075048 0.022952 0.714597 0.162179
H34   H     H_    0.855114 0.674524 0.078880 0.167677
H35   H     H_    0.017009 0.975894 0.735522 0.182922
H36   H     H_    0.196840 0.013477 0.415585 0.171051
H37   H     H_    0.087639 0.070142 0.400538 0.197382
H38   H     H_    0.188962 0.964362 0.304362 0.178326
H39   H     H_    0.912381 0.929651 0.599084 0.197074
H40   H     H_    0.802824 0.986892 0.584850 0.170862
H41   H     H_    0.811499 0.035451 0.695761 0.178350
H42   H     H_    0.836510 0.497316 0.109728 0.151871
H43   H     H_    0.784570 0.635496 0.160562 0.154325
H44   H     H_    0.799475 0.588855 0.229950 0.186545
H45   H     H_    0.660091 0.350438 0.945176 0.188098
H46   H     H_    0.215411 0.364628 0.839545 0.154293
H47   H     H_    0.163417 0.502791 0.890252 0.151898
H48   H     H_    0.200533 0.411122 0.770042 0.186542
H49   H     H_    0.644472 0.210775 0.828585 0.170324
H50   H     H_    0.572298 0.277696 0.781879 0.194496
H51   H     H_    0.567404 0.181641 0.781760 0.181514
H52   H     H_    0.427697 0.722303 0.218116 0.194506
H53   H     H_    0.355532 0.789225 0.171407 0.170294
H54   H     H_    0.432601 0.818353 0.218237 0.181517
H55   H     H_    0.629339 0.568936 0.131617 0.189292
H56   H     H_    0.339911 0.649559 0.054821 0.188098
H57   H     H_    0.689963 0.431285 0.087643 0.167384
H58   H     H_    0.645123 0.530265 0.207209 0.168833
H59   H     H_    0.310038 0.568711 0.912355 0.167386
H60   H     H_    0.370664 0.431059 0.868379 0.189294
H61   H     H_    0.354878 0.469732 0.792789 0.168831
H62   H     H_    0.523597 0.627478 0.413126 0.200376
H63   H     H_    0.630384 0.497773 0.341281 0.174962
H64   H     H_    0.629983 0.611737 0.407130 0.164387
H65   H     H_    0.369532 0.502258 0.658724 0.174964
H66   H     H_    0.476387 0.372609 0.586942 0.200360
H67   H     H_    0.597105 0.380856 0.338457 0.189665
H68   H     H_    0.370065 0.388202 0.592842 0.164397
H69   H     H_    0.347588 0.994047 0.861060 0.169765
H70   H     H_    0.462319 0.928021 0.790961 0.150363
H71   H     H_    0.367425 0.035126 0.796122 0.192580
H72   H     H_    0.537713 0.071978 0.209020 0.150363
H73   H     H_    0.652449 0.005911 0.138902 0.169777
H74   H     H_    0.632590 0.964867 0.203865 0.192574
H75   H     H_    0.315718 0.099512 0.315521 0.261935
H76   H     H_    0.238072 0.096977 0.252570 0.266118
H77   H     H_    0.311369 0.987545 0.257227 0.242648
H78   H     H_    0.402896 0.619133 0.661543 0.189671
H79   H     H_    0.370827 0.946441 0.108212 0.231781
H80   H     H_    0.447480 0.951238 0.171416 0.257281
H81   H     H_    0.383079 0.134173 0.221485 0.179398
H82   H     H_    0.303849 0.131756 0.161749 0.224366
H83   H     H_    0.761951 0.903038 0.747474 0.266109
H84   H     H_    0.684333 0.900495 0.684492 0.261932
H85   H     H_    0.688671 0.012471 0.742812 0.242663
H86   H     H_    0.552538 0.048757 0.828574 0.257257
H87   H     H_    0.629159 0.053579 0.891811 0.231782
H88   H     H_    0.696155 0.868249 0.838257 0.224370
H89   H     H_    0.403081 0.936232 0.958308 0.171319
H90   H     H_    0.616935 0.865829 0.778512 0.179389
H91   H     H_    0.781219 0.657882 0.493965 0.148880
H92   H     H_    0.823528 0.524379 0.400790 0.170747
H93   H     H_    0.788691 0.622594 0.381168 0.182417
H94   H     H_    0.176472 0.475620 0.599208 0.170748
H95   H     H_    0.218781 0.342117 0.506035 0.148883
H96   H     H_    0.211309 0.377407 0.618832 0.182417
O1    O     O_3   0.750010 0.499980 0.749990 -0.514538
O2    O     O_R   0.305750 0.265450 0.132730 -0.639572
O3    O     O_R   0.867280 0.265410 0.571220 -0.602280
O4    O     O_R   0.132720 0.734590 0.428780 -0.602387
O5    O     O_R   0.571230 0.734580 0.867270 -0.652483
O6    O     O_R   0.428770 0.265420 0.132730 -0.652487
O7    O     O_R   0.694200 0.438470 0.867270 -0.659361
O8    O     O_R   0.305800 0.561530 0.132730 -0.659359
O9    O     O_R   0.867340 0.561470 0.694210 -0.624230
O10   O     O_R   0.132660 0.438530 0.305790 -0.624227
O11   O     O_R   0.867310 0.438430 0.867270 -0.667159
O12   O     O_3   0.249990 0.500020 0.250010 -0.514543
O13   O     O_R   0.132690 0.561570 0.132730 -0.667147
O14   O     O_R   0.694200 0.438520 0.571220 -0.598742
O15   O     O_R   0.305800 0.561480 0.428780 -0.598746
O16   O     O_R   0.867340 0.561440 0.867270 -0.605941
O17   O     O_R   0.132660 0.438560 0.132730 -0.605940
O18   O     O_R   0.571190 0.561530 0.694210 -0.663963
O19   O     O_R   0.428810 0.438470 0.305790 -0.663960
O20   O     O_3   0.383402 0.695608 0.539775 -0.591888
O21   O     O_3   0.616599 0.304388 0.460230 -0.591877
O22   O     O_3   0.942731 0.075134 0.396706 -0.579679
O23   O     O_R   0.571190 0.561490 0.867270 -0.604082
O24   O     O_3   0.057198 0.924955 0.603353 -0.579688
O25   O     O_3   0.151235 0.918917 0.371983 -0.607066
O26   O     O_3   0.848785 0.081076 0.628039 -0.606991
O27   O     O_3   0.916549 0.550629 0.159915 -0.584604
O28   O     O_3   0.083453 0.449360 0.840081 -0.584609
O29   O     O_3   0.507829 0.320473 0.906968 -0.610952
O30   O     O_3   0.492174 0.679522 0.093029 -0.610950
O31   O     O_3   0.550007 0.521448 0.148651 -0.599696
O32   O     O_3   0.449994 0.478549 0.851347 -0.599698
O33   O     O_3   0.599752 0.567286 0.480259 -0.616841
O34   O     O_R   0.428810 0.438510 0.132730 -0.604084
O35   O     O_3   0.400253 0.432702 0.519738 -0.616846
O36   O     O_3   0.403794 0.077850 0.910406 -0.608226
O37   O     O_3   0.596204 0.922148 0.089590 -0.608236
O38   O     O_3   0.911074 0.568121 0.402386 -0.591447
O39   O     O_3   0.088926 0.431880 0.597614 -0.591446
O40   O     O_R   0.867310 0.438490 0.571220 -0.652281
O41   O     O_R   0.132690 0.561510 0.428780 -0.652286
O42   O     O_R   0.867280 0.265380 0.694210 -0.641818
O43   O     O_R   0.132720 0.734620 0.305790 -0.641665
O44   O     O_R   0.694250 0.734550 0.867270 -0.639574
Zn1   Zn    Zn3+2 0.618190 0.587870 0.793920 0.990883
Zn2   Zn    Zn3+2 0.381810 0.412130 0.206080 0.990880
Zn3   Zn    Zn3+2 0.793940 0.412090 0.793920 0.969710
Zn4   Zn    Zn3+2 0.206060 0.587910 0.206080 0.969770
Zn5   Zn    Zn3+2 0.793970 0.587840 0.793920 1.006416
Zn6   Zn    Zn3+2 0.206030 0.412160 0.206080 1.006415
Zn7   Zn    Zn3+2 0.793940 0.412130 0.618200 1.022606
Zn8   Zn    Zn3+2 0.206060 0.587870 0.381800 1.022571

loop_
_geom_bond_atom_site_label_1
_geom_bond_atom_site_label_2
_ccdc_geom_bond_type
C25   C31   S    
C7    C13   S    
C72   O28   S    
C74   H53   S    
C1    C21   S    
C64   H26   S    
C14   O22   S    
C27   C29   S    
C70   O26   S    
C65   H24   S    
C14   C18   S    
C90   O39   S    
C2    C4    S    
C58   H8    S    
C67   C89   S    
C79   H66   S    
C42   O31   S    
C68   O24   S    
C71   H44   S    
C24   O26   S    
C56   C78   S    
O15   Zn8   S    
C62   H15   S    
C73   H51   S    
C85   C86   S    
C75   H55   S    
C26   C32   S    
C48   O17   A    
C33   C39   S    
C17   C89   S    
C18   C24   S    
C33   C42   S    
C14   C21   S    
C35   C37   S    
C38   C42   S    
C15   O24   S    
C8    C11   S    
C36   O29   S    
C13   O39   S    
C63   H27   S    
O12   Zn2   S    
C80   H70   S    
C75   O31   S    
C17   O2    A    
C5    C10   S    
C83   H80   S    
C83   H79   S    
C70   H40   S    
C33   C36   S    
C49   C57   S    
C68   H33   S    
C7    C9    S    
O23   Zn1   S    
C16   O44   A    
O43   Zn4   S    
C61   H18   S    
C32   H34   S    
O14   Zn7   S    
C71   H42   S    
C60   H19   S    
O12   Zn8   S    
C77   H63   S    
O16   Zn5   S    
C23   C51   S    
C81   H72   S    
C65   H21   S    
C69   H38   S    
C76   O32   S    
C85   H88   S    
O4    Zn8   S    
C45   C67   S    
C34   C57   S    
C46   O41   A    
C88   O38   S    
C79   O35   S    
C69   O25   S    
C35   C43   S    
C37   O30   S    
C86   H86   S    
O2    Zn6   S    
C52   C55   S    
C78   O37   S    
C88   H93   S    
O1    Zn1   S    
C72   H48   S    
C74   H52   S    
C49   O18   A    
O3    Zn7   S    
C9    C46   S    
C2    C45   S    
C64   H25   S    
C66   H30   S    
C4    C56   S    
C59   H10   S    
C81   H73   S    
O9    Zn5   S    
C58   H7    S    
O8    Zn4   S    
C34   H78   S    
C77   H62   S    
O7    Zn3   S    
O1    Zn7   S    
C52   C54   S    
C37   C42   S    
C62   H14   S    
C40   O7    A    
C53   C55   S    
C17   O6    A    
C28   O28   S    
C15   C20   S    
C7    H3    S    
C81   O37   S    
C82   H82   S    
C25   H1    S    
O34   Zn2   S    
C48   O13   A    
C10   C44   S    
C59   H11   S    
C30   C47   S    
C12   O43   A    
C19   C22   S    
C8    H4    S    
C38   C41   S    
O12   Zn4   S    
O13   Zn4   S    
C68   H32   S    
C39   C40   S    
C5    C7    S    
C63   H28   S    
O11   Zn3   S    
C86   C87   S    
C77   O33   S    
C80   H69   S    
C39   C43   S    
C4    C85   S    
C90   H96   S    
C76   H61   S    
C51   O33   S    
C71   O27   S    
O41   Zn8   S    
C79   H65   S    
C40   O23   A    
C3    C45   S    
C70   H39   S    
C47   O16   A    
C60   C61   S    
C51   C53   S    
C35   H56   S    
C67   O36   S    
C15   C19   S    
C65   H22   S    
C41   O8    A    
C2    C78   S    
C16   O5    A    
C77   H64   S    
C37   C39   S    
C66   O22   S    
C33   H45   S    
C88   H92   S    
C83   C84   S    
C49   O14   A    
C76   H60   S    
C22   O25   S    
C12   C20   S    
C3    C82   S    
C53   O20   S    
C66   H31   S    
C73   H49   S    
O44   Zn5   S    
C46   O10   A    
C9    C11   S    
C6    C9    S    
O42   Zn3   S    
O1    Zn3   S    
C19   C63   S    
C26   C29   S    
O40   Zn7   S    
C51   C57   S    
C1    O42   A    
C18   C60   S    
C15   C24   S    
C73   H50   S    
C90   H94   S    
C69   H36   S    
C82   C83   S    
C84   H76   S    
C6    H6    S    
C66   H29   S    
C5    C11   S    
C81   H74   S    
C43   O32   S    
C84   H75   S    
C41   O34   A    
C2    C16   S    
C23   C54   S    
C50   O15   A    
C59   O21   S    
C25   C30   S    
O6    Zn2   S    
C87   H84   S    
C74   H54   S    
C82   H81   S    
C72   H47   S    
C44   O9    A    
C74   O30   S    
C27   C32   S    
C34   C52   S    
C28   C31   S    
C47   O11   A    
C58   H9    S    
C87   H83   S    
C20   C22   S    
C79   H68   S    
C10   C13   S    
C11   O38   S    
C71   H43   S    
C4    C67   S    
C6    C8    S    
C23   C55   S    
C62   H16   S    
C90   H95   S    
C75   H58   S    
C25   C27   S    
C87   H85   S    
C26   C28   S    
C50   C55   S    
C29   C48   S    
C3    C89   S    
C75   H57   S    
C64   C65   S    
C14   C22   S    
O18   Zn1   S    
C36   C38   S    
C59   H13   S    
O17   Zn6   S    
C29   C31   S    
C84   H77   S    
O12   Zn6   S    
C26   H12   S    
C6    C13   S    
C30   C32   S    
C56   C89   S    
C88   H91   S    
C5    H5    S    
O10   Zn6   S    
C76   H59   S    
C85   H90   S    
C3    C78   S    
C23   H67   S    
C60   H20   S    
C28   C30   S    
C70   H41   S    
O5    Zn1   S    
C18   C20   S    
C12   O4    A    
C86   H87   S    
C61   C62   S    
C61   H17   S    
C80   H71   S    
C72   H46   S    
C45   H89   S    
C80   O36   S    
C63   C64   S    
C50   O19   A    
C52   O35   S    
C69   H37   S    
C34   C53   S    
C8    C10   S    
C54   O21   S    
C21   C24   S    
C27   O27   S    
C58   O20   S    
C35   C38   S    
C73   O29   S    
C36   C43   S    
O19   Zn2   S    
C56   H2    S    
C44   O40   A    
C68   H35   S    
C31   H23   S    
O1    Zn5   S    
C19   C21   S    
C54   C57   S    
C1    O3    A    
