data_mof_unit_6547.cif
_audit_creation_date              2012-12-10T20:27:13-0500
_audit_creation_method            fapswitch 2.2
_symmetry_space_group_name_H-M    P1
_symmetry_Int_Tables_number       1
_space_group_crystal_system       triclinic
_cell_length_a                    10.364413
_cell_length_b                    10.772011
_cell_length_c                    9.91992
_cell_angle_alpha                 90.438069
_cell_angle_beta                  101.586286
_cell_angle_gamma                 90.653439
_cell_volume                      1084.82131323

loop_
_atom_site_label
_atom_site_type_symbol
_atom_type_description
_atom_site_fract_x
_atom_site_fract_y
_atom_site_fract_z
_atom_type_partial_charge
C1    C     C_R   0.500626 0.259728 0.499988 0.919543
C2    C     C_R   0.612683 0.520081 0.096862 -0.289790
C3    C     C_R   0.613284 0.522519 0.953370 0.548560
C4    C     C_R   0.256806 0.499863 0.444847 0.975535
C5    C     C_R   0.384682 0.494882 0.904263 -0.076089
C6    C     C_3   0.277600 0.400811 0.867614 -0.585897
C7    C     C_3   0.282010 0.389932 0.023040 0.970312
C8    C     C_R   0.506564 0.739577 0.501855 0.893775
C9    C     C_R   0.742981 0.496465 0.554368 0.845705
C10   C     C_2   0.114829 0.485075 0.421348 -0.308609
C11   C     C_2   0.063796 0.387607 0.477431 0.036612
C12   C     C_R   0.515730 0.127639 0.503663 -0.020899
C13   C     C_2   0.885357 0.479358 0.572574 0.269923
C14   C     C_2   0.925207 0.390034 0.493349 0.374474
C15   C     C_R   0.514988 0.062559 0.624371 -0.060652
C16   C     C_3   0.850736 0.267466 0.299794 -0.315833
C17   C     C_3   0.770342 0.665009 0.931886 -0.313923
C18   C     C_3   0.063939 0.342934 0.031771 -0.252115
C19   C     C_3   0.448488 0.233364 0.066821 -0.401429
C20   C     C_3   0.938089 0.684965 0.623247 -0.355924
C21   C     C_3   0.313132 0.780995 0.812275 -0.248844
C22   C     C_3   0.219012 0.079530 0.773517 -0.253325
C23   C     C_R   0.547314 0.063382 0.391208 -0.163197
C24   C     C_R   0.551138 0.934597 0.391862 -0.243170
C25   C     C_R   0.528530 0.870684 0.507846 -0.035925
C26   C     C_R   0.528347 0.936978 0.628778 -0.068868
C27   C     C_3   0.453770 0.923304 0.742092 0.358764
C28   C     C_3   0.431630 0.063470 0.731487 0.348742
C29   C     C_R   0.385040 0.491917 0.046015 0.114085
H1    H     H_    0.479700 0.117346 0.823319 0.002371
H2    H     H_    0.855481 0.352119 0.237279 0.158637
H3    H     H_    0.763751 0.212169 0.248150 0.171501
H4    H     H_    0.868148 0.676797 0.904175 0.212022
H5    H     H_    0.781724 0.695698 0.041052 0.130308
H6    H     H_    0.699599 0.725465 0.863580 0.155692
H7    H     H_    0.082417 0.265782 0.106662 0.178461
H8    H     H_    0.050197 0.306227 0.924657 0.147281
H9    H     H_    0.970258 0.386989 0.042343 0.197106
H10   H     H_    0.525096 0.266774 0.153448 0.216597
H11   H     H_    0.478212 0.265814 0.972306 0.144220
H12   H     H_    0.703909 0.532705 0.170914 0.171833
H13   H     H_    0.450034 0.130495 0.066382 0.169270
H14   H     H_    0.173481 0.245083 0.432444 0.194384
H15   H     H_    0.080571 0.210584 0.546185 0.219144
H16   H     H_    0.846781 0.707377 0.660389 0.155351
H17   H     H_    0.925090 0.704899 0.511411 0.153541
H18   H     H_    0.016676 0.747931 0.678420 0.199589
H19   H     H_    0.402360 0.732201 0.865627 0.153400
H20   H     H_    0.237290 0.709112 0.773326 0.214660
H21   H     H_    0.276226 0.840856 0.887435 0.123755
H22   H     H_    0.273224 0.065680 0.880987 0.147968
H23   H     H_    0.186310 0.443634 0.809657 0.246708
H24   H     H_    0.151335 0.999423 0.741521 0.194085
H25   H     H_    0.156041 0.161629 0.774553 0.158354
H26   H     H_    0.309222 0.319033 0.815289 0.229852
H27   H     H_    0.053402 0.561244 0.376567 0.115292
H28   H     H_    0.563429 0.110883 0.301154 0.150605
H29   H     H_    0.564468 0.885933 0.299756 0.158294
H30   H     H_    0.521572 0.897123 0.839830 -0.037218
H31   H     H_    0.938789 0.209253 0.301772 0.162253
N1    N     N_R   0.499160 0.499140 0.142600 -0.139939
N2    N     N_R   0.499160 0.499180 0.856960 -0.132145
N3    N     N_3   0.141640 0.279762 0.518830 -0.397688
O1    O     O_R   0.500020 0.316790 0.614700 -0.614588
O2    O     O_3   0.731821 0.539043 0.912804 -0.580861
O3    O     O_3   0.165770 0.433194 0.061436 -0.618496
O4    O     O_3   0.322313 0.272525 0.083335 -0.613852
O5    O     O_3   0.976090 0.560724 0.651496 -0.626197
O6    O     O_3   0.337564 0.850869 0.700156 -0.557773
O7    O     O_3   0.300152 0.096414 0.675610 -0.566369
O8    O     O_R   0.500000 0.316760 0.385350 -0.596480
O9    O     O_R   0.317820 0.500020 0.571850 -0.572111
O10   O     O_R   0.317800 0.499980 0.342510 -0.573702
O11   O     O_R   0.500000 0.683240 0.614650 -0.595388
O12   O     O_R   0.499980 0.683210 0.385300 -0.635519
O13   O     O_R   0.682200 0.500020 0.657490 -0.547856
O14   O     O_R   0.682180 0.499980 0.428150 -0.625095
O15   O     O_3   0.835578 0.297373 0.434467 -0.632481
Zn1   Zn    Zn3+2 0.500010 0.500020 0.653140 0.996537
Zn2   Zn    Zn3+2 0.499990 0.499980 0.346860 0.973146

loop_
_geom_bond_atom_site_label_1
_geom_bond_atom_site_label_2
_ccdc_geom_bond_type
C7    C29   S    
O13   Zn1   S    
C6    H26   S    
C21   H20   S    
H14   N3    S    
C22   H25   S    
C16   H2    S    
C12   C23   A    
C26   C27   S    
C1    O8    A    
C18   H8    S    
O9    Zn1   S    
C11   N3    S    
C5    C6    S    
C11   C14   S    
O14   Zn2   S    
C2    H12   S    
C16   H31   S    
C9    C13   S    
C21   H21   S    
C23   C24   A    
C19   O4    S    
C9    O13   A    
C10   H27   S    
O12   Zn2   S    
C20   H16   S    
C27   O6    S    
C2    N1    A    
C21   H19   S    
C13   C14   D    
C8    C25   S    
C3    O2    S    
C1    C12   S    
C17   H4    S    
O8    Zn2   S    
C22   H24   S    
C5    C29   A    
H15   N3    S    
C29   N1    A    
N2    Zn1   S    
C24   C25   A    
C10   C11   D    
N1    Zn2   S    
C15   C26   A    
C25   C26   A    
C8    O12   A    
C21   O6    S    
C12   C15   A    
C8    O11   A    
C9    O14   A    
C4    O10   A    
C19   H10   S    
O11   Zn1   S    
O1    Zn1   S    
C18   O3    S    
C17   H5    S    
C4    C10   S    
C1    O1    A    
C4    O9    A    
C3    N2    A    
C23   H28   S    
C20   O5    S    
C28   O7    S    
C19   H13   S    
C6    C7    S    
C16   H3    S    
C17   O2    S    
C28   H1    S    
C2    C3    A    
C18   H9    S    
C27   H30   S    
C7    O3    S    
C15   C28   S    
O10   Zn2   S    
C5    N2    A    
C16   O15   S    
C14   O15   S    
C20   H18   S    
C19   H11   S    
C7    O4    S    
C24   H29   S    
C27   C28   S    
C17   H6    S    
C6    H23   S    
C18   H7    S    
C22   O7    S    
C20   H17   S    
C22   H22   S    
C13   O5    S    
