data_mof_unit_43313.cif
_audit_creation_date              2012-12-11T16:53:47-0500
_audit_creation_method            fapswitch 2.2
_symmetry_space_group_name_H-M    P1
_symmetry_Int_Tables_number       1
_space_group_crystal_system       triclinic
_cell_length_a                    14.905984
_cell_length_b                    14.786885
_cell_length_c                    17.012115
_cell_angle_alpha                 108.737901
_cell_angle_beta                  106.457371
_cell_angle_gamma                 108.305079
_cell_volume                      3047.95870032

loop_
_atom_site_label
_atom_site_type_symbol
_atom_type_description
_atom_site_fract_x
_atom_site_fract_y
_atom_site_fract_z
_atom_type_partial_charge
C1    C     C_R   0.086779 0.282334 0.071604 -0.049612
C2    C     C_R   0.063187 0.528681 0.265315 0.031828
C3    C     C_R   0.234116 0.800143 0.187087 -0.128477
C4    C     C_R   0.932344 0.522561 0.749327 -0.109417
C5    C     C_R   0.698868 0.408713 0.998625 -0.166983
C6    C     C_R   0.261420 0.807840 0.274530 0.065990
C7    C     C_R   0.640622 0.442524 0.946580 0.074462
C8    C     C_R   0.971607 0.510652 0.276911 0.122726
C9    C     C_R   0.996091 0.815903 0.966820 0.053731
C10   C     C_R   0.392649 0.464391 0.873595 0.101495
C11   C     C_R   0.343514 0.413990 0.917419 0.077956
C12   C     C_R   0.020976 0.590185 0.750090 0.058367
C13   C     C_R   0.373171 0.339834 0.937809 -0.193294
C14   C     C_R   0.466153 0.338121 0.936476 -0.174033
C15   C     C_R   0.529133 0.410822 0.914994 0.040439
C16   C     C_R   0.719834 0.215387 0.824152 -0.125591
C17   C     C_R   0.485155 0.464069 0.874142 -0.048340
C18   C     C_3   0.527739 0.575416 0.882975 0.525502
C19   C     C_3   0.425425 0.575449 0.881427 -0.679799
C20   C     C_R   0.962546 0.550477 0.364771 -0.086449
C21   C     C_R   0.022885 0.636939 0.686233 0.089442
C22   C     C_R   0.123968 0.714969 0.617100 -0.123673
C23   C     C_R   0.663640 0.219653 0.746306 0.061885
C24   C     C_R   0.117739 0.706011 0.694219 -0.188810
C25   C     C_R   0.931039 0.597939 0.607657 -0.110708
C26   C     C_R   0.937088 0.600023 0.527924 -0.085322
C27   C     C_R   0.037168 0.648760 0.531436 -0.021352
C28   C     C_R   0.248965 0.526505 0.941910 -0.141626
C29   C     C_R   0.051199 0.619624 0.450531 0.523553
C30   C     C_R   0.862217 0.518336 0.362691 -0.393751
C31   C     C_R   0.848206 0.542398 0.443012 0.492827
C32   C     C_R   0.554303 0.148631 0.680966 0.121547
C33   C     C_R   0.305091 0.904373 0.360227 0.124856
C34   C     C_R   0.280633 0.453355 0.957225 0.061861
C35   C     C_R   0.402702 0.096012 0.446759 -0.188115
C36   C     C_R   0.344660 0.005387 0.362955 -0.174526
C37   C     C_R   0.313748 0.895689 0.441435 -0.270510
C38   C     C_R   0.379492 0.984564 0.525414 0.182510
C39   C     C_R   0.427079 0.084848 0.527662 0.177341
C40   C     C_R   0.727168 0.311443 0.747082 -0.119867
C41   C     C_R   0.509825 0.168339 0.607737 -0.259010
C42   C     C_R   0.499316 0.053318 0.682705 -0.172530
C43   C     C_R   0.409843 0.972136 0.605482 -0.205167
C44   C     C_R   0.080541 0.111060 0.139421 -0.070160
C45   C     C_R   0.236985 0.705556 0.265715 -0.138189
C46   C     C_R   0.993934 0.102857 0.071674 0.124225
C47   C     C_R   0.898705 0.010037 0.034674 -0.172578
C48   C     C_R   0.888972 0.938182 0.073439 -0.176957
C49   C     C_R   0.974655 0.955256 0.147614 0.112882
C50   C     C_R   0.071401 0.036674 0.173302 0.051891
C51   C     C_3   0.157264 0.114566 0.265456 -0.542135
C52   C     C_R   0.250708 0.434836 0.023414 -0.127304
C53   C     C_3   0.168167 0.198511 0.230117 0.421823
C54   C     C_R   0.104996 0.610574 0.826049 -0.134548
C55   C     C_R   0.913986 0.198853 0.994459 -0.103628
C56   C     C_R   0.705311 0.502706 0.919925 -0.034408
C57   C     C_R   0.999298 0.187508 0.041529 0.046882
C58   C     C_3   0.615213 0.670482 0.048109 -0.180680
C59   C     C_3   0.194491 0.587790 0.480012 -0.240919
C60   C     C_R   0.889677 0.451061 0.188606 -0.117863
C61   C     C_R   0.082760 0.802867 0.008386 -0.135064
C62   C     C_R   0.910745 0.718871 0.934342 -0.103594
H1    H     H_    0.164968 0.306306 0.119419 0.117876
H2    H     H_    0.493571 0.289410 0.962490 0.126987
H3    H     H_    0.852176 0.501562 0.708520 0.102023
H4    H     H_    0.536126 0.575077 0.820004 0.041209
H5    H     H_    0.432387 0.635042 0.945137 0.205223
H6    H     H_    0.377478 0.575106 0.817867 0.180264
H7    H     H_    0.793400 0.469559 0.298374 0.196408
H8    H     H_    0.199720 0.762360 0.622735 0.151366
H9    H     H_    0.188838 0.744828 0.756642 0.113647
H10   H     H_    0.856675 0.552286 0.604223 0.174904
H11   H     H_    0.547303 0.243309 0.606931 0.129849
H12   H     H_    0.682145 0.526267 0.866532 0.088300
H13   H     H_    0.690009 0.162784 0.852057 0.086497
H14   H     H_    0.529255 0.037647 0.740066 0.116732
H15   H     H_    0.438094 0.172877 0.447814 0.158259
H16   H     H_    0.372472 0.896026 0.605048 0.140416
H17   H     H_    0.337219 0.014543 0.301266 0.118994
H18   H     H_    0.279149 0.818772 0.440164 0.170315
H19   H     H_    0.829923 0.995325 0.979205 0.120891
H20   H     H_    0.813799 0.871803 0.048418 0.162178
H21   H     H_    0.129042 0.124654 0.320107 0.245474
H22   H     H_    0.225704 0.097245 0.278821 0.161560
H23   H     H_    0.806804 0.420107 0.169305 0.106509
H24   H     H_    0.252805 0.554693 0.891446 0.124569
H25   H     H_    0.243817 0.229811 0.225602 0.018419
H26   H     H_    0.706092 0.348651 0.704426 0.099971
H27   H     H_    0.262954 0.381872 0.051840 0.094232
H28   H     H_    0.184369 0.671108 0.854390 0.087934
H29   H     H_    0.832669 0.148269 0.973216 0.093250
H30   H     H_    0.260054 0.684078 0.320142 0.112292
H31   H     H_    0.694452 0.698216 0.101061 0.158237
H32   H     H_    0.562633 0.597913 0.047740 0.140087
H33   H     H_    0.591279 0.734896 0.069577 0.142972
H34   H     H_    0.162904 0.858476 0.031515 0.095010
H35   H     H_    0.216163 0.605030 0.553019 0.146694
H36   H     H_    0.140301 0.501492 0.435350 0.224104
H37   H     H_    0.267185 0.603845 0.469874 0.184118
H38   H     H_    0.646571 0.526918 0.323810 0.336146
H39   H     H_    0.279090 0.434690 0.319873 0.344186
H40   H     H_    0.830926 0.696493 0.890879 0.112176
H41   H     H_    0.140525 0.560634 0.315558 0.169815
H42   H     H_    0.244753 0.864194 0.168055 0.093970
H43   H     H_    0.669775 0.347862 0.019339 0.101008
H44   H     H_    0.332725 0.293199 0.965545 0.127366
N1    N     N_R   0.055640 0.348550 0.045600 -0.043208
N2    N     N_R   0.811290 0.303400 0.871650 -0.041577
N3    N     N_R   0.205180 0.552990 0.997660 -0.045851
N4    N     N_R   0.814810 0.361830 0.823710 -0.044106
N5    N     N_R   0.201660 0.494570 0.045600 -0.040204
N6    N     N_R   0.068420 0.560530 0.871650 -0.041541
N7    N     N_R   0.948050 0.295860 0.997660 -0.047025
N8    N     N_R   0.185190 0.638170 0.176290 -0.044592
N9    N     N_R   0.798340 0.505430 0.954400 -0.053872
N10   N     N_R   0.931580 0.439470 0.128350 -0.048413
N11   N     N_R   0.051950 0.704140 0.002340 -0.041512
N12   N     N_R   0.944360 0.651450 0.954400 -0.046055
N13   N     N_R   0.039170 0.492150 0.176290 -0.048376
N14   N     N_R   0.188710 0.696600 0.128350 -0.043645
N15   N     N_R   0.794820 0.447010 0.002340 -0.045672
N16   N     N_R   0.960830 0.507850 0.823710 -0.041017
Ni1   Ni    Ni4+2 0.119330 0.493420 0.109950 0.266293
Ni2   Ni    Ni4+2 0.880670 0.506580 0.890050 0.207913
Ni3   Ni    Ni4+2 0.872590 0.372590 0.000000 0.219763
Ni4   Ni    Ni4+2 0.127410 0.627410 0.000000 0.206709
O1    O     O_3   0.621336 0.653798 0.963401 -0.622488
O2    O     O_3   0.151905 0.654007 0.456897 -0.678692
O3    O     O_2   0.694390 0.396815 0.450482 -0.270668
O4    O     O_2   0.708231 0.577406 0.503674 -0.306360
O5    O     O_3   0.632163 0.458947 0.328060 -0.515409
O6    O     O_2   0.024559 0.269895 0.251320 -0.261697
O7    O     O_2   0.176191 0.324157 0.390833 -0.306145
O8    O     O_3   0.204071 0.413910 0.286259 -0.591035
S1    S     S_3+6 0.718676 0.493550 0.433564 -0.041055
S2    S     S_3+6 0.139810 0.301879 0.291673 -0.063930

loop_
_geom_bond_atom_site_label_1
_geom_bond_atom_site_label_2
_ccdc_geom_bond_type
C3    H42   S    
N9    N15   A    
C6    C45   A    
C27   C29   A    
C16   H13   S    
C59   H37   S    
O4    S1    D    
N1    Ni1   S    
C3    C6    A    
H38   O5    S    
C39   C41   A    
C5    H43   S    
H39   O8    S    
C4    N16   A    
C43   H16   S    
N15   Ni3   S    
C26   C27   A    
C8    C20   S    
C9    C61   A    
C58   H31   S    
C54   H28   S    
O5    S1    S    
N3    N5    A    
C30   C31   A    
N14   Ni4   S    
N7    Ni3   S    
C10   C17   A    
C23   C40   A    
C5    N15   A    
C33   C36   A    
C18   C19   S    
C45   H30   S    
N1    N7    A    
C55   H29   S    
N4    Ni2   S    
O3    S1    D    
C45   N8    A    
C35   C36   A    
N2    N4    A    
O7    S2    D    
C32   C41   A    
C19   H5    S    
N2    Ni3   S    
C4    C12   A    
N11   Ni4   S    
N6    Ni4   S    
C7    C15   S    
C28   C34   A    
C58   O1    S    
C13   C14   A    
C52   H27   S    
C53   S2    S    
C7    C56   A    
C1    H1    S    
C44   C46   A    
C50   C51   S    
C20   C29   A    
C38   C39   A    
C37   H18   S    
C61   H34   S    
C56   H12   S    
C61   N11   A    
C9    C62   A    
C31   S1    S    
C3    N14   A    
C5    C7    A    
C20   C30   A    
C55   N7    A    
C52   N5    A    
C25   C26   A    
N5    Ni1   S    
C12   C21   S    
C35   H15   S    
C33   C37   A    
C51   C53   S    
C35   C39   A    
C58   H33   S    
N6    N16   A    
C37   C38   A    
C1    C57   A    
C18   O1    S    
C47   C48   A    
C10   C19   S    
O6    S2    D    
C14   H2    S    
C17   C18   S    
C44   C53   S    
C54   N6    A    
C19   H6    S    
C53   H25   S    
C25   H10   S    
N12   Ni2   S    
C1    N1    A    
N8    Ni1   S    
C48   C49   A    
C16   C23   A    
C22   C27   A    
C55   C57   A    
C46   C57   S    
C28   H24   S    
C59   H35   S    
C22   C24   A    
C60   N10   A    
C42   C43   A    
C21   C24   A    
N16   Ni2   S    
C51   H21   S    
C30   H7    S    
C44   C50   A    
C15   C17   A    
C21   C25   A    
C46   C47   A    
N9    Ni2   S    
O8    S2    S    
C34   C52   A    
C11   C34   S    
C2    C8    A    
C13   H44   S    
C36   H17   S    
C40   N4    A    
C2    N13   A    
C6    C33   S    
N13   Ni1   S    
C28   N3    A    
C18   H4    S    
C42   H14   S    
N10   N13   A    
N10   Ni3   S    
C23   C32   S    
C40   H26   S    
C59   O2    S    
C38   C43   A    
N11   N12   A    
C8    C60   A    
C11   C13   A    
C4    H3    S    
C2    H41   S    
C56   N9    A    
C48   H20   S    
C47   H19   S    
C58   H32   S    
C12   C54   A    
C62   N12   A    
C10   C11   A    
C16   N2    A    
C41   H11   S    
N3    Ni4   S    
C26   C31   A    
C49   C50   A    
C29   O2    S    
C59   H36   S    
C32   C42   A    
C14   C15   A    
C60   H23   S    
C51   H22   S    
C22   H8    S    
N8    N14   A    
C24   H9    S    
C62   H40   S    
