data_mof_unit_15549.cif
_audit_creation_date              2012-12-11T20:30:03-0500
_audit_creation_method            fapswitch 2.2
_symmetry_space_group_name_H-M    P1
_symmetry_Int_Tables_number       1
_space_group_crystal_system       triclinic
_cell_length_a                    8.181203
_cell_length_b                    17.393149
_cell_length_c                    18.702543
_cell_angle_alpha                 102.545342
_cell_angle_beta                  91.416561
_cell_angle_gamma                 98.19717
_cell_volume                      2566.95722873

loop_
_atom_site_label
_atom_site_type_symbol
_atom_type_description
_atom_site_fract_x
_atom_site_fract_y
_atom_site_fract_z
_atom_type_partial_charge
Ba1   Ba    Ba6+2 0.853800 0.535410 0.467450 1.638210
Ba2   Ba    Ba6+2 0.336030 0.464660 0.532560 1.637490
C1    C     C_3   0.716265 0.815277 0.293804 0.268447
C2    C     C_3   0.673474 0.735920 0.315729 0.325120
C3    C     C_3   0.462076 0.332585 0.304673 0.315801
C4    C     C_3   0.445967 0.305633 0.221536 -0.381420
C5    C     C_3   0.057024 0.309309 0.725755 0.319791
C6    C     C_3   0.095487 0.298938 0.802810 -0.330674
C7    C     C_3   0.534945 0.262863 0.677268 0.418417
C8    C     C_3   0.521783 0.182236 0.697807 0.316491
C9    C     C_R   0.991801 0.463823 0.046307 0.009088
C10   C     C_R   0.890807 0.424107 0.091111 0.033286
C11   C     C_R   0.727976 0.389929 0.065999 -0.082069
C12   C     C_3   0.129141 0.698140 0.276824 0.330984
C13   C     C_R   0.666190 0.394498 0.996938 -0.083326
C14   C     C_R   0.767138 0.431931 0.950983 0.029518
C15   C     C_R   0.930505 0.466910 0.975620 0.011682
C16   C     C_R   0.707709 0.433309 0.880421 -0.085556
C17   C     C_R   0.810859 0.466648 0.832083 -0.042192
C18   C     C_R   0.973968 0.504114 0.857393 -0.009038
C19   C     C_R   0.032652 0.504371 0.929527 -0.006420
C20   C     C_R   0.757580 0.461763 0.758542 -0.003537
C21   C     C_R   0.867287 0.491263 0.711218 -0.308106
C22   C     C_R   0.024852 0.532635 0.736036 0.043982
C23   C     C_3   0.103031 0.720021 0.203356 -0.307782
C24   C     C_R   0.079192 0.540417 0.810584 -0.043719
C25   C     C_R   0.154342 0.499375 0.071694 -0.006849
C26   C     C_R   0.213737 0.498666 0.143479 -0.010026
C27   C     C_R   0.109546 0.461109 0.189829 -0.044120
C28   C     C_R   0.952492 0.420018 0.160688 -0.036967
C29   C     C_R   0.236608 0.581298 0.839517 -0.038562
C30   C     C_R   0.297189 0.578471 0.909635 0.032169
C31   C     C_R   0.195316 0.539790 0.954863 0.010362
C32   C     C_R   0.256399 0.536921 0.025643 0.010585
C33   C     C_R   0.460046 0.612549 0.934762 -0.078179
C34   C     C_3   0.243404 0.709839 0.630486 0.314327
C35   C     C_R   0.521406 0.608407 0.004002 -0.062336
C36   C     C_R   0.420101 0.571367 0.050079 0.032632
C37   C     C_R   0.377255 0.535480 0.168569 -0.045465
C38   C     C_R   0.479990 0.569253 0.120347 -0.075001
C39   C     C_R   0.431967 0.538381 0.241528 -0.001553
C40   C     C_R   0.324070 0.506814 0.288381 -0.304335
C41   C     C_R   0.165103 0.467242 0.263976 0.044279
C42   C     C_2   0.441586 0.719319 0.479910 -0.281990
C43   C     C_3   0.361189 0.767772 0.435085 -0.026407
C44   C     C_2   0.407265 0.855466 0.463758 -0.049880
C45   C     C_3   0.282506 0.800193 0.652277 -0.392072
C46   C     C_2   0.554156 0.883940 0.500821 0.008912
C47   C     C_2   0.646014 0.827272 0.529622 -0.144636
C48   C     C_1   0.579606 0.751140 0.520956 0.068955
C49   C     C_R   0.806029 0.138400 0.534261 -0.156942
C50   C     C_R   0.862382 0.220228 0.546870 0.027509
C51   C     C_R   0.619450 0.238502 0.479285 0.014118
C52   C     C_R   0.561858 0.157208 0.467171 -0.080112
C53   C     C_R   0.654833 0.106283 0.494022 -0.014346
C54   C     C_2   0.617889 0.970565 0.517911 -0.106457
C55   C     C_2   0.601177 0.019266 0.471426 0.358917
C56   C     C_3   0.951713 0.288851 0.368272 0.281319
C57   C     C_R   0.766630 0.270220 0.521130 -0.279496
C58   C     C_3   0.917515 0.198366 0.345170 -0.345297
C59   C     C_3   0.731096 0.653490 0.694443 0.313906
C60   C     C_3   0.747134 0.681601 0.777527 -0.395347
H1    H     H_    0.745959 0.738590 0.367513 0.042103
H2    H     H_    0.387932 0.818411 0.694095 0.121883
H3    H     H_    0.315700 0.824674 0.603642 0.063790
H4    H     H_    0.172378 0.825225 0.675365 0.128864
H5    H     H_    0.838680 0.311775 0.388403 0.009944
H6    H     H_    0.050143 0.306049 0.412920 0.081507
H7    H     H_    0.810695 0.179440 0.304224 0.152895
H8    H     H_    0.889080 0.172345 0.393215 0.081124
H9    H     H_    0.028135 0.175271 0.320644 0.137441
H10   H     H_    0.850615 0.637522 0.674861 0.009832
H11   H     H_    0.633108 0.600596 0.679729 0.060162
H12   H     H_    0.843292 0.821626 0.274031 0.095899
H13   H     H_    0.850698 0.731764 0.793785 0.130474
H14   H     H_    0.771817 0.632414 0.803283 0.057265
H15   H     H_    0.630586 0.701872 0.797774 0.119804
H16   H     H_    0.539696 0.726211 0.324743 -0.035612
H17   H     H_    0.712135 0.864282 0.342371 0.082716
H18   H     H_    0.340731 0.346903 0.324201 0.015098
H19   H     H_    0.556525 0.386904 0.319357 0.054492
H20   H     H_    0.348173 0.252874 0.204814 0.138291
H21   H     H_    0.412428 0.354429 0.197112 0.048931
H22   H     H_    0.565303 0.289688 0.200585 0.121565
H23   H     H_    0.160837 0.679535 0.160008 0.081521
H24   H     H_    0.116764 0.369778 0.722071 0.074260
H25   H     H_    0.920856 0.304394 0.717178 -0.004330
H26   H     H_    0.231951 0.308852 0.815221 0.146750
H27   H     H_    0.039191 0.342861 0.843446 0.075356
H28   H     H_    0.043729 0.237717 0.808151 0.118840
H29   H     H_    0.663268 0.279327 0.662012 -0.093964
H30   H     H_    0.448960 0.257301 0.629073 0.037270
H31   H     H_    0.519414 0.135855 0.645685 -0.092322
H32   H     H_    0.064842 0.636527 0.273169 0.066496
H33   H     H_    0.401672 0.170092 0.723388 0.063077
H34   H     H_    0.647719 0.360124 0.100018 0.064782
H35   H     H_    0.539867 0.367742 0.979053 0.074404
H36   H     H_    0.826466 0.484863 0.654486 0.072086
H37   H     H_    0.581455 0.406458 0.863438 0.110913
H38   H     H_    0.874029 0.386280 0.192216 0.098079
H39   H     H_    0.316292 0.613772 0.807452 0.095552
H40   H     H_    0.540790 0.641796 0.900585 0.064752
H41   H     H_    0.647948 0.634845 0.021777 0.085125
H42   H     H_    0.606848 0.595101 0.136836 0.120418
H43   H     H_    0.264210 0.699768 0.286364 -0.017052
H44   H     H_    0.366845 0.510747 0.344456 0.072479
H45   H     H_    0.764517 0.849588 0.559874 0.094405
H46   H     H_    0.884230 0.099819 0.551692 0.070680
H47   H     H_    0.680760 0.994969 0.571307 0.026530
H48   H     H_    0.327424 0.894860 0.448769 0.136727
H49   H     H_    0.447914 0.133396 0.434135 0.135181
H50   H     H_    0.402955 0.655284 0.466384 0.081633
H51   H     H_    0.812213 0.333188 0.529092 0.070030
H52   H     H_    0.968712 0.713676 0.188164 0.142498
H53   H     H_    0.161350 0.782681 0.206361 0.178702
H54   H     H_    0.355894 0.685377 0.611657 0.008933
H55   H     H_    0.146206 0.693177 0.585220 0.082357
O1    O     O_2   0.871520 0.445720 0.321500 -0.464075
O2    O     O_3   0.690412 0.715637 0.664424 -0.634446
O3    O     O_3   0.065316 0.752107 0.332772 -0.592588
O4    O     O_2   0.318180 0.554310 0.678550 -0.470806
O5    O     O_3   0.068680 0.548140 0.588860 -0.493926
O6    O     O_3   0.527520 0.406960 0.624950 -0.479006
O7    O     O_3   0.189833 0.681437 0.691643 -0.639282
O8    O     O_3   0.608500 0.402060 0.457050 -0.482651
O9    O     O_3   0.104610 0.363860 0.586060 -0.487292
O10   O     O_2   0.200629 0.223293 0.537637 -0.489498
O11   O     O_3   0.118371 0.250085 0.674400 -0.605605
O12   O     O_3   0.121030 0.451930 0.411150 -0.491321
O13   O     O_3   0.581210 0.598010 0.542960 -0.492982
O14   O     O_2   0.335820 0.303580 0.452320 -0.464091
O15   O     O_3   0.509618 0.271142 0.334508 -0.626702
O16   O     O_2   0.414264 0.462356 0.754800 -0.497787
O17   O     O_3   0.491850 0.319696 0.736541 -0.611793
O18   O     O_3   0.662190 0.593100 0.375060 -0.484662
O19   O     O_2   0.768881 0.530704 0.245561 -0.490189
O20   O     O_3   0.000154 0.318687 0.307263 -0.638596
O21   O     O_3   0.713855 0.675169 0.259738 -0.601671
O22   O     O_2   0.853880 0.696450 0.547730 -0.466651
O23   O     O_3   0.085100 0.636210 0.413950 -0.486309
O24   O     O_2   0.031802 0.782548 0.475736 -0.493554
P1    P     P_3+3 0.038810 0.422920 0.331160 0.975532
P2    P     P_3+3 0.678260 0.686080 0.568600 0.978455
P3    P     P_3+3 0.134575 0.736918 0.417137 0.953768
P4    P     P_3+3 0.150900 0.577150 0.668860 0.972095
P5    P     P_3+3 0.071533 0.262689 0.586133 0.945038
P6    P     P_3+3 0.642662 0.583323 0.280269 0.945221
P7    P     P_3+3 0.519421 0.301566 0.430305 0.959815
P8    P     P_3+3 0.548094 0.414643 0.719321 0.943685
Cl1   Cl    Cl    0.573355 0.822584 0.222865 -0.623317
O25   O     O_3   0.653984 0.184226 0.749355 -0.649729
C61   C     C_3   0.718697 0.111387 0.735864 0.282993
H56   H     H_    0.846097 0.123027 0.762699 0.064705
H57   H     H_    0.735512 0.088597 0.676287 0.025042
C62   C     C_3   0.613207 0.049016 0.769611 -0.197081
H58   H     H_    0.627800 0.068252 0.830991 0.127422
H59   H     H_    0.478978 0.043943 0.752630 0.108681
C63   C     C_3   0.667654 0.967113 0.745343 -0.474527
H60   H     H_    0.633969 0.942586 0.685604 0.130166
H61   H     H_    0.603257 0.925617 0.777004 0.149835
H62   H     H_    0.804307 0.971097 0.755485 0.133505
Cl2   Cl    Cl    0.523923 0.982864 0.378977 -0.682537

loop_
_geom_bond_atom_site_label_1
_geom_bond_atom_site_label_2
_ccdc_geom_bond_type
O20   P1    S    
O6    P8    S    
C4    H20   S    
C59   O2    S    
O2    P2    S    
C39   C40   A    
C60   H15   S    
C17   C18   A    
O3    P3    S    
C33   H40   S    
C1    H17   S    
C7    H29   S    
C51   C57   A    
C5    C6    S    
C37   C39   A    
C51   C52   A    
C42   C43   S    
Ba2   P4    S    
C10   C11   A    
C2    H1    S    
C35   C36   A    
C8    H33   S    
C26   C27   A    
C33   C35   A    
C22   C24   A    
Ba1   Ba2   S    
Ba1   O12   S    
C22   P4    S    
C23   H53   S    
C3    C4    S    
C5    H24   S    
C62   H59   S    
C56   C58   S    
C13   C14   A    
C28   H38   S    
Ba2   O12   S    
C54   C55   D    
C34   C45   S    
C16   C17   A    
O5    P4    S    
C1    H12   S    
Ba1   O5    S    
Ba1   P1    S    
C12   H43   S    
C63   H62   S    
O22   P2    D    
C3    O15   S    
C5    H25   S    
C55   Cl2   S    
C14   C15   A    
C43   P3    S    
C21   C22   A    
C58   H8    S    
C5    O11   S    
C7    C8    S    
C8    H31   S    
C45   H4    S    
Ba1   O22   S    
C10   C28   A    
C7    O17   S    
C20   P8    S    
C24   C29   A    
C27   C41   A    
C62   C63   S    
C63   H61   S    
C60   H14   S    
C13   H35   S    
C7    H30   S    
Ba2   O14   S    
Ba2   O5    S    
C25   C32   A    
O9    P5    S    
C44   C46   D    
C4    H22   S    
C11   H34   S    
C49   C50   A    
O15   P7    S    
C30   C33   A    
C17   C20   A    
O16   P8    D    
C47   H45   S    
Ba1   O13   S    
O24   P3    D    
C45   H2    S    
C35   H41   S    
C49   H46   S    
O12   P1    S    
C58   H9    S    
C59   H11   S    
C43   C44   S    
O17   P8    S    
C51   P7    S    
C15   C19   A    
C6    H26   S    
C2    H16   S    
C27   C28   A    
Ba1   P2    S    
C50   C57   A    
C8    O25   S    
C38   H42   S    
C3    H19   S    
C29   C30   A    
C39   P6    S    
C61   C62   S    
C9    C25   A    
O21   P6    S    
C57   H51   S    
C34   H55   S    
C23   H23   S    
C31   C32   A    
O14   P7    D    
C61   H56   S    
C3    H18   S    
O13   P2    S    
C40   H44   S    
Ba1   O23   S    
C42   H50   S    
C56   O20   S    
C56   H6    S    
C46   C47   S    
C61   H57   S    
O18   P6    S    
C11   C13   A    
C63   H60   S    
O4    P4    D    
C60   H13   S    
C6    H28   S    
C40   C41   A    
C1    C2    S    
C34   H54   S    
Ba2   O9    S    
C54   H47   S    
C37   C38   A    
C48   P2    S    
C59   H10   S    
Ba2   O4    S    
C42   C48   D    
C46   C54   S    
C52   C53   A    
C9    C15   A    
C1    Cl1   S    
C50   P5    S    
C4    H21   S    
C34   O7    S    
C32   C36   A    
O23   P3    S    
Ba1   O8    S    
O1    P1    D    
O8    P7    S    
C9    C10   A    
O7    P4    S    
C12   O3    S    
C26   C37   A    
C30   C31   A    
C53   C55   S    
C44   H48   S    
C23   H52   S    
C36   C38   A    
O11   P5    S    
C18   C24   A    
C58   H7    S    
C29   H39   S    
Ba2   O13   S    
C45   H3    S    
C52   H49   S    
C49   C53   A    
Ba1   O1    S    
C12   C23   S    
C59   C60   S    
O19   P6    D    
O10   P5    D    
C2    O21   S    
Ba2   O8    S    
C56   H5    S    
C21   H36   S    
C19   C31   A    
C18   C19   A    
C14   C16   A    
C47   C48   D    
C16   H37   S    
C62   H58   S    
C20   C21   A    
C41   P1    S    
C6    H27   S    
Ba1   O18   S    
O25   C61   S    
C12   H32   S    
Ba2   O6    S    
C25   C26   A    
