data_mof_unit_25981.cif
_audit_creation_date              2012-12-10T17:10:26-0500
_audit_creation_method            fapswitch 2.2
_symmetry_space_group_name_H-M    P1
_symmetry_Int_Tables_number       1
_space_group_crystal_system       triclinic
_cell_length_a                    10.831765
_cell_length_b                    12.998299
_cell_length_c                    11.628579
_cell_angle_alpha                 100.044068
_cell_angle_beta                  93.793258
_cell_angle_gamma                 90.169829
_cell_volume                      1608.4406638

loop_
_atom_site_label
_atom_site_type_symbol
_atom_type_description
_atom_site_fract_x
_atom_site_fract_y
_atom_site_fract_z
_atom_type_partial_charge
C1    C     C_R   0.498245 0.298922 0.478474 0.807948
C2    C     C_R   0.501758 0.701078 0.521526 0.807913
C3    C     C_R   0.502355 0.814508 0.534049 -0.049682
C4    C     C_R   0.497660 0.185492 0.465950 -0.049688
C5    C     C_R   0.497406 0.014560 0.343647 -0.217441
C6    C     C_R   0.502622 0.985440 0.656353 -0.217462
C7    C     C_R   0.496297 0.122721 0.354611 -0.197876
C8    C     C_R   0.503726 0.877278 0.645389 -0.197880
C9    C     C_R   0.499371 0.139501 0.566328 -0.266793
C10   C     C_R   0.500648 0.860499 0.433672 -0.266799
C11   C     C_R   0.500457 0.031470 0.556107 0.177804
C12   C     C_R   0.499568 0.968529 0.443892 0.177793
C13   C     C_R   0.408997 0.381937 0.019809 -0.014901
C14   C     C_R   0.591053 0.618035 0.980191 -0.014859
C15   C     C_R   0.415503 0.397271 0.143586 0.068809
C16   C     C_R   0.584522 0.602717 0.856415 0.068885
C17   C     C_R   0.534046 0.552626 0.158607 -0.001561
C18   C     C_R   0.465942 0.447378 0.841391 -0.001590
C19   C     C_R   0.531742 0.543336 0.035079 -0.003887
C20   C     C_R   0.468267 0.456656 0.964919 -0.003861
C21   C     C_R   0.262186 0.486657 0.498857 0.811013
C22   C     C_R   0.737806 0.513365 0.501143 0.811019
C23   C     C_R   0.126545 0.466827 0.710383 -0.123338
C24   C     C_R   0.873424 0.533308 0.289640 -0.123331
C25   C     C_R   0.076743 0.500185 0.817856 -0.149703
C26   C     C_R   0.923238 0.500021 0.182166 -0.149781
C27   C     C_R   0.967931 0.556556 0.822535 -0.149086
C28   C     C_R   0.032072 0.443687 0.177466 -0.149074
C29   C     C_R   0.903654 0.571432 0.719008 -0.121420
C30   C     C_R   0.096341 0.428747 0.280972 -0.121401
C31   C     C_R   0.947159 0.529318 0.608540 0.083652
C32   C     C_R   0.052829 0.470792 0.391454 0.083600
C33   C     C_R   0.068010 0.489787 0.605337 0.081902
C34   C     C_R   0.931972 0.510313 0.394666 0.081950
C35   C     C_R   0.874074 0.526454 0.502101 -0.241277
C36   C     C_R   0.125910 0.473618 0.497897 -0.241244
Cu1   Cu    Cu3+1 0.509250 0.507730 0.615930 0.935300
Cu2   Cu    Cu3+1 0.490750 0.492270 0.384070 0.935287
H1    H     H_    0.068099 0.413324 0.093785 0.129003
H2    H     H_    0.931918 0.586993 0.906212 0.128980
H3    H     H_    0.208978 0.420346 0.710216 0.133758
H4    H     H_    0.790969 0.579768 0.289830 0.133719
H5    H     H_    0.124008 0.484087 0.897653 0.130106
H6    H     H_    0.875970 0.516144 0.102379 0.130136
H7    H     H_    0.821579 0.618403 0.726406 0.129313
H8    H     H_    0.178409 0.381774 0.273529 0.129403
H9    H     H_    0.500033 0.812459 0.347413 0.145011
H10   H     H_    0.499984 0.187540 0.652587 0.145015
H11   H     H_    0.496707 0.967066 0.257152 0.132514
H12   H     H_    0.503329 0.032934 0.742847 0.132499
H13   H     H_    0.417409 0.383377 0.784703 0.116270
H14   H     H_    0.582545 0.616644 0.215291 0.116257
N1    N     N_R   0.523180 0.519350 0.790130 -0.189548
N2    N     N_R   0.476820 0.480650 0.209870 -0.189539
O1    O     O_R   0.506570 0.354460 0.582000 -0.593318
O2    O     O_R   0.493430 0.645540 0.418000 -0.593332
O3    O     O_R   0.490940 0.341410 0.386200 -0.599792
O4    O     O_R   0.509060 0.658590 0.613800 -0.599796
O5    O     O_R   0.327470 0.506520 0.597900 -0.577435
O6    O     O_R   0.672530 0.493480 0.402100 -0.577424
O7    O     O_R   0.311840 0.493460 0.402100 -0.577647
O8    O     O_R   0.688160 0.506540 0.597900 -0.577612
C37   C     C_3   0.341638 0.287254 0.945588 -0.442545
C38   C     C_3   0.284505 0.209172 0.012922 -0.363839
C39   C     C_3   0.222078 0.117531 0.928946 -0.825161
H15   H     H_    0.146391 0.145750 0.873702 0.253942
H16   H     H_    0.290488 0.075242 0.871722 0.250047
H17   H     H_    0.182100 0.062296 0.979727 0.241566
H18   H     H_    0.357959 0.177863 0.068152 0.213745
H19   H     H_    0.213831 0.248679 0.069620 0.209153
H20   H     H_    0.266287 0.315921 0.890177 0.193027
H21   H     H_    0.408609 0.244062 0.887193 0.199342
C40   C     C_3   0.658525 0.712659 0.054417 -0.442445
C41   C     C_3   0.715954 0.790614 0.987085 -0.364098
C42   C     C_3   0.778639 0.882069 0.071069 -0.824790
H22   H     H_    0.710212 0.924734 0.128020 0.250053
H23   H     H_    0.853886 0.853573 0.126617 0.253926
H24   H     H_    0.819279 0.937049 0.020269 0.241520
H25   H     H_    0.786533 0.750945 0.930391 0.209149
H26   H     H_    0.642666 0.822105 0.931850 0.213773
H27   H     H_    0.591578 0.755967 0.112764 0.199294
H28   H     H_    0.733757 0.683904 0.109893 0.192947
H29   H     H_    0.505102 0.842898 0.723874 0.150066
H30   H     H_    0.494921 0.157102 0.276126 0.150033
H31   H     H_    0.627002 0.657714 0.811238 0.112907
H32   H     H_    0.373025 0.342276 0.188767 0.112903

loop_
_geom_bond_atom_site_label_1
_geom_bond_atom_site_label_2
_ccdc_geom_bond_type
C27   C29   A    
C8    H29   S    
C24   H4    S    
C40   C41   S    
C19   C20   A    
C25   H5    S    
Cu1   O8    S    
C26   H6    S    
C21   C36   S    
C22   C35   S    
C32   C36   A    
C24   C26   A    
C21   O5    A    
C22   O6    A    
C33   C36   A    
C18   C20   A    
C34   C35   A    
C16   N1    A    
C18   N1    A    
C23   C33   A    
C13   C37   S    
C31   C33   A    
C38   H19   S    
C21   O7    A    
Cu1   O4    S    
Cu2   O7    S    
Cu1   N1    S    
C7    H30   S    
C41   H26   S    
C5    H11   S    
C4    C7    A    
C17   H14   S    
C40   H27   S    
C18   H13   S    
C41   C42   S    
C14   C40   S    
C5    C12   A    
C3    C8    A    
C6    C11   A    
C5    C7    A    
C6    C8    A    
C28   H1    S    
C39   H16   S    
C24   C34   A    
C29   H7    S    
C32   C34   A    
C42   H22   S    
C15   N2    A    
Cu1   Cu2   S    
C1    O3    A    
C22   O8    A    
Cu2   O3    S    
C9    C11   A    
Cu2   N2    S    
C27   H2    S    
C39   H17   S    
C38   H18   S    
C6    H12   S    
C42   H23   S    
Cu1   O5    S    
C10   C12   A    
C15   H32   S    
Cu2   O6    S    
C37   H20   S    
C41   H25   S    
C13   C15   A    
C16   H31   S    
C14   C16   A    
C40   H28   S    
C13   C20   A    
C14   C19   A    
C30   H8    S    
C11   C12   A    
C2    O4    A    
C25   C27   A    
C26   C28   A    
C23   H3    S    
C1    C4    S    
C38   C39   S    
C28   C30   A    
C2    C3    S    
C1    O1    A    
C29   C31   A    
C3    C10   A    
C2    O2    A    
C30   C32   A    
C17   C19   A    
C31   C35   A    
C23   C25   A    
C42   H24   S    
C37   C38   S    
Cu1   O1    S    
Cu2   O2    S    
C37   H21   S    
C9    H10   S    
C39   H15   S    
C10   H9    S    
C4    C9    A    
C17   N2    A    
