data_mof_unit_42566.cif
_audit_creation_date              2012-12-10T16:32:36-0500
_audit_creation_method            fapswitch 2.2
_symmetry_space_group_name_H-M    P1
_symmetry_Int_Tables_number       1
_space_group_crystal_system       triclinic
_cell_length_a                    16.822763
_cell_length_b                    16.823658
_cell_length_c                    16.817678
_cell_angle_alpha                 64.397333
_cell_angle_beta                  64.40184
_cell_angle_gamma                 64.503091
_cell_volume                      3693.12301701

loop_
_atom_site_label
_atom_site_type_symbol
_atom_type_description
_atom_site_fract_x
_atom_site_fract_y
_atom_site_fract_z
_atom_type_partial_charge
C1    C     C_R   0.582131 0.032032 0.603781 0.114556
C2    C     C_R   0.821328 0.557511 0.047736 0.855885
C3    C     C_R   0.429922 0.976677 0.177870 0.995064
C4    C     C_R   0.557781 0.047478 0.821210 0.848374
C5    C     C_R   0.570011 0.822188 0.023451 0.982418
C6    C     C_R   0.442108 0.178832 0.952833 0.848017
C7    C     C_R   0.023313 0.570081 0.822133 0.986290
C8    C     C_R   0.952544 0.442202 0.178787 0.861389
C9    C     C_R   0.822134 0.023318 0.570080 0.988172
C10   C     C_R   0.178725 0.952599 0.442258 0.845468
C11   C     C_R   0.533154 0.015889 0.556771 0.176352
C12   C     C_R   0.396100 0.968111 0.417919 0.114797
C13   C     C_R   0.443144 0.984277 0.466845 0.176315
C14   C     C_R   0.015565 0.556933 0.533177 0.176279
C15   C     C_R   0.983866 0.466966 0.443266 0.177459
C16   C     C_R   0.556529 0.533650 0.015597 0.178422
C17   C     C_R   0.466536 0.443472 0.984327 0.176222
C18   C     C_R   0.572202 0.019551 0.461704 -0.109217
C19   C     C_R   0.395076 0.004642 0.552566 -0.118793
C20   C     C_R   0.019222 0.461907 0.572224 -0.109598
C21   C     C_R   0.004174 0.552754 0.395130 -0.118655
C22   C     C_R   0.461508 0.572420 0.019540 -0.111322
C23   C     C_R   0.031791 0.603942 0.582095 0.114551
C24   C     C_R   0.552232 0.395570 0.004561 -0.119215
C25   C     C_R   0.538180 0.980585 0.427802 -0.110332
C26   C     C_R   0.447367 0.995580 0.604904 -0.118615
C27   C     C_R   0.427560 0.538440 0.980603 -0.109811
C28   C     C_R   0.604567 0.448038 0.995200 -0.117640
C29   C     C_R   0.980212 0.427917 0.538334 -0.109236
C30   C     C_R   0.995171 0.605021 0.447461 -0.118885
C31   C     C_R   0.533641 0.077650 0.672601 0.401324
C32   C     C_R   0.417896 0.000974 0.320336 0.300410
C33   C     C_R   0.077417 0.672870 0.533451 0.401387
C34   C     C_R   0.967762 0.417957 0.396255 0.112349
C35   C     C_R   0.000714 0.320485 0.417954 0.301191
C36   C     C_R   0.672601 0.534038 0.076976 0.375342
C37   C     C_R   0.320149 0.417993 0.001138 0.301503
C38   C     C_R   0.327153 0.922510 0.466558 0.402371
C39   C     C_R   0.679595 0.999127 0.582102 0.300701
C40   C     C_R   0.466190 0.327426 0.922833 0.400959
C41   C     C_R   0.581853 0.680150 0.998807 0.319022
C42   C     C_R   0.922168 0.466409 0.327401 0.399497
C43   C     C_R   0.998961 0.582135 0.679680 0.300593
C44   C     C_R   0.584261 0.080330 0.720212 -0.359249
C45   C     C_R   0.603622 0.582641 0.031586 0.111156
C46   C     C_R   0.390432 0.965902 0.275668 -0.243356
C47   C     C_R   0.080201 0.720406 0.584088 -0.357717
C48   C     C_R   0.965785 0.275659 0.390502 -0.243331
C49   C     C_R   0.720579 0.584519 0.079330 -0.256176
C50   C     C_R   0.275510 0.390504 0.966077 -0.242243
C51   C     C_R   0.279593 0.919773 0.415916 -0.358336
C52   C     C_R   0.724371 0.034140 0.609518 -0.242753
C53   C     C_R   0.415587 0.279725 0.920248 -0.358263
C54   C     C_R   0.609906 0.724781 0.033352 -0.293182
C55   C     C_R   0.919594 0.415748 0.279778 -0.349337
C56   C     C_R   0.417626 0.396330 0.968298 0.114185
C57   C     C_R   0.034072 0.609574 0.724336 -0.243077
C58   C     C_R   0.674038 0.081344 0.674690 0.355122
C59   C     C_R   0.325143 0.918699 0.326145 0.357541
C60   C     C_R   0.081295 0.674844 0.673853 0.355199
C61   C     C_R   0.918603 0.325965 0.325303 0.352955
C62   C     C_R   0.676518 0.674165 0.078920 0.331839
C63   C     C_R   0.325891 0.325116 0.919147 0.355280
C64   C     C_2   0.416342 0.954609 0.707326 0.548728
C65   C     C_2   0.604092 0.930059 0.358795 0.545915
C66   C     C_2   0.954200 0.707297 0.416583 0.549807
C67   C     C_R   0.976668 0.177875 0.429921 0.989766
C68   C     C_2   0.929692 0.358780 0.604433 0.545195
C69   C     C_2   0.706828 0.417372 0.953868 0.548754
C70   C     C_2   0.358665 0.604390 0.929990 0.545247
C71   C     C_2   0.292806 0.045651 0.583445 0.548747
C72   C     C_2   0.641363 0.070046 0.395618 0.545207
C73   C     C_2   0.583099 0.293307 0.045782 0.550015
C74   C     C_2   0.395500 0.641120 0.070358 0.546986
C75   C     C_2   0.045102 0.583795 0.292703 0.548008
C76   C     C_2   0.069775 0.395960 0.641213 0.545045
C77   C     C_R   0.047390 0.821272 0.557751 0.845065
C78   C     C_R   0.177834 0.429978 0.976677 0.989101
H1    H     H_    0.345412 0.954198 0.744081 0.028231
H2    H     H_    0.329714 0.683806 0.057960 0.034272
H3    H     H_    0.045437 0.654743 0.255933 0.028322
H4    H     H_    0.056918 0.330356 0.684432 0.035246
H5    H     H_    0.418349 0.152007 0.736999 0.340420
H6    H     H_    0.450317 0.102261 0.212500 0.370296
H7    H     H_    0.151747 0.737467 0.417889 0.340747
H8    H     H_    0.102042 0.213047 0.450146 0.370001
H9    H     H_    0.736654 0.418627 0.151613 0.341075
H10   H     H_    0.212415 0.450232 0.102420 0.369927
H11   H     H_    0.262537 0.848187 0.582114 0.340560
H12   H     H_    0.669692 0.942919 0.315557 0.034190
H13   H     H_    0.787082 0.897824 0.549957 0.369747
H14   H     H_    0.581561 0.263220 0.848329 0.340836
H15   H     H_    0.549266 0.787810 0.897647 0.370437
H16   H     H_    0.847761 0.581662 0.262929 0.363457
H17   H     H_    0.897687 0.549726 0.787531 0.369324
H18   H     H_    0.666489 0.159941 0.736747 0.335713
H19   H     H_    0.262921 0.840055 0.333942 0.335462
H20   H     H_    0.159972 0.737040 0.666041 0.335339
H21   H     H_    0.840076 0.333466 0.263187 0.337093
H22   H     H_    0.743362 0.750206 0.063439 0.359597
H23   H     H_    0.953729 0.744070 0.345649 0.028233
H24   H     H_    0.333651 0.263042 0.840449 0.335342
H25   H     H_    0.942498 0.315668 0.670057 0.034818
H26   H     H_    0.743499 0.346545 0.953329 0.028854
H27   H     H_    0.315753 0.670012 0.942670 0.035155
H28   H     H_    0.256052 0.046114 0.654380 0.028197
H29   H     H_    0.684535 0.057179 0.330037 0.035072
H30   H     H_    0.653969 0.256753 0.046222 0.027999
O1    O     O_R   0.982940 0.138950 0.510160 -0.596855
O2    O     O_R   0.982940 0.510160 0.138950 -0.587682
O3    O     O_R   0.861050 0.017060 0.489840 -0.596441
O4    O     O_R   0.138950 0.982940 0.510160 -0.591238
O5    O     O_R   0.867700 0.025880 0.612340 -0.556879
O6    O     O_R   0.132300 0.974120 0.387660 -0.610969
O7    O     O_R   0.025880 0.612340 0.867700 -0.559314
O8    O     O_R   0.974120 0.387660 0.132300 -0.613829
O9    O     O_R   0.612340 0.867700 0.025880 -0.613511
O10   O     O_R   0.387660 0.132300 0.974120 -0.610720
O11   O     O_R   0.387660 0.974120 0.132300 -0.554187
O12   O     O_R   0.017060 0.861050 0.489840 -0.591206
O13   O     O_R   0.612340 0.025880 0.867700 -0.611565
O14   O     O_R   0.132300 0.387660 0.974120 -0.554953
O15   O     O_R   0.867700 0.612340 0.025880 -0.630920
O16   O     O_R   0.974120 0.132300 0.387660 -0.555452
O17   O     O_R   0.025880 0.867700 0.612340 -0.612545
O18   O     O_2   0.471331 0.915017 0.751616 -0.551118
O19   O     O_2   0.588363 0.868429 0.353427 -0.536095
O20   O     O_2   0.914674 0.751428 0.471720 -0.550585
O21   O     O_2   0.868119 0.353154 0.588850 -0.540433
O22   O     O_2   0.751042 0.472550 0.914123 -0.553220
O23   O     O_R   0.138950 0.510160 0.982940 -0.596606
O24   O     O_2   0.353069 0.588703 0.868458 -0.541291
O25   O     O_2   0.248662 0.085217 0.528308 -0.550385
O26   O     O_2   0.646947 0.131661 0.411164 -0.540793
O27   O     O_2   0.528043 0.248952 0.085544 -0.550244
O28   O     O_2   0.411346 0.646795 0.131747 -0.537069
O29   O     O_2   0.084745 0.528802 0.248423 -0.551248
O30   O     O_2   0.131426 0.411663 0.646579 -0.541262
O31   O     O_3   0.438845 0.115788 0.694502 -0.747458
O32   O     O_3   0.465355 0.065764 0.271441 -0.731191
O33   O     O_3   0.115472 0.694927 0.438507 -0.747249
O34   O     O_R   0.861050 0.489840 0.017060 -0.600849
O35   O     O_3   0.065470 0.271853 0.465291 -0.731114
O36   O     O_3   0.694189 0.439231 0.115330 -0.746142
O37   O     O_3   0.271330 0.465369 0.065879 -0.730942
O38   O     O_3   0.305103 0.884433 0.561501 -0.747327
O39   O     O_3   0.728268 0.934346 0.534807 -0.731177
O40   O     O_3   0.561013 0.305656 0.884622 -0.747469
O41   O     O_3   0.533967 0.729003 0.934496 -0.731770
O42   O     O_3   0.883962 0.561204 0.305457 -0.742374
O43   O     O_3   0.934156 0.534694 0.728589 -0.731084
O44   O     O_3   0.715433 0.118469 0.700007 -0.695392
O45   O     O_R   0.510160 0.982940 0.138950 -0.596088
O46   O     O_3   0.299771 0.881522 0.284857 -0.693895
O47   O     O_3   0.118505 0.700191 0.715132 -0.695488
O48   O     O_3   0.881539 0.284540 0.299953 -0.694137
O49   O     O_3   0.704922 0.712249 0.116209 -0.700545
O50   O     O_3   0.284633 0.299665 0.882009 -0.694640
O51   O     O_R   0.489840 0.017060 0.861050 -0.590120
O52   O     O_R   0.489840 0.861050 0.017060 -0.581128
O53   O     O_R   0.510160 0.138950 0.982940 -0.590162
O54   O     O_R   0.017060 0.489840 0.861050 -0.595565
Zn1   Zn    Zn3+2 0.004880 0.004880 0.583590 1.059622
Zn2   Zn    Zn3+2 0.995120 0.995120 0.416410 1.063187
Zn3   Zn    Zn3+2 0.004880 0.583590 0.004880 1.051790
Zn4   Zn    Zn3+2 0.995120 0.416410 0.995120 1.062828
Zn5   Zn    Zn3+2 0.583590 0.004880 0.004880 1.035285
Zn6   Zn    Zn3+2 0.416410 0.995120 0.995120 1.066039

loop_
_geom_bond_atom_site_label_1
_geom_bond_atom_site_label_2
_ccdc_geom_bond_type
C16   C28   A    
C11   C18   A    
C9    O3    A    
O14   Zn4   S    
C46   C59   A    
H14   O40   S    
O12   Zn2   S    
H15   O41   S    
C28   C69   S    
C34   C42   A    
C68   H25   S    
C3    O45   A    
C77   O12   A    
O8    Zn4   S    
C67   O16   A    
H24   O50   S    
H13   O39   S    
C77   O17   A    
C2    O15   A    
C35   O35   S    
C18   C25   A    
C8    O8    A    
C65   O19   D    
C32   O32   S    
O2    Zn3   S    
C24   C73   S    
C4    O51   A    
C41   O41   S    
C10   C51   S    
H18   O44   S    
C1    C31   A    
C23   C43   A    
O51   Zn6   S    
C20   C76   S    
C34   C35   A    
C65   H12   S    
C7    O7    A    
O5    Zn1   S    
C19   C26   A    
C26   C64   S    
C72   O26   D    
C38   O38   S    
C47   C60   A    
O54   Zn4   S    
C37   C56   A    
C19   C71   S    
H22   O49   S    
C67   O1    A    
C73   O27   D    
C44   C58   A    
C69   O22   D    
C40   C56   A    
C74   O28   D    
H10   O37   S    
C72   H29   S    
C10   O4    A    
H9    O36   S    
O7    Zn3   S    
C15   C34   S    
C10   O6    A    
C39   C52   A    
C74   H2    S    
C12   C32   A    
C50   C63   A    
C66   H23   S    
C13   C25   A    
O17   Zn1   S    
C9    C52   S    
C14   C30   A    
C42   O42   S    
C35   C48   A    
C50   C78   S    
C8    C55   S    
H5    O31   S    
C76   H4    S    
C59   O46   S    
C58   O44   S    
H8    O35   S    
C15   C29   A    
C20   C29   A    
C18   C72   S    
H11   O38   S    
O13   Zn5   S    
C7    O54   A    
C17   C24   A    
C31   C44   A    
C40   O40   S    
C17   C27   A    
C14   C20   A    
C5    C54   S    
C25   C65   S    
O1    Zn1   S    
H7    O33   S    
C13   C19   A    
C75   H3    S    
C57   C60   A    
C38   C51   A    
C4    C44   S    
C11   C26   A    
C23   C33   A    
C5    O9    A    
C14   C23   S    
C78   O23   A    
C2    C49   S    
C8    O2    A    
C42   C55   A    
O34   Zn4   S    
C29   C68   S    
C1    C39   A    
O6    Zn2   S    
C6    O53   A    
C5    O52   A    
H21   O48   S    
C70   O24   D    
C62   O49   S    
C36   C45   A    
O53   Zn5   S    
H19   O46   S    
C52   C58   A    
C17   C56   S    
H6    O32   S    
C30   C66   S    
C27   C70   S    
C3    O11   A    
C64   O18   D    
C22   C27   A    
C75   O29   D    
C33   C47   A    
C64   H1    S    
H17   O43   S    
C47   C77   S    
C6    C53   S    
C31   O31   S    
C61   O48   S    
C43   O43   S    
C69   H26   S    
O4    Zn1   S    
H20   O47   S    
C16   C22   A    
C49   C62   A    
C32   C46   A    
O3    Zn2   S    
C24   C28   A    
C73   H30   S    
C70   H27   S    
C16   C45   S    
C71   O25   D    
C76   O30   D    
H16   O42   S    
C54   C62   A    
C21   C30   A    
C21   C75   S    
C3    C46   S    
C33   O33   S    
C36   O36   S    
C60   O47   S    
C9    O5    A    
C37   C50   A    
C53   C63   A    
C48   C61   A    
O9    Zn5   S    
C2    O34   A    
C55   C61   A    
O10   Zn6   S    
C66   O20   D    
C4    O13   A    
O52   Zn6   S    
C48   C67   S    
C12   C38   A    
C68   O21   D    
C78   O14   A    
C41   C54   A    
C43   C57   A    
O15   Zn3   S    
C15   C21   A    
C51   C59   A    
C12   C13   S    
O23   Zn3   S    
C22   C74   S    
C40   C53   A    
C71   H28   S    
C39   O39   S    
C41   C45   A    
C1    C11   S    
C63   O50   S    
C37   O37   S    
O11   Zn6   S    
C7    C57   S    
O45   Zn5   S    
C36   C49   A    
C6    O10   A    
O16   Zn2   S    
