data_mof_unit_67790.cif
_audit_creation_date              2012-12-10T16:53:53-0500
_audit_creation_method            fapswitch 2.2
_symmetry_space_group_name_H-M    P1
_symmetry_Int_Tables_number       1
_space_group_crystal_system       triclinic
_cell_length_a                    7.871445
_cell_length_b                    8.579174
_cell_length_c                    10.698779
_cell_angle_alpha                 90.560012
_cell_angle_beta                  84.5541
_cell_angle_gamma                 93.516804
_cell_volume                      717.872600541

loop_
_atom_site_label
_atom_site_type_symbol
_atom_type_description
_atom_site_fract_x
_atom_site_fract_y
_atom_site_fract_z
_atom_type_partial_charge
C1    C     C_R   0.544586 0.794388 0.502629 0.953955
C2    C     C_3   0.323207 0.542448 0.941569 -0.412422
C3    C     C_3   0.329134 0.554660 0.083041 -0.393088
C4    C     C_3   0.533761 0.331130 0.925412 -0.412018
C5    C     C_3   0.636902 0.616277 0.915952 -0.491442
C6    C     C_3   0.498358 0.495197 0.878319 0.145124
C7    C     C_3   0.964162 0.285293 0.309150 0.138748
C8    C     C_3   0.053068 0.158412 0.372098 -0.362852
C9    C     C_3   0.966647 0.996876 0.362452 -0.966069
C10   C     C_3   0.992178 0.760235 0.637592 0.187166
C11   C     C_3   0.094282 0.826008 0.741956 -0.407467
C12   C     C_3   0.501140 0.500248 0.120608 0.101800
C13   C     C_3   0.085566 0.003675 0.750663 -0.977302
C14   C     C_3   0.802048 0.856040 0.065050 0.076273
C15   C     C_3   0.974183 0.798550 0.097792 -0.364334
C16   C     C_3   0.120351 0.925902 0.078235 -0.953831
C17   C     C_3   0.522538 0.331355 0.070244 -0.518441
C18   C     C_3   0.653005 0.608252 0.058244 0.390873
C19   C     C_2   0.561967 0.957812 0.520885 -0.383389
C20   C     C_2   0.430879 0.041861 0.500302 -0.370303
C21   C     C_R   0.499222 0.495914 0.741861 0.816187
C22   C     C_R   0.454447 0.205650 0.504624 0.920269
C23   C     C_R   0.500112 0.500866 0.257791 0.866750
H1    H     H_    0.640077 0.283965 0.101416 0.157837
H2    H     H_    0.995738 0.277368 0.206039 0.089871
H3    H     H_    0.823988 0.267796 0.324742 0.187319
H4    H     H_    0.187022 0.158242 0.328643 0.216355
H5    H     H_    0.051114 0.185052 0.473593 0.243933
H6    H     H_    0.869851 0.991801 0.294409 0.289835
H7    H     H_    0.901807 0.963028 0.453659 0.249216
H8    H     H_    0.064375 0.910682 0.341359 0.264954
H9    H     H_    0.862917 0.805954 0.651290 0.137442
H10   H     H_    0.056965 0.806022 0.547363 0.130896
H11   H     H_    0.041266 0.772154 0.831702 0.219334
H12   H     H_    0.674907 0.009901 0.558673 0.156828
H13   H     H_    0.229716 0.797244 0.723278 0.247197
H14   H     H_    0.115339 0.057513 0.656945 0.272465
H15   H     H_    0.180236 0.054462 0.812294 0.264715
H16   H     H_    0.955681 0.034584 0.788656 0.256200
H17   H     H_    0.291897 0.657202 0.905793 0.173873
H18   H     H_    0.315447 0.676978 0.114265 0.216373
H19   H     H_    0.219095 0.482186 0.128773 0.205569
H20   H     H_    0.411942 0.252964 0.108084 0.192299
H21   H     H_    0.784311 0.974461 0.104548 0.153615
H22   H     H_    0.805883 0.873413 0.962437 0.131132
H23   H     H_    0.439060 0.241786 0.892779 0.168343
H24   H     H_    0.960425 0.755249 0.195615 0.256786
H25   H     H_    0.009146 0.697144 0.038000 0.184916
H26   H     H_    0.073511 0.045330 0.084077 0.262491
H27   H     H_    0.193513 0.911075 0.986040 0.265086
H28   H     H_    0.212293 0.916644 0.149647 0.264666
H29   H     H_    0.763795 0.595962 0.865442 0.183144
H30   H     H_    0.599501 0.733325 0.888573 0.163901
H31   H     H_    0.219710 0.454643 0.919969 0.192117
H32   H     H_    0.771443 0.549311 0.073162 0.084905
H33   H     H_    0.663226 0.298817 0.886656 0.179965
H34   H     H_    0.310833 0.990880 0.472042 0.174062
N1    N     N_2   0.950330 0.457950 0.465890 0.158540
N2    N     N_2   0.049670 0.542050 0.534110 0.172804
O1    O     O_R   0.389250 0.738570 0.508370 -0.631660
O2    O     O_3   0.972371 0.595467 0.642027 -0.561817
O3    O     O_3   0.658099 0.759183 0.114498 -0.653519
O4    O     O_R   0.678390 0.711620 0.486510 -0.621978
O5    O     O_R   0.355430 0.513500 0.696140 -0.625992
O6    O     O_R   0.644580 0.486550 0.674270 -0.589758
O7    O     O_R   0.321610 0.288380 0.513490 -0.640255
O8    O     O_R   0.610750 0.261430 0.491630 -0.634966
O9    O     O_R   0.355420 0.513450 0.325730 -0.583158
O10   O     O_R   0.644570 0.486500 0.303860 -0.640821
O11   O     O_3   0.025371 0.432863 0.349689 -0.567919
Zn1   Zn    Zn3+2 0.306940 0.517990 0.514600 1.002011
Zn2   Zn    Zn3+2 0.693060 0.482010 0.485400 0.996656

loop_
_geom_bond_atom_site_label_1
_geom_bond_atom_site_label_2
_ccdc_geom_bond_type
C23   O9    A    
C12   C17   S    
O10   Zn2   S    
O7    Zn1   S    
C17   H20   S    
C3    H19   S    
C22   O7    A    
C3    C12   S    
C15   H24   S    
C14   H22   S    
O6    Zn2   S    
C23   O10   A    
C13   H14   S    
C19   C20   D    
C7    H2    S    
C16   H28   S    
C9    H6    S    
N2    Zn1   S    
C7    O11   S    
C2    C3    S    
N1    N2    D    
C7    C8    S    
C5    H29   S    
C19   H12   S    
C4    H33   S    
C4    H23   S    
C11   C13   S    
C12   C23   S    
N1    Zn2   S    
C13   H15   S    
C2    C6    S    
C7    H3    S    
C15   H25   S    
O9    Zn1   S    
C18   H32   S    
C4    C17   S    
C1    O4    A    
C5    H30   S    
C11   H13   S    
O4    Zn2   S    
C16   H27   S    
O8    Zn2   S    
C10   H10   S    
C5    C6    S    
C8    H5    S    
C22   O8    A    
C13   H16   S    
C17   H1    S    
C1    C19   S    
C10   C11   S    
C9    H8    S    
O5    Zn1   S    
C15   C16   S    
C10   O2    S    
C10   H9    S    
C16   H26   S    
C9    H7    S    
C14   H21   S    
C4    C6    S    
C2    H31   S    
C1    O1    A    
C12   C18   S    
C8    H4    S    
C14   C15   S    
C3    H18   S    
C21   O5    A    
C18   O3    S    
C5    C18   S    
O1    Zn1   S    
C21   O6    A    
C20   H34   S    
C6    C21   S    
C11   H11   S    
N1    O11   S    
C2    H17   S    
C20   C22   S    
C8    C9    S    
N2    O2    S    
C14   O3    S    
