data_mof_unit_56488.cif
_audit_creation_date              2012-12-10T17:19:52-0500
_audit_creation_method            fapswitch 2.2
_symmetry_space_group_name_H-M    P1
_symmetry_Int_Tables_number       1
_space_group_crystal_system       triclinic
_cell_length_a                    9.660395
_cell_length_b                    10.78388
_cell_length_c                    15.513581
_cell_angle_alpha                 85.136122
_cell_angle_beta                  73.738717
_cell_angle_gamma                 88.834973
_cell_volume                      1545.8997907

loop_
_atom_site_label
_atom_site_type_symbol
_atom_type_description
_atom_site_fract_x
_atom_site_fract_y
_atom_site_fract_z
_atom_type_partial_charge
C1    C     C_R   0.999632 0.262865 0.503629 0.774080
C2    C     C_R   0.676240 0.468886 0.910789 0.090135
C3    C     C_R   0.776063 0.496561 0.958458 0.171249
C4    C     C_R   0.528807 0.444964 0.958598 0.067945
C5    C     C_R   0.481477 0.461189 0.052361 0.063361
C6    C     C_R   0.585656 0.483722 0.097714 -0.226079
C7    C     C_R   0.729887 0.501247 0.051448 -0.246478
C8    C     C_R   0.427472 0.404031 0.916356 -0.221502
C9    C     C_R   0.283157 0.386153 0.963472 -0.243499
C10   C     C_R   0.233558 0.411601 0.053431 0.170620
C11   C     C_R   0.331643 0.451998 0.098152 0.093335
C12   C     C_R   0.917783 0.498377 0.671992 0.761408
C13   C     C_R   0.086525 0.397145 0.099380 -0.219488
C14   C     C_R   0.034960 0.425492 0.188814 -0.219524
C15   C     C_R   0.275828 0.484891 0.186812 -0.253696
C16   C     C_R   0.030384 0.108693 0.661554 -0.187348
C17   C     C_R   0.043119 0.033487 0.736649 -0.134989
C18   C     C_R   0.040265 0.904409 0.736680 -0.130736
C19   C     C_R   0.024775 0.849656 0.661592 -0.170234
C20   C     C_R   0.012447 0.923852 0.584596 0.101333
C21   C     C_R   0.015334 0.055144 0.584641 0.093208
C22   C     C_R   0.000054 0.128913 0.508126 -0.083045
C23   C     C_R   0.998391 0.737241 0.501710 0.787888
C24   C     C_R   0.982373 0.074703 0.433774 -0.182971
C25   C     C_R   0.981807 0.947133 0.433291 -0.235178
C26   C     C_R   0.995221 0.870945 0.507767 -0.092159
C27   C     C_R   0.697819 0.636120 0.350501 0.287761
C28   C     C_R   0.646208 0.673223 0.275849 -0.236764
C29   C     C_R   0.501559 0.685898 0.286664 -0.311039
C30   C     C_R   0.406855 0.645317 0.367358 -0.130762
C31   C     C_R   0.452087 0.570162 0.433026 0.186627
C32   C     C_R   0.603044 0.568056 0.429429 0.117443
C33   C     C_R   0.546044 0.434702 0.564923 -0.052551
C34   C     C_R   0.082293 0.492470 0.328847 0.805767
C35   C     C_R   0.399028 0.433711 0.564326 -0.058567
C36   C     C_R   0.871663 0.495360 0.770714 -0.047035
C37   C     C_R   0.129728 0.470274 0.232783 -0.056889
C38   C     C_R   0.921526 0.519883 0.912524 -0.219059
C39   C     C_R   0.969312 0.518349 0.819286 -0.214973
C40   C     C_R   0.726767 0.470734 0.816461 -0.244467
Cu1   Cu    Cu3+1 0.140660 0.499990 0.500010 0.933110
Cu2   Cu    Cu3+1 0.859340 0.500010 0.499990 0.957200
H1    H     H_    0.805458 0.520277 0.088825 0.145316
H2    H     H_    0.011687 0.362982 0.066252 0.140407
H3    H     H_    0.971707 0.131734 0.374946 0.144377
H4    H     H_    0.031479 0.208559 0.664549 0.128912
H5    H     H_    0.054527 0.075546 0.795234 0.133954
H6    H     H_    0.049430 0.846399 0.795286 0.138599
H7    H     H_    0.021566 0.749289 0.664740 0.140108
H8    H     H_    0.974653 0.909092 0.373096 0.151873
H9    H     H_    0.577682 0.380721 0.618275 0.128288
H10   H     H_    0.715310 0.716436 0.213687 0.171874
H11   H     H_    0.343944 0.524564 0.221321 0.159757
H12   H     H_    0.462695 0.733856 0.233781 0.170320
H13   H     H_    0.298622 0.673247 0.373981 0.205173
H14   H     H_    0.321946 0.378822 0.617161 0.128352
H15   H     H_    0.921683 0.411682 0.223614 0.158091
H16   H     H_    0.209399 0.353994 0.928706 0.144370
H17   H     H_    0.998096 0.541011 0.948648 0.141791
H18   H     H_    0.654487 0.456606 0.776553 0.146825
H19   H     H_    0.559876 0.484578 0.169812 0.164832
H20   H     H_    0.456724 0.381196 0.847325 0.136410
N1    N     N_R   0.648320 0.501210 0.499140 -0.187389
N2    N     N_R   0.352470 0.501290 0.499110 -0.190528
O1    O     O_R   0.118810 0.319640 0.500010 -0.571840
O2    O     O_R   0.881240 0.319660 0.500000 -0.575954
O3    O     O_R   0.055570 0.499980 0.629840 -0.594072
O4    O     O_R   0.818000 0.500010 0.629830 -0.583290
O5    O     O_R   0.118760 0.680340 0.500000 -0.600814
O6    O     O_R   0.881190 0.680360 0.499990 -0.552270
O7    O     O_R   0.182000 0.499990 0.370170 -0.601404
O8    O     O_R   0.944430 0.500020 0.370160 -0.543291
N3    N     N_2   0.817647 0.705876 0.355515 -0.350117
H21   H     H_    0.782272 0.782557 0.390931 0.249364
C41   C     C_3   0.931707 0.738436 0.272957 -0.723279
H22   H     H_    0.036284 0.744870 0.288763 0.209392
H23   H     H_    0.908831 0.829808 0.240973 0.205090
H24   H     H_    0.943259 0.667027 0.224049 0.231367
H25   H     H_    0.081779 0.537832 0.785148 0.155975

loop_
_geom_bond_atom_site_label_1
_geom_bond_atom_site_label_2
_ccdc_geom_bond_type
C8    C9    A    
C16   C21   A    
C40   H18   S    
C34   C37   S    
Cu1   Cu2   S    
C23   O5    A    
C19   C20   A    
C4    C8    A    
Cu1   O3    S    
C12   O4    A    
C24   H3    S    
C15   H11   S    
C6    H19   S    
C28   C29   A    
C5    C11   A    
C3    C7    A    
C5    C6    A    
C29   H12   S    
Cu2   O6    S    
C9    H16   S    
N3    H21   S    
C23   C26   S    
C25   H8    S    
C15   C37   A    
C13   C14   A    
C11   C15   A    
C3    C38   A    
C16   C17   A    
C1    O1    A    
C35   N2    A    
C7    H1    S    
C12   C36   S    
C9    C10   A    
Cu1   O7    S    
C27   C32   A    
C1    C22   S    
C21   C22   A    
Cu2   O4    S    
N3    C41   S    
C23   O6    A    
C1    O2    A    
C38   C39   A    
C12   O3    A    
C36   C40   A    
C24   C25   A    
C16   H4    S    
C18   C19   A    
Cu1   O1    S    
C25   C26   A    
C39   H25   S    
C2    C4    A    
C41   H22   S    
C29   C30   A    
C19   H7    S    
C31   C32   A    
C33   N1    A    
Cu2   O8    S    
C17   C18   A    
C41   H23   S    
C22   C24   A    
C34   O8    A    
Cu1   O5    S    
C14   H15   S    
C35   H14   S    
C31   N2    A    
C36   C39   A    
C17   H5    S    
C32   N1    A    
C4    C5    A    
C10   C13   A    
C18   H6    S    
C6    C7    A    
C33   H9    S    
C30   H13   S    
C2    C3    A    
C14   C37   A    
C28   H10   S    
C30   C31   A    
C20   C26   A    
C34   O7    A    
C33   C35   A    
C41   H24   S    
C10   C11   A    
C38   H17   S    
C2    C40   A    
C20   C21   A    
C27   C28   A    
Cu2   O2    S    
Cu1   N2    S    
C27   N3    S    
Cu2   N1    S    
C13   H2    S    
C8    H20   S    
