data_mof_unit_36547.cif
_audit_creation_date              2012-12-10T20:28:44-0500
_audit_creation_method            fapswitch 2.2
_symmetry_space_group_name_H-M    P1
_symmetry_Int_Tables_number       1
_space_group_crystal_system       triclinic
_cell_length_a                    10.610817
_cell_length_b                    10.645038
_cell_length_c                    9.948758
_cell_angle_alpha                 90.038714
_cell_angle_beta                  89.051816
_cell_angle_gamma                 91.329716
_cell_volume                      1123.28109364

loop_
_atom_site_label
_atom_site_type_symbol
_atom_type_description
_atom_site_fract_x
_atom_site_fract_y
_atom_site_fract_z
_atom_type_partial_charge
C1    C     C_R   0.495411 0.259918 0.500091 0.908914
C2    C     C_R   0.456849 0.933807 0.376660 -0.243405
C3    C     C_R   0.463255 0.869541 0.499465 -0.035480
C4    C     C_R   0.260828 0.499051 0.501372 0.865854
C5    C     C_R   0.441873 0.934721 0.618864 -0.035022
C6    C     C_3   0.493503 0.925807 0.757160 -0.656749
C7    C     C_3   0.500194 0.071061 0.758462 1.024244
C8    C     C_R   0.390166 0.486557 0.072478 0.095038
C9    C     C_R   0.610572 0.500828 0.070480 0.411284
C10   C     C_R   0.609985 0.509989 0.927043 0.455640
C11   C     C_R   0.390194 0.484554 0.930690 0.156393
C12   C     C_R   0.070364 0.618299 0.541935 0.038706
C13   C     C_3   0.280818 0.570122 0.926817 -0.474264
C14   C     C_3   0.281318 0.572298 0.079445 -0.468735
C15   C     C_R   0.490396 0.739182 0.500164 0.942911
C16   C     C_R   0.739308 0.507166 0.498608 1.042569
C17   C     C_R   0.139407 0.724184 0.589204 -0.176172
C18   C     C_R   0.079998 0.836853 0.614983 -0.220692
C19   C     C_R   0.953297 0.848292 0.586088 -0.242336
C20   C     C_R   0.883767 0.745537 0.534622 0.513378
C21   C     C_R   0.939867 0.625736 0.525320 -0.086615
C22   C     C_3   0.445320 0.129778 0.977793 -0.312481
C23   C     C_R   0.128853 0.505866 0.505217 -0.134328
C24   C     C_3   0.710824 0.075156 0.835797 -0.429839
C25   C     C_3   0.802626 0.584300 0.136487 -0.165726
C26   C     C_3   0.739767 0.662495 0.838980 -0.309996
C27   C     C_3   0.774394 0.844982 0.372407 -0.341427
C28   C     C_3   0.853934 0.214982 0.543274 -0.302300
C29   C     C_R   0.061985 0.399508 0.464306 -0.304435
C30   C     C_R   0.932648 0.400821 0.464700 0.514013
C31   C     C_R   0.872481 0.513293 0.494130 -0.230706
C32   C     C_R   0.448375 0.062416 0.619225 0.067638
C33   C     C_R   0.471204 0.127961 0.499567 -0.130956
C34   C     C_R   0.461627 0.063688 0.376728 -0.215357
H1    H     H_    0.305738 0.662608 0.880361 0.197701
H2    H     H_    0.463536 0.033303 0.014330 0.130456
H3    H     H_    0.366278 0.166366 0.039552 0.186471
H4    H     H_    0.764363 0.007034 0.774313 0.171514
H5    H     H_    0.670320 0.027093 0.926197 0.157377
H6    H     H_    0.778814 0.148212 0.871042 0.222399
H7    H     H_    0.863360 0.580077 0.225650 0.173718
H8    H     H_    0.750978 0.673891 0.143164 0.099127
H9    H     H_    0.868432 0.583256 0.048961 0.178306
H10   H     H_    0.841953 0.683863 0.825067 0.177330
H11   H     H_    0.705069 0.721415 0.923778 0.085819
H12   H     H_    0.195423 0.522740 0.885410 0.221209
H13   H     H_    0.692782 0.692090 0.746723 0.232314
H14   H     H_    0.307111 0.665891 0.121981 0.199165
H15   H     H_    0.858566 0.827055 0.307099 0.147858
H16   H     H_    0.774997 0.944468 0.405441 0.185591
H17   H     H_    0.690845 0.829738 0.308937 0.193820
H18   H     H_    0.785003 0.138124 0.521842 0.200947
H19   H     H_    0.817981 0.265825 0.633473 0.210160
H20   H     H_    0.946020 0.172222 0.565036 0.153095
H21   H     H_    0.467830 0.112205 0.281150 0.168103
H22   H     H_    0.460426 0.885280 0.280960 0.152624
H23   H     H_    0.196187 0.526131 0.125792 0.217097
H24   H     H_    0.422518 0.884850 0.828967 0.188914
H25   H     H_    0.239287 0.721015 0.607105 0.150323
H26   H     H_    0.133594 0.916986 0.652242 0.172089
H27   H     H_    0.909804 0.938375 0.599052 0.138037
H28   H     H_    0.110142 0.314464 0.435765 0.159631
H29   H     H_    0.585264 0.878588 0.756193 0.195375
H30   H     H_    0.527827 0.193939 0.993766 0.200177
N1    N     N_R   0.499160 0.499140 0.142800 -0.181390
N2    N     N_R   0.499160 0.499180 0.857150 -0.172364
O1    O     O_R   0.500020 0.316790 0.614690 -0.561445
O2    O     O_3   0.620545 0.133511 0.755267 -0.617559
O3    O     O_3   0.721877 0.476951 0.135631 -0.546340
O4    O     O_3   0.722894 0.531440 0.859854 -0.566028
O5    O     O_3   0.764791 0.763829 0.484896 -0.652910
O6    O     O_3   0.864186 0.293873 0.429712 -0.598028
O7    O     O_R   0.500000 0.316760 0.385350 -0.615258
O8    O     O_R   0.316770 0.500020 0.614690 -0.626800
O9    O     O_R   0.316760 0.499980 0.385350 -0.622500
O10   O     O_R   0.500000 0.683240 0.614650 -0.640198
O11   O     O_R   0.499980 0.683210 0.385310 -0.635891
O12   O     O_R   0.683240 0.500020 0.614650 -0.574823
O13   O     O_R   0.683230 0.499980 0.385310 -0.537787
O14   O     O_3   0.409549 0.130054 0.842109 -0.622976
Zn1   Zn    Zn3+2 0.500010 0.500020 0.653130 1.001730
Zn2   Zn    Zn3+2 0.499990 0.499980 0.346870 0.984259

loop_
_geom_bond_atom_site_label_1
_geom_bond_atom_site_label_2
_ccdc_geom_bond_type
C11   C13   S    
C6    H24   S    
C19   C20   A    
C25   H9    S    
C26   H10   S    
C16   C31   S    
C21   C31   A    
C12   C23   A    
C5    C6    S    
C23   C29   A    
C9    O3    S    
C13   H1    S    
C30   C31   A    
C24   H5    S    
C18   C19   A    
C4    O9    A    
C26   H11   S    
C24   H6    S    
C7    O2    S    
C12   C17   A    
C24   H4    S    
C20   O5    S    
C9    C10   A    
C4    O8    A    
C27   H16   S    
C5    C32   A    
C2    C34   A    
C15   O10   A    
C34   H21   S    
C13   C14   S    
C28   O6    S    
C27   H17   S    
C17   C18   A    
C10   N2    A    
C1    C33   S    
C25   H7    S    
C4    C23   S    
C28   H20   S    
C14   H14   S    
C22   H3    S    
C12   C21   A    
C27   O5    S    
C6    H29   S    
O10   Zn1   S    
C29   C30   A    
C33   C34   A    
C26   H13   S    
C17   H25   S    
C10   O4    S    
C18   H26   S    
O1    Zn1   S    
C26   O4    S    
C25   O3    S    
O8    Zn1   S    
O7    Zn2   S    
C3    C15   S    
C14   H23   S    
C29   H28   S    
C8    C14   S    
C7    C32   S    
C3    C5    A    
C25   H8    S    
O13   Zn2   S    
C30   O6    S    
C28   H19   S    
C11   N2    A    
O9    Zn2   S    
C6    C7    S    
C22   H2    S    
C16   O13   A    
C1    O7    A    
C32   C33   A    
C2    C3    A    
C22   O14   S    
C2    H22   S    
N2    Zn1   S    
C28   H18   S    
O12   Zn1   S    
N1    Zn2   S    
C15   O11   A    
O11   Zn2   S    
C19   H27   S    
C8    C11   A    
C1    O1    A    
C16   O12   A    
C9    N1    A    
C24   O2    S    
C22   H30   S    
C8    N1    A    
C20   C21   A    
C13   H12   S    
C27   H15   S    
C7    O14   S    
