data_mof_unit_51736.cif
_audit_creation_date              2012-12-10T17:46:31-0500
_audit_creation_method            fapswitch 2.2
_symmetry_space_group_name_H-M    P1
_symmetry_Int_Tables_number       1
_space_group_crystal_system       triclinic
_cell_length_a                    20.774537
_cell_length_b                    21.09706
_cell_length_c                    14.799431
_cell_angle_alpha                 90.000966
_cell_angle_beta                  128.946956
_cell_angle_gamma                 89.99845
_cell_volume                      5044.59358291

loop_
_atom_site_label
_atom_site_type_symbol
_atom_type_description
_atom_site_fract_x
_atom_site_fract_y
_atom_site_fract_z
_atom_type_partial_charge
C1    C     C_R   0.604587 0.914977 0.634071 0.841484
C2    C     C_R   0.397174 0.087039 0.368470 0.825672
C3    C     C_R   0.395416 0.914974 0.365933 0.841455
C4    C     C_R   0.602819 0.087045 0.631521 0.825622
C5    C     C_R   0.104585 0.414975 0.634068 0.841406
C6    C     C_R   0.897169 0.587033 0.368464 0.825794
C7    C     C_R   0.895418 0.414971 0.365937 0.841389
C8    C     C_R   0.102825 0.587038 0.631530 0.825751
C9    C     C_R   0.346670 0.770814 0.934468 -0.337732
C10   C     C_R   0.613930 0.323789 0.940585 -0.297707
C11   C     C_R   0.653166 0.770663 0.065267 -0.337683
C12   C     C_R   0.386036 0.323870 0.059527 -0.297711
C13   C     C_R   0.846514 0.270975 0.934220 -0.337752
C14   C     C_R   0.113970 0.823898 0.940451 -0.297740
C15   C     C_R   0.153352 0.270846 0.065567 -0.337714
C16   C     C_R   0.885986 0.824000 0.059682 -0.297760
C17   C     C_R   0.321683 0.010424 0.661559 -0.289136
C18   C     C_R   0.678330 0.010275 0.338443 -0.289163
C19   C     C_R   0.821682 0.510411 0.661561 -0.289154
C20   C     C_R   0.178326 0.510354 0.338446 -0.289171
C21   C     C_R   0.351739 0.009630 0.600716 0.087422
C22   C     C_R   0.648277 0.009536 0.399292 0.087385
C23   C     C_R   0.851736 0.509612 0.600714 0.087426
C24   C     C_R   0.148272 0.509573 0.399293 0.087399
C25   C     C_R   0.487652 0.990464 0.774619 0.081776
C26   C     C_R   0.512326 0.990510 0.225373 0.081681
C27   C     C_R   0.987658 0.490487 0.774624 0.081599
C28   C     C_R   0.012335 0.490512 0.225370 0.081566
C29   C     C_R   0.462493 0.995573 0.844398 -0.021391
C30   C     C_R   0.537487 0.995557 0.155589 -0.021484
C31   C     C_R   0.962500 0.495604 0.844405 -0.021467
C32   C     C_R   0.037497 0.495607 0.155593 -0.021559
C33   C     C_R   0.376524 0.003369 0.782666 0.079764
C34   C     C_R   0.623471 0.003261 0.217327 0.079732
C35   C     C_R   0.876528 0.503382 0.782673 0.079743
C36   C     C_R   0.123475 0.503344 0.217330 0.079776
C37   C     C_R   0.517610 0.994595 0.970335 -0.089561
C38   C     C_R   0.482366 0.994607 0.029648 -0.089576
C39   C     C_R   0.017620 0.494648 0.970342 -0.089656
C40   C     C_R   0.982378 0.494663 0.029657 -0.089759
C41   C     C_R   0.393928 0.997530 0.960797 0.512421
C42   C     C_R   0.606045 0.997470 0.039176 0.512285
C43   C     C_R   0.893945 0.497592 0.960816 0.512450
C44   C     C_R   0.106056 0.497545 0.039182 0.512457
C45   C     C_R   0.344318 0.004757 0.840458 -0.286794
C46   C     C_R   0.655676 0.004618 0.159531 -0.286672
C47   C     C_R   0.844326 0.504786 0.840472 -0.286742
C48   C     C_R   0.155679 0.504726 0.159533 -0.286793
C49   C     C_R   0.662169 0.138566 0.704545 -0.165132
C50   C     C_R   0.324269 0.877468 0.272988 -0.167227
C51   C     C_R   0.337787 0.138529 0.295393 -0.165073
C52   C     C_R   0.675746 0.877489 0.727035 -0.167204
C53   C     C_R   0.162216 0.638523 0.704612 -0.165025
C54   C     C_R   0.824276 0.377454 0.273011 -0.167280
C55   C     C_R   0.837746 0.638495 0.295342 -0.164983
C56   C     C_R   0.175734 0.377468 0.727011 -0.167240
C57   C     C_R   0.790871 0.192471 0.782648 -0.179197
C58   C     C_R   0.175644 0.871386 0.127131 -0.166723
C59   C     C_R   0.208979 0.192318 0.217086 -0.179195
C60   C     C_R   0.824365 0.871507 0.873033 -0.166770
C61   C     C_R   0.291049 0.692277 0.782969 -0.179185
C62   C     C_R   0.675648 0.371298 0.127263 -0.166703
C63   C     C_R   0.708810 0.692138 0.216796 -0.179200
C64   C     C_R   0.324359 0.371371 0.872856 -0.166724
C65   C     C_R   0.730500 0.147930 0.707845 -0.262157
C66   C     C_R   0.245225 0.892078 0.235429 -0.286231
C67   C     C_R   0.269387 0.147814 0.291953 -0.262224
C68   C     C_R   0.754798 0.892171 0.764697 -0.286282
C69   C     C_R   0.230634 0.647783 0.708090 -0.262191
C70   C     C_R   0.745238 0.392022 0.235521 -0.286208
C71   C     C_R   0.769268 0.647686 0.291749 -0.262252
C72   C     C_R   0.254778 0.392071 0.764564 -0.286229
C73   C     C_R   0.652234 0.177708 0.772551 0.478493
C74   C     C_R   0.333359 0.838265 0.204941 0.531730
C75   C     C_R   0.347748 0.177705 0.227447 0.478446
C76   C     C_R   0.666640 0.838247 0.795022 0.531746
C77   C     C_R   0.152243 0.677714 0.772531 0.478421
C78   C     C_R   0.833350 0.338263 0.204936 0.531704
C79   C     C_R   0.847734 0.677715 0.227471 0.478411
C80   C     C_R   0.166645 0.338267 0.795060 0.531722
C81   C     C_R   0.709506 0.227486 0.840111 -0.018527
C82   C     C_R   0.264289 0.826094 0.087440 -0.029327
C83   C     C_R   0.290426 0.227447 0.159819 -0.018593
C84   C     C_R   0.735678 0.826095 0.912549 -0.029251
C85   C     C_R   0.209579 0.727445 0.840180 -0.018556
C86   C     C_R   0.764256 0.326076 0.087454 -0.029365
C87   C     C_R   0.790342 0.727406 0.159745 -0.018569
C88   C     C_R   0.235717 0.326092 0.912557 -0.029313
C89   C     C_R   0.782457 0.230398 0.852263 0.037103
C90   C     C_R   0.184418 0.839855 0.051946 -0.000816
C91   C     C_R   0.217423 0.230288 0.147547 0.037107
C92   C     C_R   0.815561 0.839929 0.948149 -0.000837
C93   C     C_R   0.282596 0.730262 0.852484 0.037136
C94   C     C_R   0.684396 0.339786 0.052038 -0.000748
C95   C     C_R   0.717275 0.730151 0.147321 0.037143
C96   C     C_R   0.315587 0.339841 0.948042 -0.000805
C97   C     C_R   0.699555 0.271296 0.903268 -0.136504
C98   C     C_R   0.271271 0.799217 0.005258 -0.107146
C99   C     C_R   0.300385 0.271296 0.096719 -0.136541
C100  C     C_R   0.728652 0.799172 0.994659 -0.107129
C101  C     C_R   0.199620 0.771304 0.903272 -0.136548
C102  C     C_R   0.771208 0.299234 0.005218 -0.107208
C103  C     C_R   0.800304 0.771295 0.096697 -0.136565
C104  C     C_R   0.228736 0.299218 0.994741 -0.107129
C105  C     C_R   0.344351 0.803234 0.015842 0.541465
C106  C     C_R   0.620549 0.290700 0.865404 0.564888
C107  C     C_R   0.655521 0.803123 0.983958 0.541424
C108  C     C_R   0.379395 0.290756 0.134666 0.564872
C109  C     C_R   0.844250 0.303315 0.015717 0.541487
C110  C     C_R   0.120612 0.790783 0.865312 0.564839
C111  C     C_R   0.155661 0.303247 0.984169 0.541455
C112  C     C_R   0.879315 0.790844 0.134758 0.564821
Cu1   Cu    Cu3+1 0.526640 1.000000 0.436960 0.972712
Cu2   Cu    Cu3+1 0.473360 1.000000 0.563040 0.972737
Cu3   Cu    Cu3+1 0.026640 0.500000 0.436960 0.972687
Cu4   Cu    Cu3+1 0.973360 0.500000 0.563040 0.972707
H1    H     H_    0.399391 0.775794 0.936421 0.133657
H2    H     H_    0.553014 0.337097 0.911062 0.159803
H3    H     H_    0.600402 0.775585 0.063225 0.133672
H4    H     H_    0.446954 0.337216 0.089110 0.159806
H5    H     H_    0.899192 0.276021 0.936083 0.133701
H6    H     H_    0.053053 0.837257 0.910858 0.159847
H7    H     H_    0.100638 0.275846 0.063630 0.133723
H8    H     H_    0.946905 0.837415 0.089356 0.159827
H9    H     H_    0.237289 0.922094 0.287190 0.164542
H10   H     H_    0.739449 0.118621 0.656444 0.167126
H11   H     H_    0.762744 0.922223 0.712987 0.164498
H12   H     H_    0.260416 0.118468 0.343290 0.167052
H13   H     H_    0.737313 0.422023 0.287310 0.164555
H14   H     H_    0.239614 0.618424 0.656772 0.167034
H15   H     H_    0.262713 0.422083 0.712800 0.164525
H16   H     H_    0.760278 0.618301 0.343027 0.166987
H17   H     H_    0.345509 0.695903 0.788558 0.138278
H18   H     H_    0.614844 0.382999 0.099695 0.142754
H19   H     H_    0.654309 0.695710 0.211115 0.138292
H20   H     H_    0.385168 0.383104 0.900478 0.142749
H21   H     H_    0.845271 0.196176 0.788103 0.138299
H22   H     H_    0.114835 0.883127 0.099503 0.142765
H23   H     H_    0.154532 0.195963 0.211524 0.138319
H24   H     H_    0.885180 0.883307 0.900746 0.142758
H25   H     H_    0.278498 0.012846 0.790439 0.143137
H26   H     H_    0.721508 0.012651 0.209561 0.143112
H27   H     H_    0.778504 0.512869 0.790458 0.143154
H28   H     H_    0.221507 0.512781 0.209558 0.143120
H29   H     H_    0.451541 0.976880 0.192113 0.219500
H30   H     H_    0.548416 0.976746 0.807889 0.219474
H31   H     H_    0.951554 0.476845 0.192089 0.219504
H32   H     H_    0.048427 0.476780 0.807896 0.219530
H33   H     H_    0.690108 0.015760 0.492571 0.112259
H34   H     H_    0.309922 0.015892 0.507445 0.112277
H35   H     H_    0.190097 0.515799 0.492571 0.112260
H36   H     H_    0.809914 0.515858 0.507440 0.112263
H37   H     H_    0.255871 0.017096 0.614198 0.128507
H38   H     H_    0.744152 0.016875 0.385808 0.128497
H39   H     H_    0.755868 0.517070 0.614200 0.128501
H40   H     H_    0.244145 0.516981 0.385813 0.128490
N1    N     N_R   0.433280 0.000000 0.657760 -0.198806
N2    N     N_R   0.566720 1.000000 0.342240 -0.198815
N3    N     N_R   0.933280 0.500000 0.657760 -0.198816
N4    N     N_R   0.066720 0.500000 0.342240 -0.198805
O1    O     O_R   0.600040 0.935040 0.546740 -0.589559
O2    O     O_R   0.399960 0.064960 0.453260 -0.591099
O3    O     O_R   0.399960 0.935040 0.453260 -0.589573
O4    O     O_R   0.600040 0.064960 0.546740 -0.591085
O5    O     O_R   0.100040 0.435040 0.546740 -0.589569
O6    O     O_R   0.899960 0.564960 0.453260 -0.591060
O7    O     O_R   0.899960 0.435040 0.453260 -0.589582
O8    O     O_R   0.100040 0.564960 0.546740 -0.591061
O9    O     O_R   0.555010 0.935070 0.653220 -0.556750
O10   O     O_R   0.444990 0.064930 0.346780 -0.537747
O11   O     O_R   0.444990 0.935070 0.346780 -0.556669
O12   O     O_R   0.555010 0.064930 0.653220 -0.537616
O13   O     O_R   0.055010 0.435070 0.653220 -0.556686
O14   O     O_R   0.944990 0.564930 0.346780 -0.537815
O15   O     O_R   0.944990 0.435070 0.346780 -0.556653
O16   O     O_R   0.055010 0.564930 0.653220 -0.537735
O17   O     O_3   0.356882 0.004427 0.012024 -0.640471
C113  C     C_3   0.283909 0.967938 0.957198 -0.335935
H41   H     H_    0.283947 0.924007 0.915562 0.184127
H42   H     H_    0.228959 0.997289 0.892064 0.151655
H43   H     H_    0.278074 0.953588 0.023849 0.200280
O18   O     O_3   0.643075 0.004432 0.987936 -0.640534
C114  C     C_3   0.715997 0.967895 0.042614 -0.336209
H44   H     H_    0.715848 0.923877 0.083971 0.184342
H45   H     H_    0.770989 0.997155 0.107962 0.151692
H46   H     H_    0.721854 0.953688 0.975914 0.200193
O19   O     O_3   0.856912 0.504547 0.012051 -0.640465
C115  C     C_3   0.783962 0.468032 0.957321 -0.336113
H47   H     H_    0.783979 0.424104 0.915662 0.184124
H48   H     H_    0.728987 0.497371 0.892214 0.151749
H49   H     H_    0.778200 0.453678 0.024038 0.200291
O20   O     O_3   0.143086 0.504479 0.987936 -0.640447
C116  C     C_3   0.216058 0.467992 0.042705 -0.336089
H50   H     H_    0.216036 0.424048 0.084327 0.184150
H51   H     H_    0.271011 0.497338 0.107844 0.151704
H52   H     H_    0.221869 0.453664 0.976021 0.200262
O21   O     O_3   0.410067 0.811617 0.256227 -0.544237
C117  C     C_3   0.410656 0.749738 0.292600 -0.372541
H53   H     H_    0.364297 0.718953 0.217482 0.159018
H54   H     H_    0.399877 0.750214 0.357410 0.159663
H55   H     H_    0.472605 0.728683 0.335332 0.185242
O22   O     O_3   0.589051 0.164647 0.777112 -0.532897
C118  C     C_3   0.622419 0.131759 0.881027 -0.199982
H56   H     H_    0.660467 0.163339 0.957941 0.134072
H57   H     H_    0.660074 0.090439 0.892004 0.177925
H58   H     H_    0.570513 0.114045 0.877199 0.208435
O23   O     O_3   0.589951 0.811540 0.743652 -0.544297
C119  C     C_3   0.589464 0.749683 0.707287 -0.372684
H59   H     H_    0.635796 0.718900 0.782427 0.159081
H60   H     H_    0.600353 0.750205 0.642598 0.159685
H61   H     H_    0.527515 0.728597 0.664419 0.185246
O24   O     O_3   0.411013 0.164714 0.223028 -0.532884
C120  C     C_3   0.377767 0.131832 0.119151 -0.200156
H62   H     H_    0.339736 0.163407 0.042223 0.134148
H63   H     H_    0.340130 0.090484 0.108108 0.178029
H64   H     H_    0.429740 0.114160 0.123101 0.208213
O25   O     O_3   0.910060 0.311628 0.256185 -0.544137
C121  C     C_3   0.910673 0.249741 0.292552 -0.372282
H65   H     H_    0.864298 0.218961 0.217440 0.158987
H66   H     H_    0.899937 0.250202 0.357407 0.159578
H67   H     H_    0.972618 0.228691 0.335226 0.185254
O26   O     O_3   0.088952 0.664748 0.776903 -0.532901
C122  C     C_3   0.122158 0.631870 0.880770 -0.200005
H68   H     H_    0.160142 0.663454 0.957694 0.134148
H69   H     H_    0.159831 0.590531 0.891874 0.178032
H70   H     H_    0.070160 0.614185 0.876751 0.208237
O27   O     O_3   0.089939 0.311620 0.743776 -0.544258
C123  C     C_3   0.089346 0.249746 0.707377 -0.372576
H71   H     H_    0.135719 0.218957 0.782481 0.159027
H72   H     H_    0.100101 0.250235 0.642542 0.159664
H73   H     H_    0.027400 0.228690 0.664667 0.185236
O28   O     O_3   0.911091 0.664808 0.223214 -0.532927
C124  C     C_3   0.877982 0.631941 0.119372 -0.200015
H74   H     H_    0.840050 0.663532 0.042456 0.134231
H75   H     H_    0.840285 0.590599 0.108175 0.178097
H76   H     H_    0.930030 0.614261 0.123509 0.208150
O29   O     O_3   0.404064 0.848564 0.089706 -0.555700
C125  C     C_3   0.485147 0.828336 0.139678 -0.236135
H77   H     H_    0.500591 0.841513 0.082732 0.126643
H78   H     H_    0.494624 0.776640 0.159594 0.145929
H79   H     H_    0.529335 0.853605 0.223268 0.201814
O30   O     O_3   0.549010 0.280840 0.752874 -0.521179
C126  C     C_3   0.545216 0.326329 0.679795 -0.327429
H80   H     H_    0.596637 0.320129 0.675953 0.154652
H81   H     H_    0.545498 0.375425 0.707695 0.137756
H82   H     H_    0.486336 0.319795 0.590415 0.190829
O31   O     O_3   0.595799 0.848446 0.910085 -0.555846
C127  C     C_3   0.514710 0.828174 0.859986 -0.236305
H83   H     H_    0.499226 0.841212 0.916922 0.126453
H84   H     H_    0.470538 0.853529 0.776502 0.201728
H85   H     H_    0.505253 0.776508 0.839870 0.146192
O32   O     O_3   0.450908 0.280938 0.247234 -0.521201
C128  C     C_3   0.454538 0.326356 0.320270 -0.327340
H86   H     H_    0.403129 0.320006 0.324093 0.154714
H87   H     H_    0.454100 0.375484 0.292346 0.137678
H88   H     H_    0.513430 0.319891 0.409662 0.190805
O33   O     O_3   0.903989 0.348612 0.089651 -0.555762
C129  C     C_3   0.985046 0.328460 0.139408 -0.236450
H89   H     H_    0.000427 0.341890 0.082503 0.126846
H90   H     H_    0.994544 0.276719 0.158928 0.145632
H91   H     H_    0.029266 0.353563 0.223171 0.201909
O34   O     O_3   0.049104 0.780980 0.752733 -0.521171
C130  C     C_3   0.045486 0.826416 0.679732 -0.327357
H92   H     H_    0.096912 0.820085 0.675943 0.154741
H93   H     H_    0.045900 0.875535 0.707662 0.137690
H94   H     H_    0.986608 0.819954 0.590325 0.190757
O35   O     O_3   0.095943 0.348572 0.910294 -0.555770
C131  C     C_3   0.014864 0.328325 0.860292 -0.236296
H95   H     H_    0.005414 0.276627 0.840403 0.145981
H96   H     H_    0.999394 0.341501 0.917203 0.126462
H97   H     H_    0.970677 0.353582 0.776687 0.201812
O36   O     O_3   0.950790 0.781076 0.247377 -0.521190
C132  C     C_3   0.954274 0.826475 0.320317 -0.327374
H98   H     H_    0.902813 0.820074 0.324009 0.154756
H99   H     H_    0.953811 0.875609 0.292400 0.137685
H100  H     H_    0.013125 0.820041 0.409757 0.190747

loop_
_geom_bond_atom_site_label_1
_geom_bond_atom_site_label_2
_ccdc_geom_bond_type
C130  H94   S    
C23   H36   S    
C64   H20   S    
C82   C90   A    
C20   H40   S    
C14   H6    S    
C47   H27   S    
Cu2   O9    S    
C19   H39   S    
C5    C56   S    
C129  H90   S    
C122  H68   S    
C6    C55   S    
C118  H56   S    
C53   C69   A    
C6    O6    A    
C76   C84   A    
C123  H72   S    
C113  H41   S    
C121  H65   S    
C122  H70   S    
C61   H17   S    
C130  H92   S    
C46   H26   S    
C2    O2    A    
C120  H62   S    
C42   O18   S    
C117  H53   S    
Cu2   O12   S    
C99   C108  A    
C118  H57   S    
C125  H79   S    
C48   H28   S    
C98   C105  A    
C57   C89   A    
Cu4   O13   S    
C108  O32   S    
C115  H49   S    
C32   C36   A    
C107  O31   S    
C51   C75   A    
C69   H14   S    
Cu3   O14   S    
C114  H45   S    
C78   O25   S    
C128  H86   S    
C61   C93   A    
Cu2   O2    S    
C10   C94   A    
C27   N3    A    
C126  H80   S    
C63   C95   A    
C28   N4    A    
C132  H100  S    
C33   C45   A    
C62   C70   A    
C115  H48   S    
O33   C129  S    
C42   C46   A    
O32   C128  S    
C37   C42   A    
O18   C114  S    
C14   C90   A    
Cu3   O15   S    
C8    O8    A    
C77   C85   A    
C59   C67   A    
C71   H16   S    
C12   H4    S    
C85   C93   A    
C58   C66   A    
C40   C43   A    
C20   C24   A    
C29   C33   A    
C27   H32   S    
C56   C72   A    
C87   C95   A    
C13   H5    S    
C4    O4    A    
Cu4   O7    S    
C36   C48   A    
C25   H30   S    
C34   C46   A    
C5    O5    A    
Cu1   N2    S    
Cu3   O5    S    
C86   C94   A    
C124  H74   S    
C97   C102  A    
C52   C68   A    
C127  H85   S    
C3    O3    A    
C81   C89   A    
C78   C86   A    
C120  H63   S    
C99   C104  A    
C22   H33   S    
C1    O1    A    
C2    O10   A    
C83   C99   A    
O29   C125  S    
C45   H25   S    
C82   C98   A    
C112  O36   S    
C15   H7    S    
C17   C33   A    
C106  O30   S    
C73   C81   A    
C123  H71   S    
C88   C104  A    
C3    C50   S    
C127  H84   S    
C132  H98   S    
C60   C92   A    
C131  H96   S    
C25   C29   A    
C118  H58   S    
C125  H78   S    
C75   O24   S    
C110  O34   S    
O22   C118  S    
C30   C34   A    
C27   C31   A    
O23   C119  S    
C84   C100  A    
C15   C111  A    
C28   C32   A    
C64   C96   A    
C38   C41   A    
Cu1   O11   S    
C11   H3    S    
C2    C51   S    
C114  H46   S    
C39   C40   A    
C128  H87   S    
Cu4   O16   S    
C119  H59   S    
C20   C36   A    
C51   C67   A    
C6    O14   A    
C116  H51   S    
C17   H37   S    
C15   C91   A    
C100  C103  A    
C17   C21   A    
C23   N3    A    
C103  C112  A    
C63   H19   S    
C26   H29   S    
C19   C23   A    
C114  H44   S    
Cu2   N1    S    
C37   C38   A    
C10   H2    S    
C24   H35   S    
C104  C111  A    
C7    O15   A    
C55   C79   A    
C124  H76   S    
C77   O26   S    
C121  H66   S    
O27   C123  S    
C54   C70   A    
C131  H97   S    
C43   O19   S    
O35   C131  S    
C126  H82   S    
C50   C66   A    
C8    O16   A    
O30   C126  S    
C7    C54   S    
C57   H21   S    
C59   C91   A    
C21   H34   S    
C131  H95   S    
Cu1   O4    S    
C84   C92   A    
C124  H75   S    
C68   H11   S    
C79   C87   A    
C49   C65   A    
C60   H24   S    
C87   C103  A    
C97   C106  A    
C63   C71   A    
C16   C92   A    
C3    O11   A    
C25   N1    A    
C53   C77   A    
C49   C73   A    
C10   C106  A    
C76   O23   S    
C5    O13   A    
O36   C132  S    
C39   C44   A    
C83   C91   A    
C86   C102  A    
C9    C93   A    
C75   C83   A    
C32   C40   A    
C85   C101  A    
C127  H83   S    
C16   C112  A    
C72   H15   S    
C12   C108  A    
Cu1   Cu2   S    
C74   C82   A    
C120  H64   S    
C41   O17   S    
C121  H67   S    
C130  H93   S    
C7    O7    A    
C125  H77   S    
C100  C107  A    
C105  O29   S    
C4    O12   A    
C13   C89   A    
C18   C22   A    
C21   N1    A    
C12   C96   A    
C101  C110  A    
C57   C65   A    
C43   C47   A    
C52   C76   A    
C18   H38   S    
C8    C53   S    
C128  H88   S    
C113  H42   S    
O31   C127  S    
C122  H69   S    
Cu1   O10   S    
O34   C130  S    
C74   O21   S    
C13   C109  A    
C98   C101  A    
C22   N2    A    
C73   O22   S    
Cu3   N4    S    
C59   H23   S    
C56   C80   A    
C66   H9    S    
C4    C49   S    
C58   C90   A    
Cu3   O8    S    
C61   C69   A    
C65   H10   S    
C62   H18   S    
C50   C74   A    
C129  H89   S    
O25   C121  S    
C111  O35   S    
O19   C115  S    
C80   C88   A    
C19   C35   A    
C67   H12   S    
O20   C116  S    
C116  H52   S    
C11   C107  A    
C58   H22   S    
Cu2   O3    S    
C81   C97   A    
C18   C34   A    
C119  H61   S    
C14   C110  A    
C1    O9    A    
C62   C94   A    
C132  H99   S    
C54   C78   A    
C31   C39   A    
C88   C96   A    
C26   N2    A    
C117  H55   S    
C31   C35   A    
C64   C72   A    
C80   O27   S    
C109  O33   S    
O21   C117  S    
C1    C52   S    
C55   C71   A    
C79   O28   S    
Cu4   O6    S    
C113  H43   S    
Cu4   N3    S    
Cu1   O1    S    
C129  H91   S    
C24   N4    A    
C11   C95   A    
O24   C120  S    
C60   C68   A    
C119  H60   S    
O17   C113  S    
C70   H13   S    
C29   C37   A    
C41   C45   A    
C115  H47   S    
C102  C109  A    
C117  H54   S    
C126  H81   S    
C30   C38   A    
Cu3   Cu4   S    
C35   C47   A    
C16   H8    S    
C9    C105  A    
O26   C122  S    
C123  H73   S    
C44   O20   S    
C9    H1    S    
C44   C48   A    
O28   C124  S    
C116  H50   S    
C28   H31   S    
C26   C30   A    
