data_mof_unit_58116.cif
_audit_creation_date              2012-12-11T17:29:57-0500
_audit_creation_method            fapswitch 2.2
_symmetry_space_group_name_H-M    P1
_symmetry_Int_Tables_number       1
_space_group_crystal_system       triclinic
_cell_length_a                    19.29216
_cell_length_b                    19.256898
_cell_length_c                    20.404197
_cell_angle_alpha                 107.37224
_cell_angle_beta                  106.358559
_cell_angle_gamma                 111.663486
_cell_volume                      6031.76672728

loop_
_atom_site_label
_atom_site_type_symbol
_atom_type_description
_atom_site_fract_x
_atom_site_fract_y
_atom_site_fract_z
_atom_type_partial_charge
C1    C     C_R   0.083210 0.088369 0.353450 -0.204569
C2    C     C_R   0.245886 0.073412 0.526939 -0.187959
C3    C     C_3   0.569747 0.217672 0.874006 -0.382064
C4    C     C_3   0.586605 0.151512 0.829680 -0.881709
C5    C     C_3   0.531888 0.715348 0.191158 0.194777
C6    C     C_3   0.476223 0.721726 0.125624 -0.288557
C7    C     C_3   0.395579 0.710401 0.130552 -0.973588
C8    C     C_3   0.887585 0.817849 0.753585 0.197220
C9    C     C_3   0.810381 0.744453 0.681958 -0.271901
C10   C     C_3   0.730783 0.733977 0.688862 -0.959557
C11   C     C_3   0.954231 0.917559 0.989138 0.201485
C12   C     C_3   0.869681 0.838278 0.951190 -0.273749
C13   C     C_R   0.161579 0.195361 0.719666 -0.104568
C14   C     C_3   0.800021 0.850916 0.908610 -0.979051
C15   C     C_3   0.096969 0.792656 0.878704 0.226033
C16   C     C_3   0.060768 0.709921 0.883075 -0.247506
C17   C     C_3   0.120623 0.675390 0.889468 -0.893152
C18   C     C_3   0.726071 0.710855 0.415376 0.230818
C19   C     C_3   0.721906 0.627919 0.372224 -0.392230
C20   C     C_3   0.718596 0.576675 0.416922 -0.950025
C21   C     C_R   0.760446 0.931456 0.502810 0.558325
C22   C     C_R   0.001835 0.765867 0.434732 0.463096
C23   C     C_R   0.242249 0.220087 0.728464 0.073417
C24   C     C_R   0.955813 0.717104 0.460143 0.026267
C25   C     C_R   0.255927 0.004745 0.512963 0.062758
C26   C     C_R   0.011012 0.978003 0.726754 0.120952
C27   C     C_R   0.989794 0.644607 0.527782 -0.263635
C28   C     C_R   0.948510 0.639861 0.457523 -0.000264
C29   C     C_R   0.762765 0.003343 0.548559 -0.001470
C30   C     C_R   0.898175 0.563906 0.390220 0.570655
C31   C     C_R   0.884480 0.490067 0.398109 -0.080395
C32   C     C_R   0.935683 0.496258 0.466930 0.031662
C33   C     C_R   0.839647 0.789129 0.282294 0.420178
C34   C     C_R   0.987711 0.574261 0.532754 -0.092299
C35   C     C_R   0.820718 0.410911 0.340694 -0.415058
C36   C     C_R   0.822222 0.338585 0.339803 0.627163
C37   C     C_R   0.884028 0.345918 0.403262 -0.115981
C38   C     C_R   0.936686 0.424988 0.469354 -0.121411
C39   C     C_R   0.993425 0.434090 0.537132 -0.204232
C40   C     C_R   0.760239 0.747674 0.274990 -0.162654
C41   C     C_R   0.032103 0.508209 0.605912 0.405443
C42   C     C_R   0.034386 0.580126 0.602939 0.443929
C43   C     C_R   0.896114 0.278312 0.404019 0.425928
C44   C     C_R   0.962398 0.293230 0.467167 -0.250481
C45   C     C_R   0.952172 0.196768 0.522833 -0.043096
C46   C     C_R   0.012204 0.370389 0.532664 0.481363
C47   C     C_R   0.363208 0.977838 0.582168 0.551369
C48   C     C_R   0.336017 0.011578 0.534752 -0.071777
C49   C     C_R   0.388300 0.061538 0.513575 -0.304406
C50   C     C_R   0.466402 0.072321 0.532168 0.186782
C51   C     C_R   0.972485 0.225256 0.472945 0.194081
C52   C     C_R   0.491649 0.028468 0.569326 -0.038749
C53   C     C_R   0.441454 0.982524 0.596973 -0.255139
C54   C     C_R   0.517335 0.122735 0.509529 -0.194552
C55   C     C_R   0.591240 0.124805 0.517529 -0.185752
C56   C     C_R   0.613178 0.075239 0.546824 0.204773
C57   C     C_R   0.764291 0.781287 0.346455 0.485280
C58   C     C_R   0.565528 0.028571 0.575455 -0.023646
C59   C     C_R   0.589359 0.978763 0.605379 -0.285017
C60   C     C_R   0.539129 0.932829 0.633161 0.504431
C61   C     C_R   0.470219 0.941034 0.635088 0.353084
C62   C     C_R   0.238347 0.199454 0.655910 -0.103404
C63   C     C_R   0.678843 0.067025 0.541834 -0.333145
C64   C     C_R   0.699793 0.014691 0.566156 -0.039277
C65   C     C_R   0.661205 0.975688 0.603795 0.500930
C66   C     C_R   0.314774 0.247827 0.799066 0.101783
C67   C     C_R   0.304847 0.248319 0.864703 -0.164258
C68   C     C_R   0.373467 0.279681 0.932739 -0.256650
C69   C     C_R   0.031250 0.205974 0.459653 -0.017970
C70   C     C_R   0.453383 0.312953 0.936561 0.090524
C71   C     C_R   0.462956 0.299556 0.869042 0.575003
C72   C     C_R   0.393565 0.269849 0.800747 -0.362038
C73   C     C_R   0.929193 0.761694 0.502303 -0.300051
C74   C     C_R   0.643691 0.520099 0.136897 -0.162629
C75   C     C_R   0.706039 0.597917 0.196128 -0.238725
C76   C     C_R   0.567342 0.510882 0.093140 0.214685
C77   C     C_R   0.693131 0.666822 0.212461 0.090901
C78   C     C_R   0.615932 0.657775 0.171702 0.600287
C79   C     C_R   0.553716 0.579159 0.110888 -0.398901
C80   C     C_R   0.094596 0.028080 0.230261 0.124718
C81   C     C_R   0.835713 0.070118 0.569421 -0.220470
C82   C     C_R   0.046064 0.962432 0.156162 -0.265974
C83   C     C_R   0.069768 0.964724 0.098357 0.548664
C84   C     C_R   0.179015 0.933048 0.470316 0.022988
C85   C     C_R   0.145577 0.032668 0.115168 0.075626
C86   C     C_R   0.193733 0.099002 0.189250 -0.256973
C87   C     C_R   0.168673 0.096734 0.246864 -0.153956
C88   C     C_R   0.166134 0.046106 0.925214 -0.241538
C89   C     C_R   0.126065 0.046165 0.857137 -0.234165
C90   C     C_R   0.135767 0.972554 0.933671 0.019108
C91   C     C_R   0.054514 0.973490 0.796447 -0.095477
C92   C     C_R   0.027942 0.897809 0.803030 0.390070
C93   C     C_R   0.024893 0.950093 0.293597 0.523107
C94   C     C_R   0.072113 0.896792 0.869899 0.384545
C95   C     C_R   0.023338 0.050935 0.719561 -0.121861
C96   C     C_R   0.064423 0.022960 0.287913 -0.073291
C97   C     C_3   0.863282 0.509580 0.258035 0.133954
C98   C     C_3   0.892523 0.552511 0.211102 -0.155934
C99   C     C_3   0.857567 0.489545 0.127814 -1.008619
C100  C     C_3   0.622930 0.833026 0.427531 0.273875
C101  C     C_3   0.555117 0.744297 0.403126 -0.285899
C102  C     C_3   0.468173 0.731716 0.364556 -1.049413
C103  C     C_3   0.758113 0.255657 0.208319 0.259917
C104  C     C_3   0.673224 0.238631 0.155716 -0.307537
C105  C     C_3   0.669576 0.235848 0.079210 -1.018567
C106  C     C_R   0.961200 0.912237 0.653731 -0.092875
C107  C     C_3   0.156795 0.705214 0.676359 0.141193
C108  C     C_3   0.222193 0.687313 0.718974 -0.314007
C109  C     C_3   0.308548 0.746175 0.731331 -0.861043
C110  C     C_3   0.312939 0.992912 0.671099 0.245150
C111  C     C_3   0.251605 0.945314 0.696403 -0.244789
C112  C     C_3   0.248011 0.005007 0.762462 -1.019999
C113  C     C_3   0.522483 0.800446 0.595144 0.276275
C114  C     C_3   0.434512 0.739023 0.578417 -0.313207
C115  C     C_3   0.404495 0.651179 0.518778 -1.007554
C116  C     C_3   0.551817 0.265763 0.829724 0.191814
Cl1   Cl    Cl    0.030426 0.730707 0.362838 -0.658577
Cl2   Cl    Cl    0.834706 0.175858 0.326624 -0.633741
Cl3   Cl    Cl    0.105608 0.389186 0.602575 -0.604847
Cl4   Cl    Cl    0.065926 0.510353 0.696994 -0.587148
Cl5   Cl    Cl    0.869352 0.753586 0.211452 -0.590776
Cl6   Cl    Cl    0.709164 0.930824 0.651553 -0.657647
Cl7   Cl    Cl    0.423570 0.898354 0.687045 -0.673149
Cl8   Cl    Cl    0.052237 0.871806 0.266899 -0.548876
H1    H     H_    0.126772 0.153747 0.374513 0.124874
H2    H     H_    0.366868 0.090574 0.480372 0.156584
H3    H     H_    0.106161 0.781097 0.825670 0.120247
H4    H     H_    0.047736 0.719732 0.933829 0.221606
H5    H     H_    0.001293 0.663470 0.830867 0.225122
H6    H     H_    0.134861 0.665596 0.839549 0.299363
H7    H     H_    0.091784 0.614423 0.890744 0.286608
H8    H     H_    0.179361 0.719489 0.942871 0.247129
H9    H     H_    0.681227 0.697735 0.440209 0.155591
H10   H     H_    0.786977 0.757578 0.464912 0.106346
H11   H     H_    0.664947 0.589625 0.316785 0.224814
H12   H     H_    0.776946 0.641163 0.360529 0.231124
H13   H     H_    0.498350 0.157679 0.482682 0.132593
H14   H     H_    0.772790 0.612730 0.473990 0.258937
H15   H     H_    0.718920 0.519120 0.384670 0.279328
H16   H     H_    0.660720 0.557974 0.424485 0.259690
H17   H     H_    0.628867 0.161337 0.496741 0.140267
H18   H     H_    0.711686 0.098405 0.514833 0.161077
H19   H     H_    0.764401 0.604642 0.230062 0.194019
H20   H     H_    0.655647 0.468079 0.124972 0.141071
H21   H     H_    0.402805 0.268543 0.750674 0.135553
H22   H     H_    0.365675 0.288007 0.984592 0.150216
H23   H     H_    0.495149 0.571088 0.075263 0.151088
H24   H     H_    0.913062 0.207418 0.548787 0.106458
H25   H     H_    0.888630 0.738752 0.526965 0.140553
H26   H     H_    0.245088 0.229287 0.865346 0.114675
H27   H     H_    0.149959 0.104264 0.853280 0.149804
H28   H     H_    0.216881 0.104706 0.973078 0.162814
H29   H     H_    0.249883 0.153035 0.201901 0.152961
H30   H     H_    0.206932 0.148370 0.303902 0.129148
H31   H     H_    0.987440 0.910267 0.141979 0.180736
H32   H     H_    0.063931 0.224730 0.427451 0.104974
H33   H     H_    0.860697 0.133924 0.610962 0.152309
H34   H     H_    0.290328 0.216966 0.642768 0.090459
H35   H     H_    0.798692 0.457138 0.220055 0.122092
H36   H     H_    0.167680 0.869903 0.448011 0.177342
H37   H     H_    0.904536 0.483565 0.274705 0.091638
H38   H     H_    0.873511 0.600403 0.212415 0.269853
H39   H     H_    0.961353 0.583952 0.235836 0.243454
H40   H     H_    0.875302 0.440356 0.124789 0.260893
H41   H     H_    0.882955 0.522269 0.096529 0.300854
H42   H     H_    0.788705 0.459720 0.099525 0.268841
H43   H     H_    0.626806 0.838768 0.375899 0.094490
H44   H     H_    0.602728 0.876436 0.453230 0.077016
H45   H     H_    0.561575 0.697258 0.361984 0.221488
H46   H     H_    0.561309 0.732548 0.454019 0.205327
H47   H     H_    0.053022 0.112331 0.766120 0.094676
H48   H     H_    0.457172 0.774621 0.405160 0.274454
H49   H     H_    0.420909 0.666224 0.345585 0.278666
H50   H     H_    0.460583 0.743701 0.313751 0.270517
H51   H     H_    0.766647 0.201942 0.181551 0.162139
H52   H     H_    0.808749 0.311633 0.212289 0.045050
H53   H     H_    0.624023 0.177742 0.145222 0.224855
H54   H     H_    0.660316 0.288336 0.183601 0.193069
H55   H     H_    0.716666 0.297080 0.088253 0.266101
H56   H     H_    0.607009 0.222478 0.042296 0.274030
H57   H     H_    0.681161 0.185804 0.049425 0.280976
H58   H     H_    0.941606 0.847360 0.636857 0.153280
H59   H     H_    0.175025 0.771484 0.710044 0.127313
H60   H     H_    0.156619 0.698975 0.620115 0.104280
H61   H     H_    0.223153 0.695129 0.775442 0.230119
H62   H     H_    0.206536 0.621994 0.685238 0.243314
H63   H     H_    0.309357 0.737387 0.675276 0.289149
H64   H     H_    0.354548 0.732075 0.762705 0.271270
H65   H     H_    0.326717 0.812313 0.765537 0.279071
H66   H     H_    0.295523 0.037559 0.657206 0.071091
H67   H     H_    0.376501 0.029412 0.719546 0.121151
H68   H     H_    0.188507 0.905542 0.647390 0.193962
H69   H     H_    0.293787 0.137373 0.550272 0.110008
H70   H     H_    0.270958 0.903970 0.714839 0.221929
H71   H     H_    0.310691 0.046666 0.811754 0.272891
H72   H     H_    0.205447 0.968114 0.781154 0.274554
H73   H     H_    0.224266 0.043824 0.743954 0.274811
H74   H     H_    0.563326 0.773843 0.610361 0.164133
H75   H     H_    0.522694 0.805751 0.542268 0.065548
H76   H     H_    0.433878 0.736606 0.632007 0.251443
H77   H     H_    0.390891 0.760312 0.556171 0.226625
H78   H     H_    0.403751 0.651908 0.464375 0.275129
H79   H     H_    0.340453 0.608356 0.507446 0.286610
H80   H     H_    0.143563 0.211565 0.764721 0.093236
H81   H     H_    0.445765 0.627064 0.539865 0.269846
H82   H     H_    0.605944 0.295015 0.818623 0.149734
H83   H     H_    0.497713 0.221666 0.772476 0.068706
H84   H     H_    0.624809 0.262295 0.930294 0.229366
H85   H     H_    0.515574 0.186221 0.884295 0.192130
H86   H     H_    0.532352 0.106301 0.773106 0.260820
H87   H     H_    0.597882 0.116806 0.862436 0.284834
H88   H     H_    0.642357 0.181523 0.820923 0.259986
H89   H     H_    0.547853 0.766388 0.245581 0.128618
H90   H     H_    0.497434 0.655666 0.193284 0.083185
H91   H     H_    0.025882 0.704803 0.578336 0.182156
H92   H     H_    0.509960 0.784200 0.128337 0.224484
H93   H     H_    0.461002 0.673338 0.069675 0.204323
H94   H     H_    0.360220 0.647853 0.126965 0.269755
H95   H     H_    0.356579 0.715252 0.082320 0.279033
H96   H     H_    0.409179 0.759752 0.185215 0.266622
H97   H     H_    0.883750 0.875999 0.761465 0.107143
H98   H     H_    0.888265 0.806236 0.803870 0.139512
H99   H     H_    0.808933 0.755220 0.631135 0.195785
H100  H     H_    0.813028 0.685823 0.673075 0.215066
H101  H     H_    0.729162 0.719743 0.737473 0.267890
H102  H     H_    0.770031 0.404727 0.295543 0.154493
H103  H     H_    0.676022 0.681408 0.635381 0.263272
H104  H     H_    0.726840 0.791950 0.697887 0.305851
H105  H     H_    0.951393 0.969909 0.028765 0.071246
H106  H     H_    0.966461 0.934735 0.944564 0.112792
H107  H     H_    0.870539 0.785743 0.910355 0.220438
H108  H     H_    0.857205 0.821216 0.995745 0.220091
H109  H     H_    0.795811 0.900694 0.949250 0.280465
H110  H     H_    0.739831 0.791749 0.880335 0.280302
H111  H     H_    0.811419 0.868846 0.864164 0.265284
H112  H     H_    0.158185 0.837468 0.929716 0.093279
N1    N     N_R   0.052570 0.055840 0.395080 -0.070862
N2    N     N_2   0.503464 0.436094 0.027873 -0.066216
N3    N     N_2   0.164298 0.041952 0.055159 -0.080965
N4    N     N_R   0.834730 0.954500 0.499860 -0.098427
N5    N     N_2   0.149965 0.974781 0.006328 -0.019670
N6    N     N_R   0.890190 0.849120 0.355200 -0.119627
N7    N     N_R   0.997110 0.161210 0.539740 -0.047008
N8    N     N_R   0.841940 0.845190 0.395070 -0.139664
N9    N     N_R   0.045360 0.165140 0.499870 -0.053138
N10   N     N_R   0.877490 0.041590 0.539730 -0.077061
N11   N     N_R   0.009810 0.968740 0.355210 -0.086275
N12   N     N_R   0.954640 0.834860 0.500130 -0.077242
N13   N     N_R   0.158060 0.154810 0.604930 -0.042037
N14   N     N_R   0.122510 0.958410 0.460270 -0.043579
N15   N     N_R   0.990190 0.031260 0.644790 -0.043956
N16   N     N_R   0.947430 0.944160 0.604920 -0.053779
N17   N     N_R   0.165270 0.045500 0.500140 -0.050001
N18   N     N_R   0.109810 0.150880 0.644800 -0.040556
N19   N     N_R   0.002890 0.838790 0.460260 -0.092879
N20   N     N_2   0.520730 0.379610 0.005830 -0.065935
Ni1   Ni    Ni4+2 0.104370 0.104380 0.500010 0.224695
Ni2   Ni    Ni4+2 0.895630 0.895620 0.499990 0.217747
Ni3   Ni    Ni4+2 0.006290 0.904630 0.408560 0.320551
Ni4   Ni    Ni4+2 0.993710 0.095370 0.591440 0.239349
O1    O     O_3   0.862002 0.565605 0.321172 -0.666582
O2    O     O_3   0.016862 0.901208 0.024692 -0.628534
O3    O     O_3   0.041086 0.823756 0.877190 -0.620040
O4    O     O_3   0.701937 0.743842 0.365433 -0.664708
O5    O     O_3   0.700910 0.850170 0.479385 -0.645560
O6    O     O_3   0.760029 0.261010 0.279834 -0.614423
O7    O     O_3   0.077672 0.654547 0.669972 -0.626636
O8    O     O_3   0.310133 0.934651 0.607110 -0.625121
O9    O     O_3   0.555616 0.878891 0.658560 -0.572426
O10   O     O_3   0.542237 0.331130 0.873468 -0.648615
O11   O     O_3   0.607198 0.728628 0.186344 -0.652925
O12   O     O_3   0.959214 0.823851 0.744552 -0.652508

loop_
_geom_bond_atom_site_label_1
_geom_bond_atom_site_label_2
_ccdc_geom_bond_type
C47   O8    S    
C3    H85   S    
C22   Cl1   S    
N4    N10   A    
C55   C56   A    
C57   O4    S    
C101  C102  S    
C55   H17   S    
C90   C94   A    
C17   H7    S    
C45   H24   S    
N6    Ni3   S    
N14   Ni3   S    
C103  H52   S    
C35   C36   A    
C34   C42   A    
C93   Cl8   S    
C26   C106  A    
C110  O8    S    
C114  C115  S    
C84   H36   S    
N12   N19   A    
C68   H22   S    
N15   N16   A    
C39   C41   A    
C73   N12   A    
C27   C34   A    
C85   C86   A    
C109  H63   S    
C102  H49   S    
C18   O4    S    
C49   H2    S    
C13   C23   A    
C50   C54   A    
C4    H87   S    
C74   C76   A    
C100  H43   S    
C3    H84   S    
C97   H35   S    
C20   H15   S    
C108  H62   S    
C36   C37   A    
C86   H29   S    
C1    H1    S    
C80   C87   A    
C3    C116  S    
C33   Cl5   S    
C30   C31   A    
C92   O12   S    
C98   C99   S    
C24   C73   A    
C11   O2    S    
C54   H13   S    
C71   O10   S    
C100  O5    S    
C13   N18   A    
C106  N16   A    
C72   H21   S    
C35   H102  S    
C115  H78   S    
C97   C98   S    
C110  H67   S    
C4    H86   S    
C108  C109  S    
N1    N11   A    
C18   H9    S    
C76   N2    S    
C18   C19   S    
C41   C42   A    
C103  O6    S    
C20   H14   S    
C110  C111  S    
C104  C105  S    
C93   N11   A    
C7    H94   S    
C53   C61   A    
C62   N13   A    
C66   C72   A    
C31   C32   A    
C109  H65   S    
C16   C17   S    
N7    N9    A    
C115  H79   S    
C15   H112  S    
C10   H101  S    
N6    N8    A    
C113  H74   S    
C62   H34   S    
C101  H45   S    
C70   C71   A    
C32   C38   A    
C60   O9    S    
C80   C96   S    
N9    Ni1   S    
C9    C10   S    
C45   N7    A    
C97   O1    S    
C47   C53   A    
C99   H42   S    
C7    H95   S    
N14   N17   A    
C94   O3    S    
C29   C64   S    
C59   C60   A    
C11   H105  S    
C15   H3    S    
C67   H26   S    
C27   H91   S    
C88   H28   S    
C33   N6    A    
C105  H55   S    
C116  O10   S    
C103  H51   S    
C14   H111  S    
C98   H38   S    
C44   C46   A    
C98   H39   S    
C100  C101  S    
C23   C62   A    
C109  H64   S    
C102  H48   S    
C38   C39   A    
C52   C58   A    
N19   Ni3   S    
C5    O11   S    
C33   C40   A    
C81   H33   S    
C74   C75   A    
C84   N14   A    
C67   C68   A    
C69   H32   S    
C47   C48   A    
C108  H61   S    
N8    Ni2   S    
C80   C82   A    
C70   N20   S    
C91   C92   A    
N4    Ni2   S    
C86   C87   A    
C8    C9    S    
C79   H23   S    
C111  H70   S    
C1    N1    A    
C19   H12   S    
C77   C78   A    
C21   C29   A    
C110  H66   S    
C15   C16   S    
C99   H40   S    
C107  H59   S    
C60   C61   A    
C85   N3    S    
C32   C34   A    
C37   C43   A    
C43   C44   A    
C10   H104  S    
C112  H71   S    
C29   C81   A    
C37   C38   A    
C114  H77   S    
N15   Ni4   S    
C25   C84   A    
C6    H93   S    
C75   C77   A    
C9    H99   S    
C50   C52   A    
C104  H53   S    
N18   Ni4   S    
C107  C108  S    
C5    H89   S    
C21   N4    A    
C92   C94   A    
C113  H75   S    
C56   C63   A    
C6    H92   S    
C101  H46   S    
N3    N5    D    
C65   Cl6   S    
C87   H30   S    
C16   H5    S    
C16   H4    S    
C25   C48   S    
C22   N19   A    
C75   H19   S    
C99   H41   S    
C39   C46   A    
N12   Ni2   S    
C7    H96   S    
C44   C51   S    
C69   N9    A    
C48   C49   A    
C83   C85   A    
C12   C14   S    
C82   C83   A    
C93   C96   A    
C97   H37   S    
C115  H81   S    
C107  O7    S    
C10   H103  S    
C22   C24   A    
C58   C59   A    
C89   C91   A    
C82   H31   S    
C105  H56   S    
C95   N15   A    
C3    C4    S    
C2    N17   A    
C112  H73   S    
C14   H110  S    
C8    H98   S    
C52   C53   A    
C23   C66   S    
C12   H107  S    
C113  C114  S    
N16   Ni2   S    
C111  H68   S    
C26   C95   A    
C74   H20   S    
C54   C55   A    
C88   C90   A    
C40   C57   A    
C111  C112  S    
C73   H25   S    
C17   H6    S    
C78   C79   A    
C36   O6    S    
C81   N10   A    
C24   C28   S    
C113  O9    S    
C78   O11   S    
N11   Ni3   S    
C12   H108  S    
C6    C7    S    
C57   N8    A    
C21   O5    S    
C102  H50   S    
C51   C69   A    
C4    H88   S    
C13   H80   S    
C100  H44   S    
C107  H60   S    
C61   Cl7   S    
C30   O1    S    
N13   Ni1   S    
C64   C65   A    
C2    H69   S    
C19   C20   S    
C28   C30   A    
C26   C91   S    
C71   C72   A    
C8    O12   S    
C59   C65   A    
N1    Ni1   S    
C9    H100  S    
C20   H16   S    
C2    C25   A    
C5    C6    S    
C95   H47   S    
C1    C96   A    
C112  H72   S    
C5    H90   S    
C11   H106  S    
N13   N18   A    
C63   H18   S    
C56   C58   A    
C46   Cl3   S    
C66   C67   A    
C18   H10   S    
C31   C35   A    
N7    Ni4   S    
C14   H109  S    
C41   Cl4   S    
C116  H83   S    
C15   O3    S    
C43   Cl2   S    
C63   C64   A    
N17   Ni1   S    
C89   H27   S    
C76   C79   A    
C103  C104  S    
C88   C89   A    
C68   C70   A    
C49   C50   A    
C90   N5    S    
N2    N20   D    
C27   C28   A    
C45   C51   A    
C40   C77   S    
C83   O2    S    
C104  H54   S    
C114  H76   S    
C105  H57   S    
C42   O7    S    
C19   H11   S    
N10   Ni4   S    
C116  H82   S    
C8    H97   S    
C106  H58   S    
C11   C12   S    
C17   H8    S    
