data_mof_unit_44266.cif
_audit_creation_date              2012-12-10T20:26:25-0500
_audit_creation_method            fapswitch 2.2
_symmetry_space_group_name_H-M    P1
_symmetry_Int_Tables_number       1
_space_group_crystal_system       triclinic
_cell_length_a                    10.610087
_cell_length_b                    10.673313
_cell_length_c                    9.924232
_cell_angle_alpha                 89.925107
_cell_angle_beta                  92.611477
_cell_angle_gamma                 90.203687
_cell_volume                      1122.69245465

loop_
_atom_site_label
_atom_site_type_symbol
_atom_type_description
_atom_site_fract_x
_atom_site_fract_y
_atom_site_fract_z
_atom_type_partial_charge
C1    C     C_R   0.503792 0.260160 0.500307 0.868976
C2    C     C_R   0.601403 0.458322 0.078158 -0.137735
C3    C     C_R   0.601868 0.456445 0.935013 0.213923
C4    C     C_R   0.262469 0.501517 0.496865 0.932590
C5    C     C_R   0.397218 0.539323 0.924033 0.154242
C6    C     C_3   0.267984 0.480259 0.919004 -0.046706
C7    C     C_3   0.267782 0.494558 0.071169 -0.486577
C8    C     C_R   0.503664 0.739856 0.500112 0.872811
C9    C     C_R   0.737613 0.506853 0.503292 0.943971
C10   C     C_2   0.928705 0.585668 0.413903 -0.165428
C11   C     C_2   0.869287 0.531659 0.514263 -0.391342
C12   C     C_R   0.523390 0.128702 0.502073 -0.103343
C13   C     C_2   0.065214 0.596997 0.425452 0.226116
C14   C     C_2   0.129223 0.503081 0.487239 -0.334634
C15   C     C_R   0.520119 0.063688 0.623525 0.129874
C16   C     C_3   0.714399 0.399880 0.872710 -0.846460
C17   C     C_3   0.264900 0.341693 0.876872 -0.831237
C18   C     C_3   0.127767 0.713412 0.372695 -0.881650
C19   C     C_R   0.550393 0.065126 0.383204 -0.227518
C20   C     C_R   0.550280 0.935534 0.383061 -0.228017
C21   C     C_R   0.523247 0.871400 0.501802 -0.103405
C22   C     C_R   0.520070 0.935910 0.623371 0.140472
C23   C     C_3   0.427283 0.928092 0.732044 -0.479013
C24   C     C_3   0.427241 0.070094 0.732150 -0.490506
C25   C     C_R   0.398929 0.543948 0.066445 0.139639
H1    H     H_    0.877949 0.619509 0.323488 0.166260
H2    H     H_    0.469429 0.111124 0.826795 0.206993
H3    H     H_    0.776403 0.475307 0.836338 0.245315
H4    H     H_    0.771877 0.344253 0.947428 0.193421
H5    H     H_    0.684118 0.334370 0.790936 0.269736
H6    H     H_    0.341076 0.287975 0.931239 0.236827
H7    H     H_    0.172544 0.300032 0.900889 0.225688
H8    H     H_    0.276128 0.331359 0.767343 0.263738
H9    H     H_    0.262517 0.405305 0.128814 0.227649
H10   H     H_    0.056393 0.779933 0.329635 0.228351
H11   H     H_    0.181679 0.761277 0.456396 0.226063
H12   H     H_    0.681848 0.423691 0.137722 0.158483
H13   H     H_    0.193057 0.689673 0.292793 0.247150
H14   H     H_    0.562987 0.114377 0.289217 0.171960
H15   H     H_    0.469483 0.886992 0.826629 0.203976
H16   H     H_    0.195765 0.538902 0.864450 0.168370
H17   H     H_    0.200604 0.567241 0.102358 0.172584
H18   H     H_    0.917691 0.511304 0.610765 0.151967
H19   H     H_    0.083136 0.420481 0.526290 0.108003
H20   H     H_    0.562776 0.886680 0.289013 0.171766
H21   H     H_    0.335466 0.886402 0.696456 0.199197
H22   H     H_    0.335343 0.110890 0.696515 0.200995
N1    N     N_R   0.499170 0.499140 0.142800 -0.117805
N2    N     N_R   0.499170 0.499180 0.857150 -0.103628
O1    O     O_R   0.500020 0.316790 0.614690 -0.624659
O2    O     O_R   0.500000 0.316760 0.385350 -0.619533
O3    O     O_R   0.319080 0.500020 0.614640 -0.624422
O4    O     O_R   0.319070 0.499980 0.385300 -0.604802
O5    O     O_R   0.500000 0.683240 0.614650 -0.614399
O6    O     O_R   0.499980 0.683210 0.385310 -0.621037
O7    O     O_R   0.680930 0.500020 0.614700 -0.622913
O8    O     O_R   0.680920 0.499980 0.385360 -0.621442
Zn1   Zn    Zn3+2 0.500010 0.500020 0.653130 0.929065
Zn2   Zn    Zn3+2 0.499990 0.499980 0.346870 0.932040

loop_
_geom_bond_atom_site_label_1
_geom_bond_atom_site_label_2
_ccdc_geom_bond_type
C16   H3    S    
C23   C24   S    
C24   H2    S    
C11   H18   S    
C6    C7    S    
O6    Zn2   S    
C4    O4    A    
C9    C11   S    
C1    O1    A    
C20   H20   S    
C2    H12   S    
C12   C15   A    
C10   H1    S    
O5    Zn1   S    
C2    C3    A    
O4    Zn2   S    
C6    C17   S    
C23   H21   S    
C21   C22   A    
O3    Zn1   S    
C4    C14   S    
C1    O2    A    
C25   N1    A    
C5    N2    A    
C1    C12   S    
C17   H8    S    
C13   C18   S    
C4    O3    A    
C5    C25   A    
C19   H14   S    
C12   C19   A    
C15   C24   S    
O7    Zn1   S    
C8    C21   S    
C9    O8    A    
C3    N2    A    
C5    C6    S    
C17   H6    S    
C7    H9    S    
O8    Zn2   S    
O2    Zn2   S    
C10   C11   D    
N2    Zn1   S    
C16   H5    S    
C23   H15   S    
O1    Zn1   S    
C20   C21   A    
C8    O6    A    
N1    Zn2   S    
C14   H19   S    
C18   H10   S    
C7    H17   S    
C8    O5    A    
C9    O7    A    
C17   H7    S    
C22   C23   S    
C13   C14   D    
C2    N1    A    
C16   H4    S    
C18   H13   S    
C24   H22   S    
C18   H11   S    
C10   C13   S    
C15   C22   A    
C3    C16   S    
C19   C20   A    
C6    H16   S    
C7    C25   S    
