data_mof_unit_9201.cif
_audit_creation_date              2012-10-26T21:01:37-0400
_audit_creation_method            fapswitch 2.2
_symmetry_space_group_name_H-M    P1
_symmetry_Int_Tables_number       1
_space_group_crystal_system       triclinic
_cell_length_a                    15.847423
_cell_length_b                    12.96376
_cell_length_c                    11.833175
_cell_angle_alpha                 99.029039
_cell_angle_beta                  92.79588
_cell_angle_gamma                 93.439313
_cell_volume                      2392.40696158

loop_
_atom_site_label
_atom_site_type_symbol
_atom_type_description
_atom_site_fract_x
_atom_site_fract_y
_atom_site_fract_z
_atom_type_partial_charge
C1    C     C_R   0.503094 0.300203 0.479114 0.535771
C2    C     C_R   0.521729 0.971781 0.455432 0.028702
C3    C     C_R   0.422374 0.395756 0.027345 -0.164751
C4    C     C_R   0.577626 0.604244 0.972655 -0.164751
C5    C     C_R   0.428121 0.407432 0.147388 0.277808
C6    C     C_R   0.571878 0.592568 0.852611 0.277804
C7    C     C_R   0.535324 0.545913 0.154164 0.129796
C8    C     C_R   0.464676 0.454086 0.845836 0.129796
C9    C     C_R   0.528456 0.538080 0.032120 -0.020286
C10   C     C_R   0.471545 0.461920 0.967880 -0.020286
C11   C     C_R   0.340148 0.499569 0.500816 0.535719
C12   C     C_R   0.496909 0.699797 0.520886 0.535774
C13   C     C_R   0.659852 0.500431 0.499184 0.535714
C14   C     C_3   0.968623 0.415378 0.542811 -0.099689
C15   C     C_3   0.031377 0.584621 0.457189 -0.099689
C16   C     C_3   0.021881 0.410891 0.435045 -0.116379
C17   C     C_3   0.978119 0.589109 0.564955 -0.116379
C18   C     C_1   0.250545 0.499699 0.502506 -0.044998
C19   C     C_1   0.749455 0.500301 0.497493 -0.044997
C20   C     C_3   0.030607 0.504311 0.605702 0.171522
C21   C     C_3   0.969393 0.495689 0.394298 0.171522
C22   C     C_3   0.083258 0.499893 0.500578 0.032511
C23   C     C_R   0.559659 0.023516 0.371211 0.022311
C24   C     C_3   0.916742 0.500106 0.499422 0.032510
C25   C     C_1   0.174979 0.499784 0.502327 -0.063814
C26   C     C_1   0.825021 0.500215 0.497672 -0.063814
C27   C     C_R   0.487873 0.812162 0.531962 0.001928
C28   C     C_R   0.512138 0.187840 0.468040 0.001932
C29   C     C_3   0.993595 0.491875 0.191828 -0.317582
C30   C     C_3   0.006405 0.508124 0.808172 -0.317583
C31   C     C_3   0.383974 0.806878 0.689149 -0.378493
C32   C     C_3   0.616047 0.193126 0.310860 -0.378517
C33   C     C_3   0.597810 0.960733 0.269006 -0.412560
C34   C     C_R   0.440366 0.976488 0.628801 0.022309
C35   C     C_3   0.402238 0.039273 0.731024 -0.412565
C36   C     C_3   0.399127 0.373208 0.781822 -0.338851
C37   C     C_3   0.600873 0.626792 0.218178 -0.338852
C38   C     C_3   0.713274 0.646758 0.807461 -0.298098
C39   C     C_3   0.286724 0.353249 0.192536 -0.298102
C40   C     C_R   0.560099 0.133790 0.382949 0.006004
C41   C     C_R   0.439920 0.866214 0.617059 0.005996
C42   C     C_R   0.472168 0.135289 0.546544 -0.148784
C43   C     C_R   0.527846 0.864712 0.453459 -0.148786
C44   C     C_R   0.478290 0.028222 0.544574 0.028702
Cu1   Cu    Cu3+1 0.506200 0.507730 0.615930 0.944934
Cu2   Cu    Cu3+1 0.493800 0.492270 0.384070 0.944933
H1    H     H_    0.040484 0.339204 0.380338 0.097288
H2    H     H_    0.959763 0.492886 0.107636 0.133972
H3    H     H_    0.030269 0.420977 0.185583 0.130164
H4    H     H_    0.037620 0.563093 0.211927 0.151284
H5    H     H_    0.114764 0.567994 0.742369 0.248226
H6    H     H_    0.040237 0.507114 0.892364 0.133972
H7    H     H_    0.962380 0.436906 0.788073 0.151285
H8    H     H_    0.969730 0.579022 0.814417 0.130164
H9    H     H_    0.322344 0.842698 0.699446 0.114140
H10   H     H_    0.366700 0.725146 0.647707 0.156411
H11   H     H_    0.416273 0.806931 0.774555 0.134401
H12   H     H_    0.959515 0.660796 0.619662 0.097287
H13   H     H_    0.677700 0.157347 0.300644 0.114144
H14   H     H_    0.583778 0.192996 0.225419 0.134367
H15   H     H_    0.633271 0.274884 0.352251 0.156457
H16   H     H_    0.613685 0.006949 0.200882 0.127789
H17   H     H_    0.656180 0.926513 0.297597 0.120597
H18   H     H_    0.551167 0.897186 0.227233 0.124519
H19   H     H_    0.386402 0.993059 0.799166 0.127793
H20   H     H_    0.448880 0.102834 0.772767 0.124523
H21   H     H_    0.343850 0.073474 0.702462 0.120598
H22   H     H_    0.391734 0.369062 0.689731 0.197701
H23   H     H_    0.942325 0.347249 0.579219 0.102698
H24   H     H_    0.415097 0.294007 0.796500 0.081308
H25   H     H_    0.335623 0.389367 0.813407 0.096868
H26   H     H_    0.608266 0.630938 0.310268 0.197699
H27   H     H_    0.664377 0.610633 0.186593 0.096868
H28   H     H_    0.584903 0.705993 0.203499 0.081308
H29   H     H_    0.609799 0.737060 0.816109 0.228498
H30   H     H_    0.746509 0.691206 0.747939 0.137220
H31   H     H_    0.726279 0.562922 0.785313 0.168124
H32   H     H_    0.738823 0.677045 0.896345 0.103434
H33   H     H_    0.390195 0.262942 0.183887 0.228501
H34   H     H_    0.057675 0.652751 0.420781 0.102698
H35   H     H_    0.253485 0.308796 0.252049 0.137217
H36   H     H_    0.261178 0.322971 0.103648 0.103435
H37   H     H_    0.273721 0.437084 0.214692 0.168127
H38   H     H_    0.564686 0.820278 0.390989 0.113873
H39   H     H_    0.435323 0.179719 0.609011 0.113877
H40   H     H_    0.378429 0.334267 0.982536 0.095716
H41   H     H_    0.621572 0.665732 0.017463 0.095718
H42   H     H_    0.885236 0.432006 0.257631 0.248226
N1    N     N_R   0.515540 0.519350 0.790140 -0.198875
N2    N     N_R   0.484460 0.480650 0.209860 -0.198874
N3    N     N_2   0.932857 0.490614 0.278927 -0.510561
N4    N     N_2   0.067142 0.509386 0.721073 -0.510561
N5    N     N_2   0.623258 0.659669 0.796216 -0.445316
N6    N     N_2   0.376739 0.340333 0.203784 -0.445311
O1    O     O_R   0.504400 0.354460 0.582000 -0.523883
O2    O     O_R   0.495600 0.645540 0.418000 -0.523882
O3    O     O_R   0.493920 0.341410 0.386200 -0.477574
O4    O     O_R   0.506080 0.658590 0.613800 -0.477570
O5    O     O_R   0.384320 0.506520 0.597880 -0.525340
O6    O     O_R   0.615680 0.493480 0.402120 -0.525351
O7    O     O_R   0.373840 0.493460 0.402080 -0.465393
O8    O     O_R   0.626160 0.506540 0.597920 -0.465394

loop_
_geom_bond_atom_site_label_1
_geom_bond_atom_site_label_2
_ccdc_geom_bond_type
C37   H28   S    
C11   C18   S    
C16   C21   S    
C5    N6    S    
C4    H41   S    
C29   H3    S    
Cu1   Cu2   S    
C30   H8    S    
C24   C26   S    
C32   H15   S    
Cu1   O4    S    
C28   C40   A    
C23   C40   A    
C17   C20   S    
C11   O5    A    
C34   C35   S    
C8    C36   S    
C14   C24   S    
C19   C26   T    
C30   H6    S    
C15   C22   S    
C2    C44   A    
C33   H16   S    
C23   C33   S    
C22   C25   S    
C1    C28   S    
C31   H10   S    
Cu1   N1    S    
C9    C10   A    
C12   O4    A    
C5    N2    A    
C36   H25   S    
C33   H17   S    
C17   H12   S    
C3    H40   S    
C43   H38   S    
C34   C41   A    
C42   C44   A    
C16   H1    S    
Cu2   O7    S    
C36   H24   S    
C29   H4    S    
C30   H7    S    
C17   C24   S    
C13   C19   S    
C12   C27   S    
C14   C20   S    
C34   C44   A    
C39   H35   S    
H33   N6    S    
C4    C6    A    
Cu1   O5    S    
C1    O3    A    
C38   H30   S    
C38   H32   S    
C35   H20   S    
C7    N2    A    
C39   N6    S    
C27   C43   A    
H5    N4    S    
C20   N4    S    
C27   C41   A    
C15   H34   S    
H42   N3    S    
C35   H21   S    
C2    C43   A    
C1    O1    A    
C6    N5    S    
C7    C37   S    
C11   O7    A    
C42   H39   S    
C30   N4    S    
Cu2   O3    S    
C20   C22   S    
C14   H23   S    
C14   C16   S    
C37   H26   S    
C32   H14   S    
Cu1   O1    S    
C29   N3    S    
H29   N5    S    
C21   N3    S    
C15   C17   S    
Cu2   O6    S    
C16   C22   S    
C31   C41   S    
C39   H36   S    
C3    C5    A    
C36   H22   S    
Cu2   N2    S    
C38   H31   S    
C6    N1    A    
C37   H27   S    
C29   H2    S    
C31   H11   S    
C13   O6    A    
C4    C9    A    
C39   H37   S    
C3    C10   A    
C18   C25   T    
C33   H18   S    
C38   N5    S    
C28   C42   A    
C32   C40   S    
Cu1   O8    S    
C7    C9    A    
C15   C21   S    
Cu2   O2    S    
C8    C10   A    
C21   C24   S    
C2    C23   A    
C35   H19   S    
C12   O2    A    
C8    N1    A    
C32   H13   S    
C31   H9    S    
C13   O8    A    
