data_mof_unit_20943.cif
_audit_creation_date              2012-12-10T18:19:10-0500
_audit_creation_method            fapswitch 2.2
_symmetry_space_group_name_H-M    P1
_symmetry_Int_Tables_number       1
_space_group_crystal_system       triclinic
_cell_length_a                    14.938677
_cell_length_b                    14.131667
_cell_length_c                    11.506458
_cell_angle_alpha                 89.308632
_cell_angle_beta                  89.632812
_cell_angle_gamma                 88.913954
_cell_volume                      2428.45046121

loop_
_atom_site_label
_atom_site_type_symbol
_atom_type_description
_atom_site_fract_x
_atom_site_fract_y
_atom_site_fract_z
_atom_type_partial_charge
C1    C     C_R   0.327260 0.500961 0.499242 0.914616
C2    C     C_R   0.672773 0.499029 0.501227 0.922498
C3    C     C_R   0.905400 0.554012 0.419033 -0.048610
C4    C     C_R   0.094856 0.466334 0.604699 -0.050318
C5    C     C_R   0.954867 0.427620 0.701719 0.486628
C6    C     C_R   0.043721 0.617009 0.341270 0.499172
C7    C     C_R   0.048209 0.420967 0.696207 -0.004448
C8    C     C_R   0.951037 0.609177 0.335263 -0.003440
C9    C     C_R   0.536631 0.799310 0.408738 0.517993
C10   C     C_R   0.470395 0.200650 0.595982 0.517215
C11   C     C_R   0.455131 0.797670 0.586343 0.577029
C12   C     C_R   0.532047 0.201519 0.405404 0.569504
C13   C     C_R   0.457752 0.898604 0.592484 -0.222633
C14   C     C_R   0.523098 0.101132 0.397790 -0.216638
C15   C     C_R   0.523888 0.899625 0.399159 -0.230612
C16   C     C_R   0.459113 0.100438 0.593122 -0.229324
C17   C     C_R   0.490227 0.949721 0.495533 -0.135202
C18   C     C_R   0.490003 0.050463 0.495090 -0.129958
C19   C     C_R   0.425706 0.948297 0.691052 0.453466
C20   C     C_R   0.546010 0.050867 0.295295 0.440586
C21   C     C_R   0.542307 0.950449 0.295238 0.406862
C22   C     C_R   0.420610 0.049045 0.687764 0.425495
C23   C     C_R   0.500269 0.500461 0.282014 0.899116
C24   C     C_R   0.500498 0.499527 0.717972 0.891100
C25   C     C_1   0.500869 0.501170 0.161561 -0.150762
C26   C     C_1   0.501093 0.498795 0.838411 -0.181845
C27   C     C_1   0.501264 0.500569 0.059299 0.005666
C28   C     C_1   0.501354 0.499332 0.940663 -0.008653
C29   C     C_R   0.813233 0.540114 0.411124 0.478553
C30   C     C_R   0.188818 0.465775 0.600519 0.485126
C31   C     C_R   0.768321 0.497277 0.503458 -0.256578
C32   C     C_R   0.231853 0.504544 0.503556 -0.250963
C33   C     C_R   0.812971 0.458731 0.600001 -0.007666
C34   C     C_R   0.185367 0.551803 0.414624 -0.011116
C35   C     C_R   0.906385 0.466137 0.606426 0.004621
C36   C     C_R   0.092359 0.562020 0.423395 -0.000774
C37   C     C_R   0.952730 0.512379 0.514183 -0.125149
C38   C     C_R   0.046624 0.514627 0.515061 -0.126033
N1    N     N_R   0.500000 0.750030 0.500000 -0.206049
N2    N     N_R   0.500000 0.249970 0.500000 -0.205961
O1    O     O_R   0.367850 0.580280 0.500030 -0.645156
O2    O     O_R   0.632150 0.419720 0.499970 -0.654364
O3    O     O_R   0.632150 0.580280 0.499970 -0.592013
O4    O     O_R   0.367850 0.419720 0.500030 -0.574012
O5    O     O_R   0.500010 0.580270 0.334450 -0.567843
O6    O     O_R   0.499990 0.419730 0.665550 -0.570655
O7    O     O_R   0.499990 0.580270 0.665550 -0.573028
O8    O     O_R   0.500010 0.419730 0.334450 -0.570222
Zn1   Zn    Zn3+2 0.500000 0.607200 0.500000 1.003897
Zn2   Zn    Zn3+2 0.500000 0.392800 0.500000 1.004523
O9    O     O_3   0.765145 0.571519 0.315181 -0.604694
C39   C     C_3   0.757880 0.496352 0.236545 -0.319078
H1    H     H_    0.712266 0.441730 0.271463 0.169428
H2    H     H_    0.824425 0.464269 0.214368 0.149988
H3    H     H_    0.728159 0.524515 0.154769 0.195502
O10   O     O_3   0.239757 0.423573 0.687844 -0.575562
C40   C     C_3   0.260411 0.492862 0.770362 -0.277283
H4    H     H_    0.199170 0.529357 0.804576 0.142013
H5    H     H_    0.307161 0.545589 0.733394 0.164161
H6    H     H_    0.294391 0.457429 0.844934 0.202704
N3    N     N_3   0.763527 0.410408 0.689682 -0.383193
H7    H     H_    0.733795 0.351080 0.654223 0.192027
H8    H     H_    0.713740 0.455930 0.722481 0.162278
N4    N     N_3   0.231811 0.583073 0.311459 -0.379964
H9    H     H_    0.267828 0.525911 0.276361 0.169509
H10   H     H_    0.276325 0.636138 0.332934 0.198392
O11   O     O_3   0.912130 0.389863 0.798278 -0.595093
C41   C     C_3   0.897333 0.463035 0.879185 -0.326607
H11   H     H_    0.862752 0.433155 0.956543 0.188859
H12   H     H_    0.853536 0.520520 0.842768 0.170942
H13   H     H_    0.961309 0.493264 0.909027 0.144577
O12   O     O_3   0.085924 0.676241 0.262326 -0.591488
C42   C     C_3   0.102955 0.762710 0.317566 -0.354102
H14   H     H_    0.135915 0.810615 0.254092 0.191864
H15   H     H_    0.149061 0.752660 0.392470 0.157303
H16   H     H_    0.039873 0.798334 0.346965 0.144761
N5    N     N_3   0.094817 0.364703 0.782175 -0.381010
H17   H     H_    0.069904 0.296064 0.781249 0.202261
H18   H     H_    0.082761 0.393231 0.864229 0.196240
N6    N     N_3   0.903573 0.659238 0.244621 -0.396127
H19   H     H_    0.929561 0.637757 0.164352 0.206327
H20   H     H_    0.913688 0.731762 0.253142 0.184729
O13   O     O_3   0.582706 0.749791 0.323878 -0.538404
C43   C     C_3   0.675054 0.767164 0.335122 -0.110863
H21   H     H_    0.710720 0.735669 0.259816 0.222905
H22   H     H_    0.701896 0.734366 0.416264 0.159771
H23   H     H_    0.690621 0.843802 0.333449 0.097643
O14   O     O_3   0.457239 0.248446 0.698621 -0.536544
C44   C     C_3   0.535465 0.237009 0.766425 -0.152440
H24   H     H_    0.526583 0.278184 0.847289 0.188368
H25   H     H_    0.595351 0.264531 0.719957 0.109985
H26   H     H_    0.547723 0.161883 0.792501 0.153977
O15   O     O_3   0.402007 0.746782 0.662208 -0.531336
C45   C     C_3   0.312244 0.756020 0.624377 -0.272558
H27   H     H_    0.270041 0.707926 0.677074 0.166815
H28   H     H_    0.304545 0.737505 0.531354 0.149328
H29   H     H_    0.285509 0.828988 0.635776 0.124315
O16   O     O_3   0.578856 0.250573 0.321076 -0.525936
C46   C     C_3   0.671330 0.238812 0.343932 -0.273910
H30   H     H_    0.689612 0.268863 0.428995 0.159527
H31   H     H_    0.709669 0.275696 0.274840 0.165137
H32   H     H_    0.693223 0.163266 0.343048 0.127886
O17   O     O_3   0.417831 0.897814 0.795333 -0.570047
C47   C     C_3   0.334102 0.912171 0.850505 -0.218306
H33   H     H_    0.278499 0.927923 0.789305 0.115490
H34   H     H_    0.338732 0.968336 0.916618 0.195047
H35   H     H_    0.316841 0.846031 0.897733 0.170485
O18   O     O_3   0.560110 0.101587 0.192581 -0.563338
C48   C     C_3   0.641086 0.073882 0.137116 -0.194068
H36   H     H_    0.626826 0.025896 0.064157 0.203965
H37   H     H_    0.691228 0.040008 0.196616 0.110483
H38   H     H_    0.672211 0.137924 0.099073 0.163454
O19   O     O_3   0.555791 0.902329 0.192430 -0.591857
C49   C     C_3   0.472053 0.890894 0.139005 -0.213033
H39   H     H_    0.439794 0.960512 0.117438 0.163758
H40   H     H_    0.426672 0.847690 0.194411 0.144399
H41   H     H_    0.482749 0.852648 0.056296 0.214266
O20   O     O_3   0.382270 0.096392 0.780774 -0.583349
C50   C     C_3   0.295829 0.129809 0.748791 -0.234416
H42   H     H_    0.255057 0.074090 0.708358 0.091826
H43   H     H_    0.299180 0.191470 0.688355 0.220749
H44   H     H_    0.259962 0.153586 0.828252 0.187527

loop_
_geom_bond_atom_site_label_1
_geom_bond_atom_site_label_2
_ccdc_geom_bond_type
O15   C45   S    
C23   O5    A    
C42   H14   S    
C14   C18   A    
C43   H23   S    
C5    O11   S    
C47   H34   S    
C49   H39   S    
O7    Zn1   S    
N5    H17   S    
O18   C48   S    
C6    O12   S    
C10   O14   S    
C35   C37   A    
C24   C26   S    
C48   H37   S    
N6    H19   S    
C40   H5    S    
C9    N1    A    
O10   C40   S    
C10   N2    A    
C3    C29   A    
O20   C50   S    
C19   O17   S    
O13   C43   S    
C41   H11   S    
C21   O19   S    
C31   C33   A    
C44   H25   S    
C12   O16   S    
C39   H3    S    
C7    N5    S    
C11   O15   S    
O8    Zn2   S    
C42   H15   S    
N3    H7    S    
C4    C7    A    
O1    Zn1   S    
C47   H33   S    
C39   H2    S    
N5    H18   S    
C13   C19   A    
O9    C39   S    
C14   C20   A    
C19   C22   A    
C43   H21   S    
N6    H20   S    
C3    C8    A    
C48   H38   S    
C5    C7    A    
O3    Zn1   S    
C40   H6    S    
C6    C8    A    
C45   H29   S    
C30   O10   S    
C1    C32   S    
O11   C41   S    
C2    C31   S    
N4    H10   S    
C12   N2    A    
C11   N1    A    
C37   C38   A    
C1    O4    A    
C46   H30   S    
O5    Zn1   S    
C2    O3    A    
C34   N4    S    
C17   C18   A    
C16   C18   A    
C20   C21   A    
C44   H26   S    
C45   H28   S    
C50   H43   S    
O2    Zn2   S    
C1    O1    A    
N1    Zn1   S    
C12   C14   A    
C42   H16   S    
C27   C28   S    
C39   H1    S    
O19   C49   S    
C29   O9    S    
C50   H44   S    
O4    Zn2   S    
C22   O20   S    
C16   C22   A    
C23   O8    A    
C46   H31   S    
C24   O7    A    
N3    H8    S    
C4    C38   A    
O12   C42   S    
C49   H40   S    
C50   H42   S    
C9    O13   S    
C15   C17   A    
C25   C27   T    
O6    Zn2   S    
C26   C28   T    
C13   C17   A    
C24   O6    A    
N4    H9    S    
C36   C38   A    
C9    C15   A    
C29   C31   A    
C10   C16   A    
C48   H36   S    
C30   C32   A    
C11   C13   A    
C40   H4    S    
C2    O2    A    
C41   H13   S    
N2    Zn2   S    
C5    C35   A    
C33   C35   A    
C6    C36   A    
C34   C36   A    
C23   C25   S    
C45   H27   S    
C49   H41   S    
C15   C21   A    
C46   H32   S    
O14   C44   S    
C3    C37   A    
C33   N3    S    
O16   C46   S    
O17   C47   S    
C8    N6    S    
C41   H12   S    
C43   H22   S    
C44   H24   S    
C47   H35   S    
C4    C30   A    
C32   C34   A    
C20   O18   S    
