data_mof_unit_9647.cif
_audit_creation_date              2012-12-10T17:13:37-0500
_audit_creation_method            fapswitch 2.2
_symmetry_space_group_name_H-M    P1
_symmetry_Int_Tables_number       1
_space_group_crystal_system       triclinic
_cell_length_a                    10.736673
_cell_length_b                    12.999397
_cell_length_c                    11.654502
_cell_angle_alpha                 99.620708
_cell_angle_beta                  93.748852
_cell_angle_gamma                 90.942035
_cell_volume                      1599.69379251

loop_
_atom_site_label
_atom_site_type_symbol
_atom_type_description
_atom_site_fract_x
_atom_site_fract_y
_atom_site_fract_z
_atom_type_partial_charge
C1    C     C_R   0.498426 0.299120 0.478732 0.808391
C2    C     C_3   0.878444 0.497760 0.499976 0.118127
C3    C     C_3   0.933803 0.610001 0.497984 -0.131973
C4    C     C_3   0.918188 0.424958 0.389081 -0.407433
C5    C     C_R   0.494222 0.813725 0.532350 -0.049429
C6    C     C_R   0.499597 0.185886 0.465965 -0.074581
C7    C     C_R   0.523317 0.017392 0.344415 -0.010072
C8    C     C_R   0.517591 0.125732 0.357216 -0.247687
C9    C     C_R   0.485092 0.137946 0.562981 -0.274213
C10   C     C_R   0.488243 0.030042 0.552167 0.157928
C11   C     C_R   0.507367 0.968596 0.442469 0.114250
C12   C     C_R   0.259859 0.495255 0.499800 0.762146
C13   C     C_R   0.508471 0.860278 0.433918 -0.286090
C14   C     C_R   0.476039 0.875227 0.640346 -0.196654
C15   C     C_R   0.472736 0.982977 0.650121 -0.223556
C16   C     C_R   0.370740 0.411759 0.023318 -0.348999
C17   C     C_R   0.384541 0.418909 0.145260 0.083467
C18   C     C_R   0.557797 0.536294 0.156158 0.025298
C19   C     C_R   0.547825 0.531123 0.033520 0.075977
C20   C     C_R   0.452555 0.468380 0.966388 0.068352
C21   C     C_R   0.442200 0.463694 0.843818 0.018586
C22   C     C_R   0.616333 0.580131 0.854614 0.070438
C23   C     C_R   0.499062 0.700764 0.521114 0.823022
C24   C     C_R   0.630484 0.586770 0.976444 -0.335421
C25   C     C_R   0.740336 0.498753 0.499679 0.770613
C26   C     C_3   0.078249 0.454126 0.608901 -0.392277
C27   C     C_3   0.934920 0.451252 0.606117 -0.372006
C28   C     C_3   0.078183 0.607722 0.502187 -0.398809
C29   C     C_3   0.061769 0.423588 0.389091 -0.387089
C30   C     C_3   0.122260 0.494823 0.499972 0.149334
Cu1   Cu    Cu3+1 0.509350 0.507730 0.615930 0.931643
Cu2   Cu    Cu3+1 0.490650 0.492270 0.384070 0.926111
H1    H     H_    0.116427 0.505234 0.690245 0.170141
H2    H     H_    0.879858 0.452125 0.308570 0.172902
H3    H     H_    0.111489 0.638896 0.425846 0.151849
H4    H     H_    0.903382 0.628267 0.410449 0.115194
H5    H     H_    0.521169 0.811569 0.350905 0.169755
H6    H     H_    0.464547 0.840123 0.717124 0.152145
H7    H     H_    0.458577 0.029502 0.734273 0.134446
H8    H     H_    0.530674 0.163284 0.282323 0.165324
H9    H     H_    0.470699 0.184584 0.647107 0.152270
H10   H     H_    0.369814 0.415059 0.791156 0.112536
H11   H     H_    0.113485 0.374383 0.611258 0.154727
H12   H     H_    0.680468 0.623382 0.811496 0.135483
H13   H     H_    0.296635 0.362455 0.974111 0.132534
H14   H     H_    0.705838 0.634554 0.025433 0.132350
H15   H     H_    0.320926 0.375130 0.188346 0.118691
H16   H     H_    0.629962 0.585210 0.208816 0.113531
H17   H     H_    0.901229 0.368780 0.598842 0.161159
H18   H     H_    0.903480 0.491955 0.690097 0.169765
H19   H     H_    0.121877 0.658899 0.581189 0.160986
H20   H     H_    0.090702 0.450788 0.308926 0.174530
H21   H     H_    0.093667 0.342193 0.386017 0.155226
H22   H     H_    0.880362 0.344190 0.385940 0.165356
N1    N     N_R   0.523430 0.519360 0.790130 -0.178068
N2    N     N_R   0.476570 0.480640 0.209880 -0.178711
O1    O     O_R   0.506640 0.354460 0.582000 -0.588087
O2    O     O_R   0.490840 0.341410 0.386200 -0.590858
O3    O     O_R   0.325590 0.506510 0.597900 -0.594710
O4    O     O_R   0.309790 0.493450 0.402100 -0.593619
O5    O     O_R   0.509160 0.658590 0.613800 -0.581716
O6    O     O_R   0.493360 0.645540 0.418000 -0.587889
O7    O     O_R   0.690210 0.506550 0.597900 -0.586257
O8    O     O_R   0.674410 0.493490 0.402100 -0.597692
C31   C     C_R   0.549932 0.959177 0.228511 0.105578
C32   C     C_R   0.464739 0.959370 0.131802 -0.148651
C33   C     C_R   0.492715 0.908977 0.021175 -0.133353
C34   C     C_R   0.606284 0.859172 0.006225 -0.104906
C35   C     C_R   0.691897 0.859313 0.101953 -0.150495
C36   C     C_R   0.663923 0.908938 0.212867 -0.163571
H23   H     H_    0.377041 0.998746 0.142156 0.122296
H24   H     H_    0.426738 0.909162 0.946904 0.119328
H25   H     H_    0.628019 0.820753 0.920440 0.126466
H26   H     H_    0.780250 0.821427 0.090121 0.112209
H27   H     H_    0.731442 0.909384 0.286223 0.119648
C37   C     C_R   0.888757 0.698119 0.588500 0.127437
C38   C     C_R   0.922701 0.706224 0.708764 -0.132674
C39   C     C_R   0.884987 0.790580 0.788555 -0.175897
C40   C     C_R   0.817017 0.869982 0.749412 -0.118436
C41   C     C_R   0.786551 0.865039 0.630429 -0.112004
C42   C     C_R   0.820023 0.779060 0.550604 -0.171157
H28   H     H_    0.982196 0.650176 0.741506 0.117728
H29   H     H_    0.910942 0.795519 0.880677 0.121423
H30   H     H_    0.789567 0.936098 0.811075 0.128133
H31   H     H_    0.737046 0.928117 0.599859 0.146126
H32   H     H_    0.794294 0.777052 0.458819 0.104081

loop_
_geom_bond_atom_site_label_1
_geom_bond_atom_site_label_2
_ccdc_geom_bond_type
C17   H15   S    
Cu1   O5    S    
C19   C20   A    
Cu2   O2    S    
C6    C9    A    
C7    C8    A    
C38   C39   A    
C7    C11   A    
C26   C27   S    
C29   C30   S    
C3    H4    S    
C3    C28   S    
C18   C19   A    
C10   C15   A    
C40   H30   S    
C28   H19   S    
C7    C31   S    
C31   C36   A    
C33   H24   S    
C25   O7    A    
Cu1   O3    S    
C12   O3    A    
C39   H29   S    
C23   O6    A    
C22   H12   S    
Cu1   Cu2   S    
C28   H3    S    
C34   C35   A    
C2    C27   S    
C9    C10   A    
C13   H5    S    
C4    C29   S    
C27   H18   S    
C18   N2    A    
C4    H22   S    
C32   C33   A    
C26   H11   S    
C4    H2    S    
C33   C34   A    
Cu1   O7    S    
C37   C38   A    
Cu2   O8    S    
C21   N1    A    
C39   C40   A    
C16   C17   A    
C6    C8    A    
C34   H25   S    
C1    C6    S    
C25   O8    A    
C37   C42   A    
C2    C4    S    
C41   H31   S    
C1    O1    A    
C14   H6    S    
C26   H1    S    
C32   H23   S    
C5    C23   S    
C16   C20   A    
C35   H26   S    
C3    C37   S    
C17   N2    A    
C15   H7    S    
C5    C14   A    
C26   C30   S    
C22   C24   A    
C40   C41   A    
Cu2   O4    S    
C12   C30   S    
C5    C13   A    
C42   H32   S    
C41   C42   A    
C18   H16   S    
C16   H13   S    
C22   N1    A    
C9    H9    S    
C24   H14   S    
Cu1   O1    S    
C28   C30   S    
C2    C3    S    
Cu2   O6    S    
C1    O2    A    
C11   C13   A    
C29   H21   S    
C38   H28   S    
C19   C24   A    
C2    C25   S    
C35   C36   A    
C10   C11   A    
C21   H10   S    
C12   O4    A    
C23   O5    A    
C20   C21   A    
C31   C32   A    
C36   H27   S    
C14   C15   A    
C8    H8    S    
Cu1   N1    S    
Cu2   N2    S    
C27   H17   S    
C29   H20   S    
