data_mof_unit_61646.cif
_audit_creation_date              2012-12-10T19:51:14-0500
_audit_creation_method            fapswitch 2.2
_symmetry_space_group_name_H-M    P1
_symmetry_Int_Tables_number       1
_space_group_crystal_system       triclinic
_cell_length_a                    18.274658
_cell_length_b                    18.273442
_cell_length_c                    21.36584
_cell_angle_alpha                 89.999139
_cell_angle_beta                  89.99926
_cell_angle_gamma                 89.999562
_cell_volume                      7134.92790205

loop_
_atom_site_label
_atom_site_type_symbol
_atom_type_description
_atom_site_fract_x
_atom_site_fract_y
_atom_site_fract_z
_atom_type_partial_charge
C1    C     C_R   0.500016 0.141241 0.500000 0.947971
C2    C     C_R   0.141211 0.500000 0.500000 0.905671
C3    C     C_R   0.499106 0.999995 0.878206 0.972061
C4    C     C_R   0.499105 0.000005 0.121794 0.972065
C5    C     C_R   0.999105 0.500006 0.378206 0.972064
C6    C     C_R   0.999106 0.499994 0.621794 0.972063
C7    C     C_R   0.358677 0.000000 1.000000 0.948535
C8    C     C_R   0.858677 0.500000 0.500000 0.948535
C9    C     C_R   0.640986 0.500000 0.500000 0.929715
C10   C     C_R   0.140986 0.000000 1.000000 0.929714
C11   C     C_R   0.500020 0.359016 0.500000 0.925497
C12   C     C_R   0.500016 0.858759 0.499999 0.947937
C13   C     C_R   0.500020 0.640984 0.500000 0.925500
C14   C     C_R   0.000020 0.859016 0.000000 0.925497
C15   C     C_R   0.000020 0.140984 1.000000 0.925499
C16   C     C_R   0.359015 0.500000 0.500000 0.922398
C17   C     C_R   0.859015 1.000000 0.000000 0.922398
C18   C     C_1   0.717711 0.999999 0.000001 -0.193032
C19   C     C_1   0.217711 0.499999 0.500001 -0.193032
C20   C     C_1   0.282506 0.500000 0.500001 -0.194806
C21   C     C_1   0.782506 1.000000 0.000001 -0.194806
C22   C     C_1   0.282221 0.000001 0.999999 -0.161192
C23   C     C_R   0.000016 0.641241 0.000000 0.947971
C24   C     C_1   0.782221 0.500001 0.499999 -0.161191
C25   C     C_R   0.499925 0.999987 0.621727 0.999005
C26   C     C_R   0.499926 0.000012 0.378273 0.999004
C27   C     C_R   0.999925 0.500013 0.121727 0.999008
C28   C     C_R   0.999926 0.499986 0.878273 0.999001
C29   C     C_1   0.717452 0.500000 0.499999 -0.175133
C30   C     C_1   0.217452 0.000000 0.999999 -0.175133
C31   C     C_3   0.533084 0.060115 0.729892 0.482293
C32   C     C_3   0.533124 0.939903 0.270107 0.482287
C33   C     C_3   0.535195 0.058953 0.270102 0.481950
C34   C     C_R   0.000016 0.358759 1.000000 0.947938
C35   C     C_3   0.535229 0.941067 0.729896 0.481952
C36   C     C_3   0.035202 0.558950 0.229894 0.481946
C37   C     C_3   0.035240 0.441070 0.770104 0.481949
C38   C     C_3   0.033078 0.560118 0.770105 0.482298
C39   C     C_3   0.033110 0.439900 0.229894 0.482290
C40   C     C_3   0.570423 0.001252 0.770876 -0.479576
C41   C     C_3   0.570425 0.998790 0.229121 -0.479558
C42   C     C_3   0.070423 0.498781 0.270877 -0.479560
C43   C     C_3   0.070425 0.501259 0.729121 -0.479573
C44   C     C_3   0.499567 0.999972 0.810886 -0.256056
C45   C     C_1   0.500027 0.282517 0.500001 -0.183358
C46   C     C_3   0.499567 0.000027 0.189114 -0.256057
C47   C     C_3   0.999566 0.500031 0.310885 -0.256055
C48   C     C_3   0.999568 0.499968 0.689114 -0.256058
C49   C     C_3   0.463529 0.058872 0.769822 0.482458
C50   C     C_3   0.463567 0.941105 0.230179 0.482446
C51   C     C_3   0.465643 0.060176 0.230184 0.482205
C52   C     C_3   0.465679 0.939802 0.769817 0.482202
C53   C     C_3   0.965652 0.560185 0.269815 0.482208
C54   C     C_3   0.965690 0.439794 0.730186 0.482204
C55   C     C_3   0.963522 0.558864 0.730177 0.482454
C56   C     C_1   0.500028 0.717483 0.499999 -0.183368
C57   C     C_3   0.963554 0.441114 0.269823 0.482444
C58   C     C_3   0.428393 0.998689 0.729010 -0.487500
C59   C     C_3   0.428395 0.001267 0.270992 -0.487483
C60   C     C_3   0.928392 0.501283 0.229010 -0.487486
C61   C     C_3   0.928396 0.498675 0.770992 -0.487499
C62   C     C_3   0.499287 0.999962 0.688971 -0.252444
C63   C     C_3   0.499289 0.000037 0.311029 -0.252442
C64   C     C_3   0.999287 0.500039 0.188971 -0.252443
C65   C     C_3   0.999290 0.499959 0.811029 -0.252443
C66   C     C_1   0.500027 0.217728 0.500001 -0.168276
C67   C     C_1   0.000027 0.782517 0.000001 -0.183359
C68   C     C_1   0.500028 0.782272 0.499999 -0.168300
C69   C     C_1   0.000027 0.717728 0.000001 -0.168277
C70   C     C_1   0.000028 0.282272 0.999999 -0.168300
C71   C     C_3   0.600881 0.163392 0.750135 -0.271798
C72   C     C_3   0.600975 0.836662 0.249861 -0.271818
C73   C     C_3   0.606585 0.159774 0.249820 -0.272333
C74   C     C_3   0.606680 0.840288 0.750176 -0.272317
C75   C     C_3   0.106615 0.659755 0.250170 -0.272332
C76   C     C_3   0.106709 0.340303 0.749827 -0.272320
C77   C     C_3   0.100854 0.663408 0.749856 -0.271797
C78   C     C_1   0.000028 0.217483 0.999999 -0.183367
C79   C     C_3   0.100941 0.336645 0.250142 -0.271813
C80   C     C_3   0.392110 0.159517 0.748628 -0.278431
C81   C     C_3   0.392211 0.840418 0.251379 -0.278455
C82   C     C_3   0.397802 0.163248 0.251462 -0.278427
C83   C     C_3   0.397891 0.836697 0.748540 -0.278409
C84   C     C_3   0.897829 0.663269 0.248535 -0.278424
C85   C     C_3   0.897920 0.336678 0.751469 -0.278409
C86   C     C_3   0.892088 0.659497 0.751370 -0.278437
C87   C     C_3   0.892178 0.340441 0.248631 -0.278456
C88   C     C_R   0.641211 1.000000 0.000000 0.905671
H1    H     H_    0.626869 0.002271 0.790026 0.169277
H2    H     H_    0.562609 0.178464 0.788514 0.192422
H3    H     H_    0.621487 0.214998 0.729247 0.185770
H4    H     H_    0.648889 0.866838 0.230862 0.161218
H5    H     H_    0.562698 0.821548 0.211499 0.192430
H6    H     H_    0.621633 0.785080 0.270753 0.185769
H7    H     H_    0.568820 0.176259 0.211499 0.192255
H8    H     H_    0.653375 0.127929 0.230768 0.161130
H9    H     H_    0.629086 0.210578 0.270712 0.185545
H10   H     H_    0.568926 0.823781 0.788498 0.192255
H11   H     H_    0.653452 0.872160 0.769226 0.161121
H12   H     H_    0.626871 0.997805 0.209968 0.169275
H13   H     H_    0.629211 0.789497 0.729282 0.185538
H14   H     H_    0.153404 0.627902 0.269214 0.161132
H15   H     H_    0.068858 0.676240 0.288498 0.192248
H16   H     H_    0.129118 0.710559 0.229278 0.185547
H17   H     H_    0.153479 0.372181 0.730779 0.161123
H18   H     H_    0.068961 0.323794 0.711502 0.192249
H19   H     H_    0.129244 0.289513 0.770720 0.185539
H20   H     H_    0.062573 0.678482 0.711484 0.192430
H21   H     H_    0.148799 0.633270 0.730871 0.161220
H22   H     H_    0.121461 0.715012 0.770744 0.185767
H23   H     H_    0.126869 0.497786 0.290028 0.169275
H24   H     H_    0.062657 0.321532 0.288501 0.192437
H25   H     H_    0.148856 0.366813 0.269145 0.161215
H26   H     H_    0.121594 0.285062 0.229249 0.185768
H27   H     H_    0.345357 0.127586 0.729626 0.160033
H28   H     H_    0.430047 0.175643 0.710321 0.187896
H29   H     H_    0.369577 0.210525 0.769127 0.186334
H30   H     H_    0.345445 0.872324 0.270388 0.160036
H31   H     H_    0.430163 0.824309 0.289679 0.187893
H32   H     H_    0.369701 0.789400 0.230880 0.186343
H33   H     H_    0.436244 0.177901 0.289833 0.187526
H34   H     H_    0.126871 0.502286 0.709969 0.169277
H35   H     H_    0.349894 0.132995 0.270368 0.159915
H36   H     H_    0.377169 0.215086 0.231025 0.186659
H37   H     H_    0.436327 0.822087 0.710151 0.187502
H38   H     H_    0.349950 0.866918 0.729660 0.159916
H39   H     H_    0.377310 0.784835 0.768972 0.186660
H40   H     H_    0.849916 0.633025 0.229632 0.159912
H41   H     H_    0.936274 0.677916 0.210163 0.187528
H42   H     H_    0.877205 0.715111 0.268972 0.186658
H43   H     H_    0.849976 0.366892 0.770353 0.159913
H44   H     H_    0.936359 0.322071 0.789855 0.187505
H45   H     H_    0.371739 0.997665 0.710313 0.187804
H46   H     H_    0.877343 0.284814 0.731039 0.186659
H47   H     H_    0.930022 0.675627 0.789676 0.187894
H48   H     H_    0.845339 0.627560 0.770373 0.160038
H49   H     H_    0.869548 0.710503 0.730871 0.186335
H50   H     H_    0.930125 0.324328 0.210327 0.187890
H51   H     H_    0.845415 0.372355 0.229625 0.160039
H52   H     H_    0.869663 0.289426 0.269131 0.186344
H53   H     H_    0.371740 0.002257 0.289692 0.187805
H54   H     H_    0.871738 0.502283 0.210312 0.187804
H55   H     H_    0.871742 0.497643 0.789691 0.187805
H56   H     H_    0.648827 0.133249 0.769109 0.161224
O1    O     O_R   0.439410 0.107330 0.500000 -0.636974
O2    O     O_R   0.560610 0.892690 0.500000 -0.607149
O3    O     O_R   0.060610 0.607310 0.000000 -0.607158
O4    O     O_R   0.060610 0.392690 0.000000 -0.607149
O5    O     O_R   0.439410 0.000000 0.593020 -0.651219
O6    O     O_R   0.439410 0.000000 0.406980 -0.651221
O7    O     O_R   0.939410 0.500000 0.093020 -0.651221
O8    O     O_R   0.939410 0.500000 0.906980 -0.651219
O9    O     O_R   0.560610 0.000000 0.593010 -0.584517
O10   O     O_R   0.560610 1.000000 0.406990 -0.584516
O11   O     O_R   0.060610 0.500000 0.093010 -0.584515
O12   O     O_R   0.439410 0.892670 0.500000 -0.636979
O13   O     O_R   0.060610 0.500000 0.906990 -0.584519
O14   O     O_R   0.607280 0.939410 0.000000 -0.632779
O15   O     O_R   0.607280 0.060590 0.000000 -0.632782
O16   O     O_R   0.107280 0.439410 0.500000 -0.632779
O17   O     O_R   0.107280 0.560590 0.500000 -0.632782
O18   O     O_R   0.499930 0.939410 0.906960 -0.601940
O19   O     O_R   0.499930 0.060590 0.093040 -0.601965
O20   O     O_R   0.499930 0.939410 0.093040 -0.603396
O21   O     O_R   0.499930 0.060590 0.906960 -0.603423
O22   O     O_R   0.999930 0.439410 0.406960 -0.603400
O23   O     O_R   0.939410 0.607330 0.000000 -0.636974
O24   O     O_R   0.999930 0.560590 0.593040 -0.603425
O25   O     O_R   0.999930 0.439410 0.593040 -0.601937
O26   O     O_R   0.999930 0.560590 0.406960 -0.601962
O27   O     O_R   0.392580 0.939390 0.000000 -0.610831
O28   O     O_R   0.392580 0.060610 0.000000 -0.610819
O29   O     O_R   0.892580 0.439390 0.500000 -0.610831
O30   O     O_R   0.892580 0.560610 0.500000 -0.610820
O31   O     O_R   0.607360 0.500000 0.552500 -0.617629
O32   O     O_R   0.607360 0.500000 0.447500 -0.617628
O33   O     O_R   0.107360 0.000000 0.052500 -0.617628
O34   O     O_R   0.939410 0.392670 0.000000 -0.636978
O35   O     O_R   0.107360 0.000000 0.947500 -0.617629
O36   O     O_R   0.500010 0.392660 0.552500 -0.619516
O37   O     O_R   0.500010 0.607340 0.447500 -0.619520
O38   O     O_R   0.500010 0.392660 0.447500 -0.619881
O39   O     O_R   0.500010 0.607340 0.552500 -0.619883
O40   O     O_R   0.000010 0.892660 0.052500 -0.619884
O41   O     O_R   0.000010 0.107340 0.947500 -0.619886
O42   O     O_R   0.000010 0.892660 0.947500 -0.619513
O43   O     O_R   0.000010 0.107340 0.052500 -0.619516
O44   O     O_3   0.565779 0.122574 0.702994 -0.605942
O45   O     O_R   0.392660 0.500000 0.552510 -0.622877
O46   O     O_3   0.565860 0.877466 0.297004 -0.605922
O47   O     O_3   0.570095 0.120218 0.296981 -0.604928
O48   O     O_3   0.570166 0.879823 0.703017 -0.604907
O49   O     O_3   0.070113 0.620208 0.203013 -0.604925
O50   O     O_3   0.070186 0.379831 0.796985 -0.604903
O51   O     O_3   0.065764 0.622581 0.797000 -0.605944
O52   O     O_3   0.065835 0.377457 0.202998 -0.605927
O53   O     O_3   0.428321 0.120302 0.796167 -0.588835
O54   O     O_3   0.428395 0.879654 0.203837 -0.588825
O55   O     O_3   0.432623 0.122842 0.203893 -0.588101
O56   O     O_R   0.392660 0.500000 0.447490 -0.622876
O57   O     O_3   0.432700 0.877115 0.796107 -0.588090
O58   O     O_3   0.932644 0.622858 0.296105 -0.588096
O59   O     O_3   0.932720 0.377101 0.703899 -0.588086
O60   O     O_3   0.928305 0.620288 0.703832 -0.588840
O61   O     O_3   0.928372 0.379670 0.296169 -0.588830
O62   O     O_R   0.892660 1.000000 0.052510 -0.622876
O63   O     O_R   0.892660 0.000000 0.947490 -0.622876
O64   O     O_R   0.560610 0.107310 0.500000 -0.607158
Zn1   Zn    Zn3+2 0.419080 0.000000 0.500000 0.939770
Zn2   Zn    Zn3+2 0.500000 0.500000 0.429880 0.965461
Zn3   Zn    Zn3+2 0.000000 0.000000 0.070120 0.965462
Zn4   Zn    Zn3+2 0.000000 0.000000 0.929880 0.965460
Zn5   Zn    Zn3+2 0.919080 0.500000 0.000000 0.939770
Zn6   Zn    Zn3+2 0.580940 0.000000 0.500000 1.040218
Zn7   Zn    Zn3+2 0.080940 0.500000 0.000000 1.040219
Zn8   Zn    Zn3+2 0.499940 0.919080 0.000000 1.001006
Zn9   Zn    Zn3+2 0.499940 0.080920 0.000000 1.000975
Zn10  Zn    Zn3+2 0.999940 0.419080 0.500000 1.001005
Zn11  Zn    Zn3+2 0.999940 0.580920 0.500000 1.000976
Zn12  Zn    Zn3+2 0.500000 0.500000 0.570120 0.965461

loop_
_geom_bond_atom_site_label_1
_geom_bond_atom_site_label_2
_ccdc_geom_bond_type
C44   C49   S    
C84   H40   S    
C48   C55   S    
C58   C62   S    
C35   O48   S    
C7    O27   A    
C70   C78   T    
C18   C21   T    
O31   Zn12  S    
C23   C69   S    
C36   C42   S    
C19   C20   T    
C71   O44   S    
O10   Zn6   S    
C50   O54   S    
C74   H10   S    
O18   Zn8   S    
C38   O51   S    
C73   H9    S    
C39   C64   S    
C15   O41   A    
C81   H32   S    
O39   Zn12  S    
C6    C48   S    
C79   H24   S    
C50   C59   S    
C17   O62   A    
O5    Zn1   S    
C33   O47   S    
O26   Zn11  S    
O42   Zn4   S    
C85   H44   S    
C14   O42   A    
C8    O30   A    
C15   C78   S    
C80   O53   S    
C14   C67   S    
O14   Zn8   S    
C54   O59   S    
C39   C57   S    
C57   O61   S    
C84   H41   S    
O38   Zn2   S    
C31   C40   S    
C9    O32   A    
C25   O5    A    
C52   O57   S    
C88   O15   A    
C12   O2    A    
C1    O64   A    
C24   C29   T    
C87   O61   S    
C36   C53   S    
C3    O18   A    
C60   H54   S    
C36   O49   S    
O3    Zn7   S    
C34   O4    A    
O62   Zn3   S    
O20   Zn8   S    
O16   Zn10  S    
C38   C55   S    
C80   H28   S    
O15   Zn9   S    
C37   C65   S    
C31   O44   S    
C75   H14   S    
C76   H18   S    
C41   C46   S    
C80   H27   S    
C9    O31   A    
C88   O14   A    
C40   H1    S    
C43   C48   S    
C87   H52   S    
C82   H33   S    
C16   O56   A    
O45   Zn12  S    
O21   Zn9   S    
C85   H46   S    
C47   C53   S    
C13   C56   S    
C72   H6    S    
C44   C52   S    
O27   Zn8   S    
O25   Zn10  S    
C2    C19   S    
O24   Zn11  S    
C7    O28   A    
C75   H15   S    
C31   C62   S    
O64   Zn6   S    
C11   O38   A    
O19   Zn9   S    
C31   C49   S    
C2    O17   A    
C72   O46   S    
O9    Zn6   S    
C53   C60   S    
C61   H55   S    
C46   C50   S    
C39   C42   S    
O1    Zn1   S    
C77   H20   S    
C58   H45   S    
C27   O11   A    
C52   C58   S    
C6    O24   A    
C3    C44   S    
O13   Zn7   S    
C5    O26   A    
C25   O9    A    
C5    C47   S    
O6    Zn1   S    
C26   O6    A    
C4    O19   A    
C32   C63   S    
C83   H37   S    
C87   H51   S    
C81   O54   S    
C85   O59   S    
C8    O29   A    
C57   C60   S    
C4    C46   S    
C13   O39   A    
C56   C68   T    
C15   O43   A    
C46   C51   S    
O56   Zn2   S    
C49   C58   S    
C51   O55   S    
O37   Zn2   S    
C67   C69   T    
C37   C43   S    
C48   C54   S    
C26   C63   S    
C83   O57   S    
C47   C57   S    
C12   C68   S    
C10   C30   S    
C38   C65   S    
C17   O63   A    
C32   C41   S    
C4    O20   A    
C1    C66   S    
O41   Zn4   S    
C32   O46   S    
C33   C63   S    
C16   C20   S    
C5    O22   A    
C49   O53   S    
O11   Zn7   S    
O29   Zn10  S    
C43   H34   S    
C32   C50   S    
C73   O47   S    
C76   O50   S    
C74   H13   S    
C74   O48   S    
C72   H5    S    
C75   O49   S    
C86   H48   S    
O43   Zn3   S    
C28   O8    A    
C76   H19   S    
C13   O37   A    
O17   Zn11  S    
C26   O10   A    
C75   H16   S    
C23   O23   A    
C34   O34   A    
C51   C59   S    
C1    O1    A    
C73   H7    S    
C87   H50   S    
C40   C44   S    
O4    Zn7   S    
C86   O60   S    
C82   H35   S    
C55   C61   S    
C3    O21   A    
O40   Zn3   S    
C82   H36   S    
C39   O52   S    
C84   O58   S    
O22   Zn10  S    
C80   H29   S    
C77   H21   S    
C27   O7    A    
C22   C30   T    
O34   Zn5   S    
O12   Zn1   S    
C10   O33   A    
O35   Zn4   S    
C42   H23   S    
O2    Zn6   S    
C83   H39   S    
C14   O40   A    
C74   H11   S    
O30   Zn11  S    
C54   C61   S    
C9    C29   S    
C25   C62   S    
C33   C51   S    
C7    C22   S    
C37   C54   S    
O8    Zn5   S    
C81   H31   S    
C59   C63   S    
C53   O58   S    
C86   H49   S    
C60   C64   S    
C33   C41   S    
C37   O50   S    
O33   Zn3   S    
C10   O35   A    
C79   H25   S    
C28   C65   S    
C77   O51   S    
C82   O55   S    
C41   H12   S    
C85   H43   S    
C35   C52   S    
O63   Zn4   S    
C71   H2    S    
C23   O3    A    
C11   C45   S    
C72   H4    S    
C55   O60   S    
C81   H30   S    
C84   H42   S    
C28   O13   A    
C8    C24   S    
O32   Zn2   S    
C35   C40   S    
C35   C62   S    
C42   C47   S    
C12   O12   A    
C77   H22   S    
C18   C88   S    
O36   Zn12  S    
C16   O45   A    
C79   O52   S    
C61   C65   S    
C86   H47   S    
C38   C43   S    
C71   H3    S    
C59   H53   S    
C2    O16   A    
O7    Zn5   S    
C79   H26   S    
C45   C66   T    
C27   C64   S    
O23   Zn5   S    
C11   O36   A    
C83   H38   S    
C73   H8    S    
C36   C64   S    
C34   C70   S    
C76   H17   S    
O28   Zn9   S    
C71   H56   S    
C6    O25   A    
C17   C21   S    
