data_mof_unit_61061.cif
_audit_creation_date              2012-12-10T21:03:37-0500
_audit_creation_method            fapswitch 2.2
_symmetry_space_group_name_H-M    P1
_symmetry_Int_Tables_number       1
_space_group_crystal_system       triclinic
_cell_length_a                    15.847901
_cell_length_b                    15.060159
_cell_length_c                    23.50613
_cell_angle_alpha                 90.000055
_cell_angle_beta                  89.980327
_cell_angle_gamma                 89.999518
_cell_volume                      5610.25258648

loop_
_atom_site_label
_atom_site_type_symbol
_atom_type_description
_atom_site_fract_x
_atom_site_fract_y
_atom_site_fract_z
_atom_type_partial_charge
C1    C     C_R   0.338852 0.500002 0.500019 0.895296
C2    C     C_R   0.661148 0.500001 0.499981 0.895408
C3    C     C_R   0.548034 0.429225 0.239588 -0.083016
C4    C     C_R   0.451956 0.429267 0.760413 -0.082771
C5    C     C_R   0.551873 0.435084 0.298378 0.427545
C6    C     C_R   0.448103 0.435136 0.701623 0.427412
C7    C     C_R   0.501905 0.499449 0.327000 -0.256790
C8    C     C_R   0.498125 0.499448 0.672997 -0.256944
C9    C     C_R   0.452983 0.560920 0.295228 -0.100881
C10   C     C_R   0.547130 0.560853 0.704762 -0.100303
C11   C     C_R   0.456638 0.557828 0.235903 -0.067302
C12   C     C_R   0.543497 0.557757 0.764089 -0.067410
C13   C     C_R   0.502122 0.491162 0.208212 0.151707
C14   C     C_R   0.497945 0.491147 0.791784 0.151578
C15   C     C_R   0.956245 0.579457 0.509592 -0.165988
C16   C     C_R   0.043753 0.420595 0.490392 -0.165917
C17   C     C_R   0.043740 0.579460 0.509587 -0.165411
C18   C     C_R   0.956259 0.420593 0.490394 -0.165293
C19   C     C_R   0.913146 0.500023 0.499995 0.162361
C20   C     C_R   0.086852 0.500028 0.499988 0.162762
C21   C     C_1   0.824367 0.500018 0.499994 -0.053349
C22   C     C_1   0.175632 0.500022 0.499997 -0.053328
C23   C     C_1   0.250468 0.500011 0.500008 -0.166106
C24   C     C_1   0.749531 0.500008 0.499988 -0.166012
C25   C     C_R   0.499768 0.499999 0.389141 0.842401
C26   C     C_R   0.500240 0.499999 0.610858 0.842433
C27   C     C_R   0.470114 0.953096 0.452768 -0.145970
C28   C     C_R   0.529884 0.046885 0.547232 -0.144519
C29   C     C_R   0.529886 0.953096 0.547232 -0.146319
C30   C     C_R   0.470116 0.046886 0.452768 -0.144867
C31   C     C_R   0.500000 0.905038 0.500000 0.066112
C32   C     C_R   0.500000 0.094949 0.500000 0.064424
C33   C     C_1   0.500000 0.807190 0.500000 0.071686
C34   C     C_1   0.500000 0.192806 0.500000 0.084559
C35   C     C_R   0.574052 0.480607 0.880517 0.522911
C36   C     C_R   0.426007 0.480710 0.119479 0.522837
C37   C     C_R   0.423297 0.489175 0.881416 0.523609
C38   C     C_R   0.576771 0.489083 0.118581 0.523649
C39   C     C_R   0.422332 0.484796 0.940750 -0.020612
C40   C     C_R   0.577732 0.484699 0.059247 -0.020640
C41   C     C_R   0.499684 0.482533 0.970117 -0.019272
C42   C     C_R   0.500378 0.482534 0.029879 -0.019272
C43   C     C_R   0.576351 0.481088 0.939891 -0.020538
C44   C     C_R   0.423709 0.481191 0.060105 -0.020487
C45   C     C_R   0.346165 0.483811 0.971251 -0.146456
C46   C     C_R   0.653899 0.483612 0.028746 -0.146456
C47   C     C_R   0.346852 0.480981 0.030433 -0.145764
C48   C     C_R   0.653208 0.480780 0.969563 -0.145741
H1    H     H_    0.285896 0.484964 0.949547 0.197565
H2    H     H_    0.714169 0.484688 0.050450 0.197555
H3    H     H_    0.287092 0.480078 0.052801 0.197774
H4    H     H_    0.712967 0.479797 0.947195 0.197782
H5    H     H_    0.583450 0.377782 0.217939 0.184274
H6    H     H_    0.416492 0.377867 0.782066 0.184369
H7    H     H_    0.421426 0.605287 0.210669 0.203810
H8    H     H_    0.578768 0.605170 0.789320 0.203819
H9    H     H_    0.077653 0.640872 0.517006 0.151806
H10   H     H_    0.922346 0.359180 0.482974 0.152484
H11   H     H_    0.922321 0.640867 0.517015 0.152011
H12   H     H_    0.077675 0.359183 0.482973 0.151783
H13   H     H_    0.446700 0.081924 0.415759 0.149655
H14   H     H_    0.553306 0.918052 0.584239 0.153739
H15   H     H_    0.553299 0.081923 0.584241 0.149809
H16   H     H_    0.446694 0.918053 0.415761 0.153885
N1    N     N_R   0.498402 0.486490 0.852555 -0.341867
N2    N     N_R   0.501663 0.486498 0.147441 -0.341868
N3    N     N_1   0.500000 0.270550 0.500000 -0.075876
N4    N     N_1   0.500000 0.729450 0.500000 -0.085371
O1    O     O_R   0.378020 0.573650 0.500020 -0.610991
O2    O     O_R   0.621980 0.426350 0.499980 -0.607760
O3    O     O_R   0.621980 0.573650 0.499980 -0.610912
O4    O     O_R   0.378020 0.426350 0.500020 -0.607747
O5    O     O_R   0.499980 0.573680 0.416160 -0.623168
O6    O     O_R   0.500020 0.426320 0.583840 -0.585457
O7    O     O_R   0.500020 0.573680 0.583840 -0.623421
O8    O     O_R   0.499980 0.426320 0.416160 -0.585742
O9    O     O_2   0.646756 0.474019 0.850870 -0.548688
O10   O     O_2   0.353295 0.474216 0.149126 -0.548854
O11   O     O_2   0.349893 0.497391 0.852776 -0.549414
O12   O     O_2   0.650185 0.497205 0.147221 -0.549358
Zn1   Zn    Zn3+2 0.500000 0.598370 0.500000 0.985827
Zn2   Zn    Zn3+2 0.500000 0.401630 0.500000 1.014064
O13   O     O_3   0.605755 0.377377 0.325967 -0.736362
H17   H     H_    0.627460 0.406749 0.360684 0.340752
O14   O     O_3   0.394156 0.377489 0.674041 -0.735726
H18   H     H_    0.372498 0.406867 0.639313 0.340967
C49   C     C_2   0.393993 0.625064 0.322433 0.463598
H19   H     H_    0.372926 0.615874 0.365885 0.079303
O15   O     O_2   0.366612 0.688675 0.296012 -0.557090
C50   C     C_2   0.606179 0.624928 0.677546 0.462786
H20   H     H_    0.627142 0.615774 0.634069 0.078971
O16   O     O_2   0.633728 0.688440 0.703986 -0.557674

loop_
_geom_bond_atom_site_label_1
_geom_bond_atom_site_label_2
_ccdc_geom_bond_type
C30   C32   A    
C49   H19   S    
C11   C13   A    
C41   C42   A    
C39   C41   A    
O14   H18   S    
C40   C46   A    
C37   O11   S    
C6    O14   S    
N4    Zn1   S    
C28   C29   A    
C19   C21   S    
C5    O13   S    
C36   N2    A    
C35   N1    A    
C17   C20   A    
C8    C26   S    
C7    C9    A    
C18   C19   A    
C16   H12   S    
C18   H10   S    
C38   N2    A    
C37   N1    A    
C31   C33   S    
C35   C43   A    
C43   C48   A    
C3    C13   A    
C44   C47   A    
C39   C45   A    
C40   C42   A    
C27   C30   A    
C41   C43   A    
C42   C44   A    
O6    Zn2   S    
O5    Zn1   S    
C13   N2    S    
C45   C47   A    
C46   C48   A    
C1    O4    A    
C30   H13   S    
C27   C31   A    
C28   C32   A    
C4    C6    A    
O8    Zn2   S    
C5    C7    A    
O7    Zn1   S    
C6    C8    A    
C35   O9    S    
C1    O1    A    
C32   C34   S    
C15   C19   A    
C50   O16   D    
O13   H17   S    
C45   H1    S    
C16   C20   A    
C26   O7    A    
C16   C18   A    
C9    C11   A    
C12   H8    S    
C10   C12   A    
C8    C10   A    
C20   C22   S    
C1    C23   S    
C49   O15   D    
C2    C24   S    
C36   C44   A    
C2    O3    A    
C11   H7    S    
C15   C17   A    
C29   H14   S    
C4    H6    S    
C15   H11   S    
C12   C14   A    
C3    C5    A    
C34   N3    T    
C47   H3    S    
C46   H2    S    
C7    C25   S    
C25   O8    A    
C37   C39   A    
C36   O10   S    
C9    C49   S    
C38   C40   A    
C3    H5    S    
C50   H20   S    
C38   O12   S    
C26   O6    A    
C14   N1    S    
C25   O5    A    
C4    C14   A    
O2    Zn2   S    
O1    Zn1   S    
C27   H16   S    
C28   H15   S    
C48   H4    S    
C10   C50   S    
N3    Zn2   S    
C29   C31   A    
C21   C24   T    
C22   C23   T    
C2    O2    A    
O4    Zn2   S    
C33   N4    T    
C17   H9    S    
O3    Zn1   S    
