data_mof_unit_23245.cif
_audit_creation_date              2012-12-11T16:15:03-0500
_audit_creation_method            fapswitch 2.2
_symmetry_space_group_name_H-M    P1
_symmetry_Int_Tables_number       1
_space_group_crystal_system       triclinic
_cell_length_a                    13.565712
_cell_length_b                    13.561918
_cell_length_c                    28.436702
_cell_angle_alpha                 90.358174
_cell_angle_beta                  90.222487
_cell_angle_gamma                 60.142122
_cell_volume                      4537.17037842

loop_
_atom_site_label
_atom_site_type_symbol
_atom_type_description
_atom_site_fract_x
_atom_site_fract_y
_atom_site_fract_z
_atom_type_partial_charge
C1    C     C_R   0.279909 0.620490 0.566617 0.546955
C2    C     C_1   0.637344 0.633936 0.612426 0.026758
C3    C     C_3   0.741073 0.701031 0.759408 -0.178182
C4    C     C_3   0.665300 0.684739 0.795431 -0.056850
C5    C     C_3   0.756316 0.594622 0.732921 0.370638
C6    C     C_3   0.650816 0.669442 0.703313 0.011712
C7    C     C_3   0.682146 0.578594 0.769116 0.472610
C8    C     C_3   0.576289 0.653549 0.739514 0.409349
C9    C     C_1   0.679226 0.692676 0.845829 -0.006689
C10   C     C_1   0.644811 0.654063 0.652954 0.037319
C11   C     C_1   0.635416 0.227413 0.611044 0.007293
C12   C     C_R   0.621625 0.601034 0.566680 0.545739
C13   C     C_R   0.750185 0.198266 0.726052 0.324102
C14   C     C_R   0.759930 0.181878 0.775047 0.330832
C15   C     C_R   0.635318 0.100904 0.770750 -0.166813
C16   C     C_R   0.627127 0.115407 0.722171 -0.170201
C17   C     C_R   0.682320 0.165842 0.699784 -0.013211
C18   C     C_R   0.699086 0.136283 0.797457 -0.006386
C19   C     C_1   0.703727 0.120983 0.847530 -0.015430
C20   C     C_1   0.659240 0.194944 0.650924 -0.016425
C21   C     C_1   0.709575 0.098376 0.888635 0.003480
C22   C     C_1   0.233049 0.636416 0.612816 0.011894
C23   C     C_R   0.600654 0.279291 0.565905 0.546152
C24   C     C_R   0.174811 0.571454 0.727087 -0.097663
C25   C     C_R   0.161391 0.577317 0.776114 0.226105
C26   C     C_R   0.175437 0.749326 0.777455 0.357711
C27   C     C_R   0.186657 0.744031 0.728598 -0.050731
C28   C     C_R   0.185799 0.655566 0.703343 -0.051177
C29   C     C_R   0.163487 0.665776 0.801382 0.059227
C30   C     C_1   0.139734 0.678766 0.850925 0.048803
C31   C     C_1   0.206481 0.646240 0.653613 -0.024591
C32   C     C_1   0.109327 0.696651 0.891252 0.019013
C33   C     C_1   0.636952 0.633384 0.388551 0.011286
C34   C     C_R   0.276828 0.621013 0.434371 0.545877
C35   C     C_R   0.752506 0.590823 0.274446 -0.073638
C36   C     C_R   0.757120 0.597342 0.225685 0.356268
C37   C     C_R   0.566942 0.763256 0.225247 0.218325
C38   C     C_R   0.561955 0.753719 0.274451 -0.122956
C39   C     C_R   0.655086 0.668651 0.298851 -0.064840
C40   C     C_R   0.664172 0.682233 0.200966 0.055394
C41   C     C_1   0.674803 0.692230 0.151208 0.065132
C42   C     C_1   0.646534 0.653189 0.348207 -0.031675
C43   C     C_1   0.692267 0.702100 0.110569 0.032397
C44   C     C_1   0.634311 0.225295 0.388957 0.047565
C45   C     C_R   0.620343 0.600397 0.434106 0.544765
C46   C     C_R   0.580266 0.167213 0.274713 0.320672
C47   C     C_R   0.584710 0.159931 0.225891 -0.168365
C48   C     C_R   0.761456 0.164564 0.226553 0.431004
C49   C     C_R   0.756886 0.172449 0.275519 0.372483
C50   C     C_R   0.666516 0.173165 0.299533 -0.014455
C51   C     C_R   0.674823 0.158997 0.201866 -0.076432
C52   C     C_1   0.684701 0.137450 0.152580 0.022783
C53   C     C_1   0.653674 0.195176 0.348813 0.081646
C54   C     C_1   0.695868 0.107743 0.112361 0.027619
C55   C     C_1   0.227498 0.637345 0.389081 0.009740
C56   C     C_R   0.600396 0.277243 0.433819 0.539081
C57   C     C_R   0.252675 0.673571 0.270336 -0.084503
C58   C     C_R   0.240537 0.674819 0.221715 -0.085251
C59   C     C_R   0.092539 0.625047 0.230688 -0.088498
C60   C     C_R   0.104725 0.623759 0.279399 -0.086548
C61   C     C_R   0.183946 0.649310 0.299082 0.043253
C62   C     C_R   0.160205 0.650994 0.201996 0.034079
C63   C     C_1   0.136175 0.667848 0.153055 -0.033591
C64   C     C_1   0.200944 0.644975 0.348579 -0.036361
C65   C     C_1   0.105384 0.690530 0.113177 0.016258
C66   C     C_R   0.720915 0.054759 0.935136 0.544031
C67   C     C_3   0.633577 0.776833 0.729394 -0.223537
C68   C     C_R   0.730639 0.717735 0.932232 0.544632
C69   C     C_R   0.057957 0.729113 0.936619 0.537201
C70   C     C_R   0.714466 0.056281 0.067347 0.545667
C71   C     C_R   0.725575 0.717304 0.064836 0.544422
C72   C     C_R   0.053840 0.727443 0.068519 0.550482
C73   C     C_3   0.557875 0.761084 0.766280 -0.141667
C74   C     C_1   0.698188 0.701843 0.886366 0.011041
Cr1   Cr    Cr6+3 0.413560 0.417690 0.499580 1.057019
Cr2   Cr    Cr6+3 0.418030 0.668340 0.500400 1.048886
Cr3   Cr    Cr6+3 0.668390 0.413960 0.499990 1.056928
Cr4   Cr    Cr6+3 0.919710 0.916540 0.003080 1.064273
Cr5   Cr    Cr6+3 0.665300 0.919470 0.999630 1.045324
Cr6   Cr    Cr6+3 0.916060 0.665490 0.000390 1.055678
H1    H     H_    0.475622 0.828921 0.780522 0.161330
H2    H     H_    0.574583 0.090666 0.702240 0.132262
H3    H     H_    0.176556 0.501503 0.707736 0.149133
H4    H     H_    0.196919 0.808441 0.710497 0.149393
H5    H     H_    0.824170 0.523774 0.293081 0.170292
H6    H     H_    0.485332 0.810760 0.293556 0.132932
H7    H     H_    0.613945 0.858224 0.712521 0.134476
H8    H     H_    0.518702 0.153736 0.206832 0.145671
H9    H     H_    0.315060 0.692172 0.285550 0.124418
H10   H     H_    0.291657 0.696796 0.199659 0.140738
H11   H     H_    0.028804 0.608480 0.215459 0.162534
H12   H     H_    0.052295 0.603781 0.301565 0.127809
H13   H     H_    0.809048 0.721154 0.767882 0.111990
H14   H     H_    0.590333 0.063461 0.787648 0.139755
O1    O     O_R   0.503010 0.303330 0.550820 -0.505258
O2    O     O_R   0.522480 0.657560 0.452870 -0.496258
O3    O     O_R   0.693670 0.502790 0.448900 -0.495871
O4    O     O_R   0.656970 0.319650 0.452000 -0.492040
O5    O     O_3   0.499990 0.499990 0.499990 -0.260022
O6    O     O_R   0.035380 0.825870 0.952240 -0.498394
O7    O     O_R   0.818010 0.012400 0.954990 -0.497760
O8    O     O_R   0.644810 0.033340 0.949080 -0.501528
O9    O     O_R   0.674910 0.816000 0.950960 -0.494546
O10   O     O_R   0.827060 0.642880 0.947470 -0.506920
O11   O     O_R   0.013800 0.673690 0.954100 -0.500664
O12   O     O_R   0.320040 0.522690 0.547470 -0.493434
O13   O     O_R   0.031250 0.825430 0.055080 -0.493530
O14   O     O_R   0.814180 0.011990 0.050320 -0.479408
O15   O     O_R   0.640680 0.032900 0.051920 -0.513703
O16   O     O_R   0.671090 0.815590 0.046300 -0.498037
O17   O     O_R   0.822940 0.642440 0.050310 -0.484464
O18   O     O_R   0.009970 0.673280 0.049430 -0.491756
O19   O     O_3   0.833690 0.833830 0.001040 -0.265805
O20   O     O_R   0.303930 0.694040 0.551750 -0.503857
O21   O     O_R   0.523510 0.657900 0.548240 -0.495130
O22   O     O_R   0.694770 0.503160 0.551780 -0.501363
O23   O     O_R   0.657990 0.319990 0.547370 -0.493272
O24   O     O_R   0.501900 0.302960 0.447930 -0.493732
O25   O     O_R   0.319020 0.522350 0.452090 -0.490711
O26   O     O_R   0.302820 0.693680 0.448870 -0.503927
O27   O     O_3   0.150509 0.494124 0.799436 -0.547276
C75   C     C_3   0.034948 0.523882 0.798533 -0.015344
H15   H     H_    0.004477 0.530150 0.761706 0.192570
H16   H     H_    0.981408 0.606219 0.817120 0.114352
C76   C     C_3   0.020878 0.432756 0.823361 -0.326130
H17   H     H_    0.047706 0.426466 0.860685 0.161463
H18   H     H_    0.930372 0.454642 0.822121 0.169889
H19   H     H_    0.073655 0.349411 0.805702 0.163982
F1    F     F_    0.174748 0.836691 0.801331 -0.655215
F2    F     F_    0.852642 0.521132 0.202560 -0.608562
O28   O     O_3   0.475851 0.845544 0.199758 -0.561683
C77   C     C_3   0.441326 0.955273 0.217918 0.000642
H20   H     H_    0.515258 0.965644 0.228029 0.149423
H21   H     H_    0.385153 0.972872 0.248905 0.167647
C78   C     C_3   0.374018 0.043023 0.180426 -0.341189
H22   H     H_    0.299445 0.035402 0.169395 0.191395
H23   H     H_    0.343512 0.129906 0.194652 0.135684
H24   H     H_    0.428764 0.029661 0.149354 0.156698
F3    F     F_    0.491218 0.170202 0.297677 -0.622844
F4    F     F_    0.850384 0.161142 0.203319 -0.554643
F5    F     F_    0.839290 0.180831 0.299424 -0.575492
F6    F     F_    0.491733 0.628374 0.728719 -0.588909
F7    F     F_    0.706919 0.476681 0.789665 -0.542691
F8    F     F_    0.857302 0.508368 0.714929 -0.648676
O29   O     O_3   0.798052 0.256376 0.705156 -0.470932
C79   C     C_3   0.901147 0.177292 0.683425 -0.010150
H25   H     H_    0.885277 0.135003 0.653025 0.116797
H26   H     H_    0.959434 0.111254 0.708626 0.112524
C80   C     C_3   0.960422 0.239676 0.665384 -0.306516
H27   H     H_    0.981001 0.279501 0.695248 0.214925
H28   H     H_    0.040533 0.178863 0.647275 0.084646
H29   H     H_    0.904450 0.306757 0.640173 0.196392
O30   O     O_3   0.823705 0.217450 0.800586 -0.470992
C81   C     C_3   0.928299 0.121827 0.813672 0.008410
H30   H     H_    0.960909 0.051352 0.787236 0.127470
H31   H     H_    0.918813 0.088512 0.847923 0.152889
C82   C     C_3   0.017206 0.158045 0.819400 -0.329740
H32   H     H_    0.989561 0.225702 0.846643 0.165087
H33   H     H_    0.099444 0.084150 0.830310 0.152702
H34   H     H_    0.029237 0.190849 0.785486 0.159822

loop_
_geom_bond_atom_site_label_1
_geom_bond_atom_site_label_2
_ccdc_geom_bond_type
C58   C62   A    
C78   H24   S    
C59   C60   A    
C63   C65   T    
C82   H32   S    
C21   C66   S    
C15   C18   A    
C33   C45   S    
C66   O8    A    
C35   C36   A    
C68   O9    A    
C56   O4    A    
C2    C12   S    
C17   C20   S    
C15   H14   S    
C7    F7    S    
O29   C79   S    
Cr1   O1    S    
C7    C8    S    
Cr2   O5    S    
C26   C27   A    
Cr2   O26   S    
C57   H9    S    
Cr6   O10   S    
C33   C42   T    
C27   H4    S    
C19   C21   T    
C24   H3    S    
C37   C40   A    
Cr3   O23   S    
C80   H28   S    
C5    C6    S    
C68   C74   S    
C15   C16   A    
C71   O16   A    
Cr2   O21   S    
Cr4   O14   S    
C18   C19   S    
C14   C18   A    
C8    F6    S    
C44   C53   T    
C48   C51   A    
C77   H20   S    
C71   O17   A    
C76   H19   S    
Cr2   O20   S    
Cr5   O8    S    
Cr3   O3    S    
C67   C73   S    
C13   O29   S    
Cr3   O22   S    
C81   H31   S    
C1    O12   A    
C12   O21   A    
C1    C22   S    
C82   H33   S    
C13   C14   A    
Cr4   O7    S    
C34   O26   A    
C41   C43   T    
C66   O7    A    
Cr5   O9    S    
Cr1   O24   S    
C4    C7    S    
C73   H1    S    
C52   C54   T    
C39   C42   S    
C79   H26   S    
C75   H15   S    
C60   H12   S    
C25   C29   A    
C11   C20   T    
C50   C53   S    
C22   C31   T    
Cr5   O15   S    
C51   C52   S    
C68   O10   A    
C78   H22   S    
Cr1   O25   S    
C24   C25   A    
C81   C82   S    
C80   H29   S    
C5    C7    S    
C48   F4    S    
C16   C17   A    
C5    F8    S    
C47   C51   A    
Cr6   O11   S    
C37   O28   S    
C49   F5    S    
C60   C61   A    
C37   C38   A    
C61   C64   S    
C35   C39   A    
C23   O23   A    
C29   C30   S    
C70   O15   A    
C36   F2    S    
C79   C80   S    
C44   C56   S    
C54   C70   S    
C72   O13   A    
C36   C40   A    
C55   C64   T    
Cr6   O18   S    
C62   C63   S    
Cr1   O5    S    
C4    C73   S    
Cr3   O4    S    
C3    H13   S    
C59   H11   S    
C58   H10   S    
C81   H30   S    
O27   C75   S    
C26   F1    S    
C26   C29   A    
C40   C41   S    
C38   H6    S    
C49   C50   A    
C82   H34   S    
Cr5   O19   S    
C14   O30   S    
Cr4   O6    S    
C76   H17   S    
Cr4   O19   S    
C1    O20   A    
C75   H16   S    
O28   C77   S    
C2    C10   T    
C79   H25   S    
C34   O25   A    
C78   H23   S    
C46   C47   A    
C6    C67   S    
C59   C62   A    
C69   O11   A    
Cr5   O16   S    
C56   O24   A    
C28   C31   S    
C3    C67   S    
C24   C28   A    
C3    C5    S    
C6    C10   S    
C6    C8    S    
C57   C61   A    
C32   C69   S    
C65   C72   S    
C46   C50   A    
C67   H7    S    
C13   C17   A    
C47   H8    S    
C75   C76   S    
O30   C81   S    
C45   O3    A    
C80   H27   S    
Cr2   O2    S    
C30   C32   T    
C35   H5    S    
C57   C58   A    
C38   C39   A    
C77   C78   S    
C48   C49   A    
Cr6   O17   S    
C11   C23   S    
C8    C73   S    
C23   O1    A    
Cr3   O5    S    
C43   C71   S    
C72   O18   A    
C69   O6    A    
C34   C55   S    
Cr6   O19   S    
Cr1   O12   S    
C77   H21   S    
C16   H2    S    
C9    C74   T    
C27   C28   A    
C76   H18   S    
Cr4   O13   S    
C70   O14   A    
C4    C9    S    
C45   O2    A    
C25   O27   S    
C3    C4    S    
C46   F3    S    
C12   O22   A    
