data_mof_unit_15598.cif
_audit_creation_date              2012-12-10T19:07:02-0500
_audit_creation_method            fapswitch 2.2
_symmetry_space_group_name_H-M    P1
_symmetry_Int_Tables_number       1
_space_group_crystal_system       triclinic
_cell_length_a                    27.801589
_cell_length_b                    10.824866
_cell_length_c                    9.545371
_cell_angle_alpha                 89.865744
_cell_angle_beta                  89.832385
_cell_angle_gamma                 90.323943
_cell_volume                      2872.59864617

loop_
_atom_site_label
_atom_site_type_symbol
_atom_type_description
_atom_site_fract_x
_atom_site_fract_y
_atom_site_fract_z
_atom_type_partial_charge
C1    C     C_R   0.500750 0.262330 0.500100 0.797685
C2    C     C_R   0.278698 0.483219 0.626694 -0.104322
C3    C     C_R   0.253597 0.496906 0.500790 0.362738
C4    C     C_R   0.101836 0.494056 0.499270 -0.043508
C5    C     C_R   0.127536 0.383168 0.515030 -0.021004
C6    C     C_R   0.102456 0.271807 0.528823 -0.144512
C7    C     C_R   0.127481 0.605926 0.484483 -0.021149
C8    C     C_R   0.354482 0.499065 0.500486 -0.039323
C9    C     C_R   0.645207 0.494784 0.499810 -0.121116
C10   C     C_R   0.974232 0.378989 0.518307 0.043187
C11   C     C_R   0.974249 0.604361 0.475483 0.042906
C12   C     C_R   0.407459 0.499795 0.500156 0.795359
C13   C     C_R   0.948983 0.491243 0.496602 0.072397
C14   C     C_R   0.947121 0.269850 0.543013 -0.198229
C15   C     C_R   0.897181 0.270476 0.543219 -0.134060
C16   C     C_R   0.872091 0.379727 0.519401 -0.037372
C17   C     C_R   0.897795 0.490408 0.496149 -0.042960
C18   C     C_R   0.872153 0.600302 0.472635 -0.024835
C19   C     C_R   0.821664 0.597573 0.473046 0.560256
C20   C     C_R   0.821580 0.381097 0.519386 0.613605
C21   C     C_R   0.720102 0.438219 0.386202 0.653967
C22   C     C_R   0.669937 0.440958 0.387229 -0.295209
C23   C     C_R   0.500644 0.737685 0.499830 0.797674
C24   C     C_R   0.671279 0.543844 0.612632 -0.208155
C25   C     C_R   0.721395 0.541305 0.611522 -0.182299
C26   C     C_R   0.745976 0.488943 0.498227 0.242119
C27   C     C_R   0.025403 0.379426 0.515449 0.043428
C28   C     C_R   0.050650 0.493085 0.498280 0.067937
C29   C     C_R   0.025383 0.605799 0.480156 0.043668
C30   C     C_R   0.052519 0.269627 0.528674 -0.202287
C31   C     C_R   0.102354 0.716350 0.469861 -0.144589
C32   C     C_R   0.947197 0.712505 0.449648 -0.201552
C33   C     C_R   0.897275 0.710271 0.448669 -0.137876
C34   C     C_R   0.592442 0.498826 0.499910 0.836197
C35   C     C_R   0.052430 0.716640 0.468134 -0.202695
C36   C     C_R   0.504815 0.063256 0.625850 0.143194
C37   C     C_R   0.505192 0.129263 0.500045 -0.093094
C38   C     C_R   0.511788 0.064905 0.373741 -0.206985
C39   C     C_R   0.511528 0.936194 0.373532 -0.212754
C40   C     C_R   0.504880 0.870892 0.499609 -0.093692
C41   C     C_R   0.504555 0.936025 0.625571 0.121175
C42   C     C_3   0.469786 0.929022 0.745016 -0.456861
C43   C     C_3   0.470340 0.069155 0.745932 -0.480941
C44   C     C_R   0.514826 0.602129 0.072554 0.178346
C45   C     C_R   0.178038 0.386182 0.515659 0.534833
C46   C     C_R   0.480365 0.404806 0.074852 -0.061529
C47   C     C_R   0.480383 0.404812 0.926015 -0.061877
C48   C     C_R   0.514090 0.602695 0.925542 0.176268
C49   C     C_3   0.561173 0.667751 0.915068 -0.537076
C50   C     C_3   0.562705 0.666572 0.074659 0.295608
C51   C     C_R   0.177976 0.604824 0.485438 0.534998
C52   C     C_R   0.278840 0.511691 0.374767 -0.105151
C53   C     C_R   0.328992 0.512434 0.374389 -0.214036
C54   C     C_R   0.328864 0.484612 0.626763 -0.218169
Cu1   Cu    Cu3+1 0.500000 0.499980 0.640670 0.952615
Cu2   Cu    Cu3+1 0.500000 0.500020 0.359330 0.975082
H1    H     H_    0.347523 0.473816 0.725431 0.157802
H2    H     H_    0.259526 0.522223 0.277152 0.137985
H3    H     H_    0.121228 0.803798 0.459891 0.187607
H4    H     H_    0.963308 0.801085 0.427899 0.138095
H5    H     H_    0.653011 0.585927 0.700429 0.162356
H6    H     H_    0.878397 0.795815 0.428811 0.190338
H7    H     H_    0.741219 0.580494 0.698376 0.172131
H8    H     H_    0.036313 0.806376 0.458899 0.136371
H9    H     H_    0.514821 0.113303 0.274633 0.163779
H10   H     H_    0.514155 0.888615 0.274327 0.149670
H11   H     H_    0.434461 0.888855 0.714299 0.205751
H12   H     H_    0.259273 0.471871 0.724415 0.138074
H13   H     H_    0.485969 0.888054 0.840566 0.188568
H14   H     H_    0.435270 0.110719 0.716685 0.200022
H15   H     H_    0.487323 0.108163 0.841473 0.193260
H16   H     H_    0.465101 0.326803 0.130587 0.133361
H17   H     H_    0.464971 0.327178 0.870885 0.131737
H18   H     H_    0.589213 0.609943 0.865028 0.231850
H19   H     H_    0.557771 0.762112 0.870463 0.153082
H20   H     H_    0.560435 0.759513 0.124108 0.057889
H21   H     H_    0.121381 0.185083 0.539580 0.187636
H22   H     H_    0.650428 0.401024 0.300157 0.207639
H23   H     H_    0.878263 0.184301 0.562597 0.188842
H24   H     H_    0.963190 0.181706 0.564577 0.137037
H25   H     H_    0.036458 0.179312 0.537552 0.136379
H26   H     H_    0.347740 0.523887 0.275561 0.159035
N1    N     N_R   0.202072 0.495955 0.500837 -0.470127
N2    N     N_R   0.797535 0.489050 0.496457 -0.447857
N3    N     N_R   0.500300 0.500930 0.147930 -0.164701
N4    N     N_R   0.500310 0.500890 0.852020 -0.165819
O1    O     O_R   0.500000 0.319640 0.618810 -0.583319
O2    O     O_2   0.796666 0.275687 0.543013 -0.507783
O3    O     O_2   0.202839 0.711645 0.471714 -0.531759
O4    O     O_2   0.796830 0.702374 0.449689 -0.531536
O5    O     O_R   0.500010 0.319680 0.381230 -0.592891
O6    O     O_R   0.430260 0.500000 0.618780 -0.585335
O7    O     O_R   0.430270 0.500040 0.381190 -0.586361
O8    O     O_R   0.499990 0.680320 0.618770 -0.577697
O9    O     O_R   0.500000 0.680360 0.381190 -0.594633
O10   O     O_R   0.569730 0.499960 0.618810 -0.582771
O11   O     O_R   0.569740 0.500000 0.381220 -0.525923
O12   O     O_2   0.202965 0.280309 0.530136 -0.532380
O13   O     O_3   0.599691 0.589789 0.125325 -0.530071
C55   C     C_3   0.642244 0.660451 0.138434 -0.255070
H27   H     H_    0.639748 0.722871 0.230496 0.165457
H28   H     H_    0.650505 0.714615 0.041857 0.153744
H29   H     H_    0.672875 0.597180 0.155267 0.207264
F1    F     F_    0.743576 0.387705 0.275663 -0.642754

loop_
_geom_bond_atom_site_label_1
_geom_bond_atom_site_label_2
_ccdc_geom_bond_type
C10   C27   A    
C1    O1    A    
Cu2   O9    S    
C21   C26   A    
C24   H5    S    
C41   C42   S    
Cu1   Cu2   S    
C50   O13   S    
Cu1   O6    S    
C28   C29   A    
C34   O10   A    
C2    H12   S    
C45   O12   S    
C4    C7    A    
C5    C6    A    
C9    C22   A    
C42   H11   S    
C23   C40   S    
C34   O11   A    
C18   C19   A    
C25   H7    S    
C31   H3    S    
C21   F1    S    
Cu2   O5    S    
C15   H23   S    
C16   C17   A    
C43   H15   S    
C49   H19   S    
C35   H8    S    
C14   H24   S    
C46   H16   S    
C16   C20   A    
C46   N3    A    
C1    O5    A    
C21   C22   A    
C27   C30   A    
C36   C41   A    
C45   N1    A    
Cu2   O11   S    
Cu1   O8    S    
C4    C28   A    
Cu2   O7    S    
C7    C31   A    
C47   N4    A    
C24   C25   A    
C22   H22   S    
C2    C54   A    
C8    C54   A    
C39   C40   A    
C33   H6    S    
C6    H21   S    
C25   C26   A    
C5    C45   A    
C42   H13   S    
C53   H26   S    
C37   C38   A    
C50   H20   S    
O13   C55   S    
C38   H9    S    
C8    C12   S    
C55   H28   S    
C17   C18   A    
C47   H17   S    
C52   H2    S    
C44   N3    A    
C40   C41   A    
C6    C30   A    
C11   C32   A    
C43   H14   S    
C20   N2    A    
C3    N1    S    
C9    C34   S    
C39   H10   S    
C31   C35   A    
C12   O7    A    
C42   C43   S    
C32   H4    S    
C19   N2    A    
C51   N1    A    
C52   C53   A    
C44   C50   S    
C46   C47   A    
C48   C49   S    
C26   N2    S    
C14   C15   A    
C12   O6    A    
Cu1   O10   S    
C10   C13   A    
C8    C53   A    
C3    C52   A    
C9    C24   A    
C1    C37   S    
C29   C35   A    
C23   O8    A    
C13   C17   A    
C32   C33   A    
C30   H25   S    
C2    C3    A    
C7    C51   A    
C19   O4    S    
C51   O3    S    
C11   C13   A    
Cu2   N3    S    
C38   C39   A    
Cu1   N4    S    
C20   O2    S    
C55   H27   S    
C23   O9    A    
C48   N4    A    
C55   H29   S    
Cu1   O1    S    
C18   C33   A    
C44   C48   A    
C4    C5    A    
C11   C29   A    
C36   C37   A    
C49   C50   S    
C27   C28   A    
C49   H18   S    
C36   C43   S    
C15   C16   A    
C10   C14   A    
C54   H1    S    
