data_mof_unit_58955.cif
_audit_creation_date              2012-12-10T17:33:40-0500
_audit_creation_method            fapswitch 2.2
_symmetry_space_group_name_H-M    P1
_symmetry_Int_Tables_number       1
_space_group_crystal_system       triclinic
_cell_length_a                    11.672174
_cell_length_b                    12.408299
_cell_length_c                    13.182901
_cell_angle_alpha                 116.450374
_cell_angle_beta                  75.844259
_cell_angle_gamma                 100.842897
_cell_volume                      1650.62124733

loop_
_atom_site_label
_atom_site_type_symbol
_atom_type_description
_atom_site_fract_x
_atom_site_fract_y
_atom_site_fract_z
_atom_type_partial_charge
C1    C     C_R   0.514757 0.855316 0.285644 0.782570
C2    C     C_R   0.497992 0.227535 0.836298 -0.228119
C3    C     C_R   0.631585 0.812323 0.087151 0.281093
C4    C     C_R   0.698433 0.724866 0.993592 -0.181588
C5    C     C_R   0.667627 0.603050 0.966530 -0.282564
C6    C     C_R   0.560163 0.562330 0.020241 0.126053
C7    C     C_R   0.498977 0.648980 0.122491 0.048434
C8    C     C_R   0.516642 0.437385 0.981238 -0.030687
C9    C     C_R   0.432888 0.400038 0.059962 0.014587
C10   C     C_R   0.373581 0.486799 0.160793 -0.165958
C11   C     C_R   0.399693 0.608623 0.186216 -0.195496
C12   C     C_R   0.715761 0.999457 0.499179 0.806920
C13   C     C_R   0.546659 0.349666 0.866028 0.153395
C14   C     C_R   0.446408 0.188372 0.924216 0.381763
C15   C     C_R   0.541150 0.773573 0.161107 -0.208529
C16   C     C_R   0.691591 0.339625 0.321167 -0.317822
C17   C     C_R   0.323360 0.744497 0.627633 0.415780
C18   C     C_R   0.276374 0.633048 0.631144 0.194208
C19   C     C_R   0.340472 0.534141 0.566357 -0.265565
C20   C     C_R   0.458598 0.545403 0.516371 -0.011192
C21   C     C_R   0.500040 0.653915 0.502373 0.163876
C22   C     C_R   0.528895 0.445063 0.466050 -0.114583
C23   C     C_R   0.493815 0.144506 0.713344 0.834736
C24   C     C_R   0.630205 0.444309 0.381254 0.023468
C25   C     C_R   0.666902 0.546860 0.356569 0.225663
C26   C     C_R   0.602806 0.650138 0.418980 -0.178889
C27   C     C_R   0.504383 0.347616 0.501132 0.631829
C28   C     C_R   0.656151 0.240882 0.348844 -0.040102
C29   C     C_R   0.284455 0.999793 0.499502 0.793291
C30   C     C_1   0.837631 0.999136 0.498620 -0.190997
C31   C     C_1   0.940366 0.999112 0.498178 -0.007850
C32   C     C_1   0.060362 0.999317 0.497965 -0.019447
C33   C     C_1   0.162930 0.999535 0.498319 -0.215108
C34   C     C_R   0.408822 0.276623 0.036929 0.148444
Cu1   Cu    Cu3+1 0.526510 0.098270 0.475420 0.942292
Cu2   Cu    Cu3+1 0.473490 0.901730 0.524580 0.936698
H1    H     H_    0.766009 0.332224 0.251546 0.167743
H2    H     H_    0.293046 0.447142 0.546617 0.138678
H3    H     H_    0.632108 0.724258 0.396682 0.211062
H4    H     H_    0.302644 0.460648 0.218140 0.167867
H5    H     H_    0.730856 0.542096 0.904889 0.179096
H6    H     H_    0.776867 0.749304 0.941934 0.153528
H7    H     H_    0.343240 0.670830 0.258731 0.162948
H8    H     H_    0.703567 0.160822 0.301588 0.177381
N1    N     N_R   0.566700 0.246290 0.438210 -0.215425
N2    N     N_R   0.434010 0.754320 0.561170 -0.240759
O1    O     O_R   0.533340 0.972510 0.318140 -0.569846
O2    O     O_R   0.488570 0.806530 0.359650 -0.594575
O3    O     O_R   0.685190 0.083000 0.479260 -0.584876
O4    O     O_R   0.640410 0.917020 0.520770 -0.585381
O5    O     O_R   0.511430 0.193470 0.640350 -0.514139
O6    O     O_R   0.466660 0.027490 0.681860 -0.564751
O7    O     O_R   0.359590 0.082980 0.479230 -0.594031
O8    O     O_R   0.314810 0.917000 0.520740 -0.567409
O9    O     O_3   0.457734 0.069732 0.901632 -0.546776
C35   C     C_3   0.348847 0.007235 0.927366 -0.308004
H9    H     H_    0.351971 0.911274 0.865266 0.193303
H10   H     H_    0.270384 0.041741 0.921288 0.128119
H11   H     H_    0.339419 0.006257 0.012637 0.172153
N3    N     N_2   0.771313 0.546079 0.272100 -0.430573
H12   H     H_    0.846819 0.528336 0.287265 0.248747
C36   C     C_3   0.792087 0.631798 0.221318 -0.693286
H13   H     H_    0.863984 0.603430 0.144458 0.228460
H14   H     H_    0.820095 0.723233 0.283985 0.216537
H15   H     H_    0.710988 0.634157 0.193005 0.249195
O10   O     O_3   0.452094 0.374070 0.615720 -0.570973
C37   C     C_3   0.333468 0.322735 0.629907 -0.229625
H16   H     H_    0.324176 0.260160 0.670925 0.178680
H17   H     H_    0.295972 0.276539 0.549395 0.130362
H18   H     H_    0.276845 0.395417 0.693138 0.144841
N4    N     N_2   0.250760 0.843245 0.688163 -0.436959
H19   H     H_    0.289141 0.929865 0.714722 0.284793
C38   C     C_3   0.130449 0.827019 0.668092 -0.627472
H20   H     H_    0.110335 0.908079 0.662971 0.210141
H21   H     H_    0.066588 0.817039 0.741685 0.237102
H22   H     H_    0.117566 0.747072 0.586493 0.232764
N5    N     N_2   0.161554 0.618041 0.694960 -0.425509
H23   H     H_    0.118409 0.532711 0.660059 0.241510
C39   C     C_3   0.157537 0.660279 0.817171 -0.703165
H24   H     H_    0.214268 0.608333 0.832408 0.227480
H25   H     H_    0.064798 0.647712 0.860268 0.217089
H26   H     H_    0.187892 0.757904 0.856122 0.236222
N6    N     N_2   0.350362 0.244782 0.129341 -0.445246
H27   H     H_    0.273829 0.187467 0.117889 0.238711
C40   C     C_3   0.427869 0.227234 0.189897 -0.637713
H28   H     H_    0.478312 0.147495 0.132644 0.241970
H29   H     H_    0.374672 0.213207 0.266012 0.206961
H30   H     H_    0.491003 0.308602 0.220140 0.248644
N7    N     N_2   0.612369 0.385017 0.777060 -0.381667
H31   H     H_    0.596412 0.463604 0.776408 0.285604
C41   C     C_3   0.724823 0.335213 0.713572 -0.610321
H32   H     H_    0.799899 0.405789 0.735266 0.181109
H33   H     H_    0.726938 0.302136 0.620058 0.260562
H34   H     H_    0.738439 0.259608 0.731637 0.209659
N8    N     N_2   0.656862 0.938245 0.111674 -0.413920
H35   H     H_    0.582185 0.981796 0.130792 0.263783
C42   C     C_3   0.757028 0.978621 0.043269 -0.722463
H36   H     H_    0.764356 0.078774 0.078149 0.223782
H37   H     H_    0.744432 0.940767 0.952460 0.240642
H38   H     H_    0.840654 0.951938 0.047794 0.227032

loop_
_geom_bond_atom_site_label_1
_geom_bond_atom_site_label_2
_ccdc_geom_bond_type
C16   C28   A    
C21   C26   A    
C8    C13   A    
Cu1   O7    S    
C38   H20   S    
N8    H35   S    
O9    C35   S    
Cu1   O1    S    
C42   H36   S    
Cu2   O4    S    
N5    H23   S    
C7    C11   A    
C4    H6    S    
N3    C36   S    
C30   C31   T    
C26   H3    S    
C29   O8    A    
C29   C33   S    
C35   H9    S    
C10   H4    S    
C18   C19   A    
C2    C13   A    
C36   H14   S    
C31   C32   S    
C8    C9    A    
Cu1   O3    S    
Cu2   N2    S    
C1    C15   S    
C25   N3    S    
N7    C41   S    
C9    C10   A    
Cu2   O6    S    
C16   H1    S    
C13   N7    S    
C27   N1    A    
C7    C15   A    
C14   O9    S    
C16   C24   A    
C38   H21   S    
C42   H37   S    
C12   O3    A    
N5    C39   S    
C28   N1    A    
C40   H29   S    
C37   H16   S    
O10   C37   S    
C24   C25   A    
C41   H32   S    
N4    C38   S    
C1    O1    A    
C6    C8    A    
C25   C26   A    
C40   H28   S    
C28   H8    S    
N3    H12   S    
C37   H17   S    
Cu1   Cu2   S    
C36   H13   S    
C19   H2    S    
C41   H33   S    
C23   O5    A    
N6    H27   S    
C17   C18   A    
C17   N2    A    
C11   H7    S    
N6    C40   S    
C20   C22   A    
C17   N4    S    
C22   C27   A    
Cu1   O5    S    
C9    C34   A    
C38   H22   S    
C22   C24   A    
C34   N6    S    
C3    C4    A    
Cu1   N1    S    
C42   H38   S    
C3    C15   A    
C39   H25   S    
C21   N2    A    
C40   H30   S    
C5    H5    S    
C36   H15   S    
C12   C30   S    
C4    C5    A    
C14   C34   A    
C39   H26   S    
C12   O4    A    
N8    C42   S    
C1    O2    A    
C6    C7    A    
C35   H11   S    
C37   H18   S    
C32   C33   T    
C19   C20   A    
N4    H19   S    
C27   O10   S    
C41   H34   S    
C23   O6    A    
C5    C6    A    
C29   O7    A    
C18   N5    S    
C35   H10   S    
Cu2   O2    S    
C2    C14   A    
Cu2   O8    S    
C10   C11   A    
C39   H24   S    
C20   C21   A    
C2    C23   S    
C3    N8    S    
N7    H31   S    
