data_mof_unit_9429.cif
_audit_creation_date              2012-12-10T20:05:41-0500
_audit_creation_method            fapswitch 2.2
_symmetry_space_group_name_H-M    P1
_symmetry_Int_Tables_number       1
_space_group_crystal_system       triclinic
_cell_length_a                    12.891625
_cell_length_b                    18.847203
_cell_length_c                    18.460917
_cell_angle_alpha                 89.353794
_cell_angle_beta                  97.693977
_cell_angle_gamma                 90.260087
_cell_volume                      4444.78391326

loop_
_atom_site_label
_atom_site_type_symbol
_atom_type_description
_atom_site_fract_x
_atom_site_fract_y
_atom_site_fract_z
_atom_type_partial_charge
C1    C     C_R   0.498803 0.365064 0.500340 0.905654
C2    C     C_R   0.472995 0.290526 0.498767 -0.163288
C3    C     C_R   0.358835 0.964878 0.548158 0.510592
C4    C     C_R   0.381681 0.035834 0.416413 0.508418
C5    C     C_R   0.363983 0.038606 0.545871 -0.247457
C6    C     C_R   0.385591 0.962224 0.420146 -0.257779
C7    C     C_R   0.380029 0.074218 0.481221 -0.031782
C8    C     C_R   0.378850 0.926431 0.486372 -0.052982
C9    C     C_R   0.565911 0.544749 0.731313 0.668764
C10   C     C_R   0.426343 0.461361 0.267698 0.620518
C11   C     C_R   0.565562 0.545416 0.807909 -0.380995
C12   C     C_R   0.498145 0.635095 0.499378 0.921576
C13   C     C_R   0.424849 0.461644 0.191130 -0.389865
C14   C     C_R   0.500475 0.498791 0.841195 0.064012
C15   C     C_R   0.500622 0.499961 0.158468 0.070751
C16   C     C_R   0.297611 0.500762 0.485277 0.921712
C17   C     C_R   0.702137 0.499283 0.514682 0.923237
C18   C     C_R   0.435140 0.452807 0.796175 -0.283054
C19   C     C_R   0.575995 0.538368 0.204741 -0.262149
C20   C     C_R   0.436128 0.454243 0.720321 -0.089781
C21   C     C_R   0.574203 0.537722 0.280554 -0.074329
C22   C     C_R   0.406040 0.494712 0.952656 -0.183881
C23   C     C_R   0.405719 0.850785 0.492031 -0.113830
C24   C     C_R   0.594736 0.504033 0.046239 -0.180013
C25   C     C_R   0.406000 0.495782 0.028694 -0.182133
C26   C     C_R   0.594612 0.503795 0.970182 -0.183482
C27   C     C_R   0.500417 0.500118 0.076907 0.149443
C28   C     C_R   0.500323 0.498882 0.922316 0.153012
C29   C     C_R   0.814577 0.499303 0.524440 -0.249301
C30   C     C_R   0.185081 0.506525 0.476180 -0.244353
C31   C     C_R   0.019383 0.542141 0.408449 0.392819
C32   C     C_R   0.982093 0.479445 0.596875 0.396106
C33   C     C_R   0.127201 0.530790 0.410358 0.388085
C34   C     C_R   0.408547 0.149633 0.484412 -0.093130
C35   C     C_R   0.873311 0.477084 0.590453 0.330934
C36   C     C_R   0.136797 0.491957 0.537843 -0.307841
C37   C     C_R   0.863198 0.520880 0.464985 -0.295502
C38   C     C_R   0.030289 0.498288 0.535284 -0.059756
C39   C     C_R   0.970775 0.521636 0.469629 -0.061673
C40   C     C_R   0.396843 0.733853 0.439519 -0.294116
C41   C     C_R   0.381118 0.268631 0.525098 -0.313432
C42   C     C_R   0.360201 0.803058 0.438631 0.408605
C43   C     C_R   0.345819 0.198780 0.515356 0.413769
C44   C     C_3   0.730572 0.594112 0.725933 0.108186
C45   C     C_R   0.484248 0.826869 0.547493 0.679828
C46   C     C_3   0.760462 0.666362 0.758662 -0.885533
C47   C     C_3   0.352457 0.354863 0.293005 0.119910
C48   C     C_3   0.274145 0.320824 0.337661 -0.790187
C49   C     C_3   0.807856 0.381267 0.645130 0.158179
C50   C     C_3   0.741864 0.358729 0.703855 -0.798640
C51   C     C_3   0.183034 0.606213 0.324133 0.141620
C52   C     C_3   0.273840 0.612981 0.279750 -0.780067
C53   C     C_3   0.935687 0.639036 0.353606 0.039068
C54   C     C_3   0.878679 0.667919 0.281967 -0.811508
C55   C     C_3   0.058535 0.516533 0.707808 0.117607
C56   C     C_R   0.502698 0.171938 0.460099 0.686272
C57   C     C_3   0.129013 0.494373 0.776992 -0.830096
C58   C     C_3   0.184954 0.814963 0.405309 0.087908
C59   C     C_3   0.101470 0.820140 0.338993 -0.827052
C60   C     C_3   0.167834 0.209828 0.496379 0.093564
C61   C     C_3   0.067001 0.174685 0.512680 -0.789566
C62   C     C_3   0.247226 0.902219 0.610078 0.076089
C63   C     C_3   0.230899 0.873760 0.685121 -0.760352
C64   C     C_3   0.294669 0.091991 0.317551 0.076394
C65   C     C_3   0.307065 0.130322 0.246272 -0.789023
C66   C     C_R   0.515104 0.756154 0.550344 -0.306855
C67   C     C_R   0.532849 0.242685 0.465288 -0.342338
C68   C     C_R   0.472518 0.709956 0.495689 -0.190903
F1    F     F_    0.534161 0.872336 0.597138 -0.621220
F2    F     F_    0.567039 0.124951 0.433285 -0.625922
H1    H     H_    0.816333 0.535646 0.413967 0.221572
H2    H     H_    0.669250 0.506085 0.080990 0.138852
H3    H     H_    0.331431 0.494315 0.049490 0.136676
H4    H     H_    0.668764 0.506233 0.948758 0.134890
H5    H     H_    0.363216 0.698090 0.397462 0.182321
H6    H     H_    0.334975 0.306519 0.550742 0.162467
H7    H     H_    0.573894 0.737857 0.593963 0.200416
H8    H     H_    0.603847 0.259897 0.444751 0.173416
H9    H     H_    0.361413 0.067695 0.595882 0.213592
H10   H     H_    0.400228 0.933492 0.372067 0.217321
H11   H     H_    0.777134 0.586108 0.680331 0.197718
H12   H     H_    0.182463 0.473064 0.587879 0.229418
H13   H     H_    0.754250 0.551244 0.766953 0.132417
H14   H     H_    0.845382 0.667338 0.779404 0.214299
H15   H     H_    0.743548 0.708519 0.716239 0.275092
H16   H     H_    0.715698 0.677433 0.804548 0.258043
H17   H     H_    0.432061 0.334870 0.314364 0.147176
H18   H     H_    0.332002 0.338272 0.235218 0.118833
H19   H     H_    0.193102 0.334115 0.313072 0.255976
H20   H     H_    0.283596 0.262353 0.338901 0.189525
H21   H     H_    0.286906 0.340685 0.394533 0.255575
H22   H     H_    0.883578 0.352233 0.654484 0.166760
H23   H     H_    0.613732 0.583109 0.841065 0.154923
H24   H     H_    0.764694 0.366076 0.591061 0.113921
H25   H     H_    0.665299 0.386479 0.695196 0.262734
H26   H     H_    0.727813 0.300585 0.701331 0.210245
H27   H     H_    0.783060 0.372143 0.758757 0.247624
H28   H     H_    0.196807 0.643558 0.370869 0.079898
H29   H     H_    0.111544 0.621895 0.287399 0.182718
H30   H     H_    0.261529 0.577238 0.231920 0.258490
H31   H     H_    0.279664 0.668526 0.259941 0.204614
H32   H     H_    0.348107 0.598803 0.314170 0.267816
H33   H     H_    0.007048 0.671814 0.369153 0.112924
H34   H     H_    0.364526 0.432147 0.157736 0.147546
H35   H     H_    0.883609 0.645710 0.396368 0.147848
H36   H     H_    0.805422 0.637338 0.266228 0.250644
H37   H     H_    0.858618 0.724551 0.288297 0.212701
H38   H     H_    0.929239 0.663749 0.238015 0.251143
H39   H     H_    0.983547 0.536480 0.723558 0.154931
H40   H     H_    0.098394 0.560282 0.681010 0.128810
H41   H     H_    0.204710 0.474650 0.762869 0.254434
H42   H     H_    0.144259 0.540507 0.813831 0.204265
H43   H     H_    0.090800 0.451646 0.805920 0.260755
H44   H     H_    0.170649 0.857488 0.443998 0.131406
H45   H     H_    0.384246 0.415598 0.819493 0.156830
H46   H     H_    0.176700 0.762080 0.431799 0.112136
H47   H     H_    0.112815 0.777473 0.299793 0.248703
H48   H     H_    0.022656 0.814100 0.356347 0.203589
H49   H     H_    0.106262 0.872565 0.311528 0.262827
H50   H     H_    0.172457 0.204043 0.436862 0.124330
H51   H     H_    0.164071 0.267137 0.509550 0.149995
H52   H     H_    0.058706 0.180551 0.571427 0.260858
H53   H     H_    0.998939 0.200059 0.479157 0.210483
H54   H     H_    0.067883 0.117361 0.499426 0.250057
H55   H     H_    0.237791 0.857202 0.571340 0.112797
H56   H     H_    0.634897 0.569939 0.182619 0.148074
H57   H     H_    0.185904 0.942872 0.593035 0.133271
H58   H     H_    0.238674 0.917479 0.725349 0.259752
H59   H     H_    0.151458 0.850126 0.682692 0.194784
H60   H     H_    0.289991 0.832298 0.703223 0.262387
H61   H     H_    0.258359 0.129391 0.352990 0.117849
H62   H     H_    0.241536 0.045658 0.304904 0.143834
H63   H     H_    0.339324 0.093528 0.208423 0.264132
H64   H     H_    0.229771 0.149890 0.220073 0.201914
H65   H     H_    0.361083 0.176214 0.257030 0.253056
H66   H     H_    0.385601 0.418732 0.685914 0.158054
H67   H     H_    0.631888 0.567961 0.315512 0.153080
H68   H     H_    0.331890 0.492005 0.917438 0.137970
N1    N     N_R   0.500010 0.499980 0.689440 -0.131498
N2    N     N_R   0.499990 0.500020 0.310560 -0.136691
O1    O     O_R   0.500000 0.398180 0.560840 -0.628047
O2    O     O_3   0.346696 0.429245 0.299333 -0.555746
O3    O     O_3   0.825295 0.455167 0.649558 -0.617318
O4    O     O_3   0.174036 0.534902 0.346924 -0.539413
O5    O     O_3   0.961126 0.566828 0.344682 -0.596961
O6    O     O_3   0.040662 0.457425 0.661452 -0.610031
O7    O     O_3   0.284417 0.824335 0.382537 -0.603761
O8    O     O_3   0.253483 0.176992 0.539517 -0.606865
O9    O     O_3   0.348604 0.931706 0.614031 -0.549123
O10   O     O_3   0.393921 0.069525 0.351234 -0.556347
O11   O     O_R   0.500000 0.601820 0.439160 -0.640629
O12   O     O_R   0.499960 0.398180 0.439210 -0.606769
O13   O     O_R   0.500040 0.601820 0.560790 -0.566935
O14   O     O_R   0.346380 0.499990 0.550760 -0.649025
O15   O     O_R   0.653620 0.500010 0.449240 -0.642756
O16   O     O_R   0.346330 0.499980 0.429130 -0.525864
O17   O     O_R   0.653670 0.500020 0.570870 -0.561145
O18   O     O_3   0.623356 0.593679 0.696365 -0.596788
Zn1   Zn    Zn3+2 0.500030 0.500000 0.581210 0.979328
Zn2   Zn    Zn3+2 0.499970 0.500000 0.418790 0.971410

loop_
_geom_bond_atom_site_label_1
_geom_bond_atom_site_label_2
_ccdc_geom_bond_type
C66   C68   A    
O12   Zn2   S    
C34   C56   A    
C23   C45   A    
C62   O9    S    
C44   O18   S    
C14   C18   A    
C24   C27   A    
C21   H67   S    
C12   O13   A    
C44   H13   S    
C37   H1    S    
C53   C54   S    
C15   C19   A    
C12   C68   S    
C47   O2    S    
C52   H32   S    
C23   C42   A    
C54   H37   S    
C61   H54   S    
C20   N1    A    
C19   C21   A    
C24   C26   A    
C38   C39   A    
C11   C14   A    
C50   H25   S    
C57   H42   S    
C32   O6    S    
C2    C41   A    
C16   C30   S    
C8    C23   S    
C17   C29   S    
C22   C25   A    
C1    O12   A    
C1    C2    S    
C10   O2    S    
C63   H60   S    
C43   O8    S    
C6    H10   S    
O1    Zn1   S    
C64   H62   S    
C36   H12   S    
C48   H21   S    
C16   O16   A    
C31   C33   A    
C32   C38   A    
C49   H24   S    
C5    H9    S    
C17   O17   A    
C18   C20   A    
C63   H58   S    
C46   H15   S    
C11   H23   S    
C51   H28   S    
C40   C42   A    
N1    Zn1   S    
O17   Zn1   S    
C22   C28   A    
C55   H39   S    
C58   H46   S    
C41   C43   A    
C12   O11   A    
C67   H8    S    
C10   N2    A    
C4    C7    A    
C42   O7    S    
C44   C46   S    
C33   O4    S    
C51   H29   S    
C52   H31   S    
C3    O9    S    
C54   H36   S    
C45   F1    S    
C51   C52   S    
C32   C35   A    
O16   Zn2   S    
C4    C6    A    
C44   H11   S    
C5    C7    A    
C58   O7    S    
C55   O6    S    
C57   H43   S    
C58   C59   S    
C51   O4    S    
C52   H30   S    
C64   O10   S    
C61   H52   S    
C47   H17   S    
O13   Zn1   S    
C62   C63   S    
C15   C27   S    
C47   C48   S    
C64   H61   S    
C53   O5    S    
C20   H66   S    
C13   H34   S    
C9    C11   A    
C65   H65   S    
O11   Zn2   S    
C46   H14   S    
C2    C67   A    
C59   H48   S    
C56   F2    S    
C48   H19   S    
C55   C57   S    
C55   H40   S    
C16   O14   A    
C7    C34   S    
C49   H22   S    
C17   O15   A    
C24   H2    S    
C66   H7    S    
C22   H68   S    
C50   H27   S    
C59   H49   S    
C30   C33   A    
O15   Zn2   S    
C34   C43   A    
C65   H64   S    
C3    C5    A    
C10   C13   A    
C18   H45   S    
C62   H55   S    
C6    C8    A    
C30   C36   A    
C25   C27   A    
C56   C67   A    
C4    O10   S    
C29   C35   A    
C19   H56   S    
C26   C28   A    
C40   H5    S    
C54   H38   S    
C61   H53   S    
C47   H18   S    
C13   C15   A    
O14   Zn1   S    
C37   C39   A    
C64   C65   S    
C41   H6    S    
C9    N1    A    
C50   H26   S    
C57   H41   S    
C9    O18   S    
C53   H33   S    
C49   O3    S    
C36   C38   A    
C26   H4    S    
C31   C39   A    
C60   H50   S    
C25   H3    S    
C63   H59   S    
C3    C8    A    
C60   H51   S    
C1    O1    A    
C31   O5    S    
C53   H35   S    
C62   H57   S    
C59   H47   S    
C49   C50   S    
C40   C68   A    
C29   C37   A    
C45   C66   A    
C58   H44   S    
C60   C61   S    
C48   H20   S    
C60   O8    S    
C21   N2    A    
C14   C28   S    
N2    Zn2   S    
C65   H63   S    
C35   O3    S    
C46   H16   S    
