data_mof_unit_67244.cif
_audit_creation_date              2012-12-11T18:15:42-0500
_audit_creation_method            fapswitch 2.2
_symmetry_space_group_name_H-M    P1
_symmetry_Int_Tables_number       1
_space_group_crystal_system       triclinic
_cell_length_a                    20.113217
_cell_length_b                    20.080525
_cell_length_c                    8.325769
_cell_angle_alpha                 90.0003
_cell_angle_beta                  91.91394
_cell_angle_gamma                 89.998279
_cell_volume                      3360.76857257

loop_
_atom_site_label
_atom_site_type_symbol
_atom_type_description
_atom_site_fract_x
_atom_site_fract_y
_atom_site_fract_z
_atom_type_partial_charge
Ba1   Ba    Ba6+2 0.999980 0.452130 0.155200 1.638213
Ba2   Ba    Ba6+2 0.999980 0.547870 0.655200 1.638208
Ba3   Ba    Ba6+2 0.499980 0.952130 0.155200 1.638101
Ba4   Ba    Ba6+2 0.499980 0.047870 0.655200 1.638033
C1    C     C_3   0.943612 0.145960 0.450086 -0.084409
C2    C     C_R   0.113959 0.661484 0.175147 -0.292044
C3    C     C_3   0.434324 0.451165 0.324220 -0.373754
C4    C     C_R   0.613951 0.838511 0.675173 -0.292265
C5    C     C_R   0.613939 0.161499 0.175195 -0.292394
C6    C     C_R   0.126733 0.285548 0.571942 0.005412
C7    C     C_R   0.126741 0.714445 0.071932 0.005435
C8    C     C_R   0.626739 0.785552 0.571958 0.005451
C9    C     C_R   0.626724 0.214457 0.071979 0.005464
C10   C     C_R   0.173698 0.237274 0.617470 -0.149224
C11   C     C_R   0.173708 0.762716 0.117451 -0.149196
C12   C     C_R   0.673707 0.737280 0.617475 -0.149209
C13   C     C_3   0.943620 0.854045 0.950129 -0.084390
C14   C     C_R   0.673690 0.262729 0.117496 -0.149200
C15   C     C_R   0.210518 0.243244 0.763565 0.010146
C16   C     C_R   0.210532 0.756745 0.263541 0.010175
C17   C     C_R   0.710528 0.743250 0.763567 0.010077
C18   C     C_R   0.710517 0.256756 0.263582 0.010084
C19   C     C_R   0.200992 0.299556 0.863626 -0.005402
C20   C     C_R   0.201006 0.700434 0.363606 -0.005397
C21   C     C_R   0.701005 0.799565 0.863622 -0.005469
C22   C     C_R   0.700997 0.200441 0.363636 -0.005451
C23   C     C_R   0.798921 0.700559 0.947785 -0.021189
C24   C     C_3   0.443716 0.645851 0.449689 -0.084802
C25   C     C_R   0.798916 0.299443 0.447789 -0.021168
C26   C     C_R   0.298914 0.200555 0.947785 -0.021206
C27   C     C_R   0.298930 0.799433 0.447751 -0.021173
C28   C     C_R   0.789504 0.756957 0.047697 0.018470
C29   C     C_R   0.789499 0.243047 0.547705 0.018508
C30   C     C_R   0.289492 0.256949 0.047701 0.018455
C31   C     C_R   0.289520 0.743032 0.547655 0.018517
C32   C     C_R   0.849498 0.653133 0.991655 0.037388
C33   C     C_R   0.849495 0.346867 0.491654 0.037354
C34   C     C_R   0.349495 0.153132 0.991652 0.037384
C35   C     C_3   0.443628 0.354050 0.950024 -0.084523
C36   C     C_R   0.349504 0.846860 0.491627 0.037442
C37   C     C_R   0.888082 0.663365 0.132923 -0.275922
C38   C     C_R   0.888081 0.336632 0.632919 -0.275941
C39   C     C_R   0.388082 0.163369 0.132913 -0.276048
C40   C     C_R   0.388094 0.836623 0.632884 -0.275964
C41   C     C_3   0.017294 0.199485 0.885935 0.363135
C42   C     C_3   0.017291 0.800518 0.385829 0.362949
C43   C     C_3   0.517375 0.699544 0.886018 0.363057
C44   C     C_3   0.517507 0.300377 0.386584 0.363288
C45   C     C_R   0.875792 0.716729 0.235903 -0.010232
C46   C     C_R   0.151058 0.347560 0.818691 0.054375
C47   C     C_R   0.875792 0.283269 0.735902 -0.010217
C48   C     C_R   0.375794 0.216736 0.235887 -0.010015
C49   C     C_R   0.375813 0.783254 0.735850 -0.010156
C50   C     C_R   0.827231 0.763706 0.192452 -0.150726
C51   C     C_R   0.827231 0.236295 0.692454 -0.150709
C52   C     C_R   0.327226 0.263705 0.192445 -0.150586
C53   C     C_R   0.327264 0.736271 0.692383 -0.150584
C54   C     C_R   0.757769 0.694086 0.807860 -0.034171
C55   C     C_R   0.757761 0.305917 0.307867 -0.034148
C56   C     C_R   0.257761 0.194081 0.807859 -0.034174
C57   C     C_R   0.151066 0.652436 0.318684 0.054413
C58   C     C_R   0.257774 0.805908 0.307832 -0.034156
C59   C     C_3   0.067682 0.149344 0.956815 -0.161644
C60   C     C_3   0.067741 0.850562 0.456867 -0.161520
C61   C     C_3   0.567725 0.649358 0.956845 -0.161734
C62   C     C_3   0.567708 0.350711 0.457474 -0.161873
C63   C     C_3   0.810781 0.458648 0.817658 0.313018
C64   C     C_3   0.810782 0.541355 0.317653 0.312994
C65   C     C_3   0.310791 0.958644 0.817656 0.313013
C66   C     C_3   0.310780 0.041354 0.317655 0.313002
C67   C     C_3   0.748015 0.416365 0.803400 -0.400933
C68   C     C_R   0.651064 0.847564 0.818696 0.054290
C69   C     C_3   0.748010 0.583626 0.303256 -0.400963
C70   C     C_3   0.248028 0.916359 0.803358 -0.400919
C71   C     C_3   0.248007 0.083625 0.303264 -0.400960
C72   C     C_3   0.190380 0.542416 0.985434 0.309949
C73   C     C_3   0.190380 0.457592 0.485531 0.309962
C74   C     C_3   0.690368 0.042411 0.985533 0.309945
C75   C     C_3   0.690384 0.957608 0.485633 0.309922
C76   C     C_3   0.247136 0.587800 0.940712 -0.357386
C77   C     C_3   0.247147 0.412195 0.440940 -0.357422
C78   C     C_3   0.747120 0.087816 0.940899 -0.357484
C79   C     C_R   0.651058 0.152441 0.318708 0.054263
C80   C     C_3   0.747149 0.912190 0.441103 -0.357374
C81   C     C_3   0.975401 0.213908 0.424588 0.446968
C82   C     C_3   0.975402 0.786096 0.924590 0.446986
C83   C     C_3   0.475441 0.713838 0.424250 0.446080
C84   C     C_3   0.475381 0.286094 0.924399 0.445798
C85   C     C_R   0.241759 0.305693 0.003992 0.001264
C86   C     C_R   0.241782 0.694293 0.503958 0.001224
C87   C     C_R   0.741779 0.805706 0.003977 0.001246
C88   C     C_R   0.741771 0.194301 0.503992 0.001270
C89   C     C_3   0.038548 0.080087 0.989976 -0.158646
C90   C     C_R   0.113950 0.338511 0.675154 -0.292090
C91   C     C_3   0.010218 0.044990 0.837886 -0.212273
C92   C     C_3   0.934322 0.048816 0.824881 -0.373216
C93   C     C_3   0.038695 0.919852 0.490171 -0.158619
C94   C     C_3   0.010506 0.955077 0.338114 -0.212523
C95   C     C_3   0.934622 0.951293 0.324764 -0.373290
C96   C     C_3   0.538552 0.580116 0.989939 -0.158503
C97   C     C_3   0.510304 0.545019 0.837797 -0.212556
C98   C     C_3   0.434422 0.548808 0.824594 -0.373437
C99   C     C_3   0.538419 0.419990 0.489722 -0.158477
C100  C     C_3   0.510207 0.454771 0.337080 -0.212212
H1    H     H_    0.941327 0.245567 0.349685 0.104396
H2    H     H_    0.760466 0.635548 0.271037 0.065781
H3    H     H_    0.031760 0.066056 0.727672 0.109715
H4    H     H_    0.024659 0.991628 0.842071 0.119504
H5    H     H_    0.079577 0.048935 0.042166 0.073191
H6    H     H_    0.000762 0.083640 0.083758 0.180367
H7    H     H_    0.916869 0.899187 0.331239 0.156535
H8    H     H_    0.912619 0.980025 0.423729 0.167796
H9    H     H_    0.916925 0.972725 0.208209 0.149468
H10   H     H_    0.024969 0.008435 0.342580 0.119442
H11   H     H_    0.032127 0.934072 0.227915 0.109789
H12   H     H_    0.000849 0.916316 0.583807 0.180399
H13   H     H_    0.260490 0.864443 0.771085 0.065754
H14   H     H_    0.079747 0.950908 0.542598 0.073221
H15   H     H_    0.412459 0.520048 0.923549 0.167850
H16   H     H_    0.416686 0.600913 0.831203 0.156637
H17   H     H_    0.416676 0.527405 0.708048 0.149527
H18   H     H_    0.531887 0.566091 0.727692 0.109857
H19   H     H_    0.524748 0.491673 0.842016 0.119524
H20   H     H_    0.579538 0.548960 0.042279 0.073178
H21   H     H_    0.500711 0.583688 0.083585 0.180376
H22   H     H_    0.416496 0.399103 0.331360 0.156826
H23   H     H_    0.412502 0.480132 0.423013 0.167873
H24   H     H_    0.260464 0.135546 0.271031 0.065795
H25   H     H_    0.416558 0.472430 0.207530 0.149543
H26   H     H_    0.524839 0.508089 0.340273 0.119333
H27   H     H_    0.531632 0.433276 0.227216 0.109763
H28   H     H_    0.500527 0.416534 0.583279 0.180249
H29   H     H_    0.579328 0.451296 0.541903 0.073167
H30   H     H_    0.722723 0.415814 0.919968 0.116872
H31   H     H_    0.722664 0.584160 0.419750 0.116892
H32   H     H_    0.222721 0.915808 0.919906 0.116869
H33   H     H_    0.222666 0.084162 0.419765 0.116885
H34   H     H_    0.184926 0.543589 0.117034 0.014860
H35   H     H_    0.184912 0.456465 0.617125 0.014872
H36   H     H_    0.684909 0.043544 0.117127 0.014982
H37   H     H_    0.941329 0.754457 0.849649 0.104415
H38   H     H_    0.684923 0.956526 0.617231 0.014981
H39   H     H_    0.144511 0.561360 0.923094 0.055845
H40   H     H_    0.144518 0.438630 0.423198 0.055796
H41   H     H_    0.644498 0.061364 0.923219 0.055841
H42   H     H_    0.644516 0.938631 0.423350 0.055750
H43   H     H_    0.294736 0.567588 0.990290 0.167712
H44   H     H_    0.294751 0.432452 0.490405 0.167759
H45   H     H_    0.794724 0.067586 0.990413 0.167672
H46   H     H_    0.794760 0.932477 0.490425 0.167738
H47   H     H_    0.239478 0.638806 0.987595 0.083840
H48   H     H_    0.441386 0.745453 0.349199 0.104723
H49   H     H_    0.239513 0.361219 0.488036 0.083894
H50   H     H_    0.739467 0.138801 0.987910 0.083907
H51   H     H_    0.739536 0.861245 0.488371 0.083956
H52   H     H_    0.250321 0.589576 0.808291 0.113299
H53   H     H_    0.250312 0.410327 0.308517 0.113227
H54   H     H_    0.750293 0.089653 0.808481 0.113244
H55   H     H_    0.750280 0.910242 0.308687 0.113172
H56   H     H_    0.981995 0.238098 0.543917 -0.173721
H57   H     H_    0.981985 0.761891 0.043902 -0.173760
H58   H     H_    0.481931 0.738054 0.543567 -0.172627
H59   H     H_    0.441330 0.254496 0.849287 0.104676
H60   H     H_    0.481893 0.261838 0.043671 -0.172162
H61   H     H_    0.915029 0.146625 0.561446 0.051035
H62   H     H_    0.914999 0.853353 0.061410 0.051021
H63   H     H_    0.415253 0.646436 0.561205 0.051207
H64   H     H_    0.415108 0.353372 0.061447 0.051164
H65   H     H_    0.109215 0.144029 0.872937 0.033174
H66   H     H_    0.109296 0.855849 0.373036 0.033148
H67   H     H_    0.609267 0.644038 0.872989 0.033219
H68   H     H_    0.609383 0.355941 0.373951 0.033206
H69   H     H_    0.076675 0.374963 0.639582 0.064466
H70   H     H_    0.713536 0.437121 0.709136 0.120621
H71   H     H_    0.076682 0.625035 0.139580 0.064444
H72   H     H_    0.576672 0.874960 0.639606 0.064500
H73   H     H_    0.576661 0.125052 0.139629 0.064533
H74   H     H_    0.182033 0.195631 0.537900 0.065295
H75   H     H_    0.182040 0.804358 0.037878 0.065291
H76   H     H_    0.682044 0.695639 0.537900 0.065343
H77   H     H_    0.682024 0.304370 0.037921 0.065336
H78   H     H_    0.818660 0.805136 0.272318 0.072811
H79   H     H_    0.818659 0.194867 0.772323 0.072761
H80   H     H_    0.318652 0.305134 0.272311 0.072783
H81   H     H_    0.713579 0.562874 0.208892 0.120641
H82   H     H_    0.318700 0.694836 0.772239 0.072794
H83   H     H_    0.925785 0.627235 0.167711 0.064527
H84   H     H_    0.925783 0.372760 0.667707 0.064519
H85   H     H_    0.425789 0.127242 0.167699 0.064552
H86   H     H_    0.425790 0.872756 0.667684 0.064506
H87   H     H_    0.237467 0.348677 0.080064 0.093692
H88   H     H_    0.237489 0.651309 0.580029 0.093650
H89   H     H_    0.737489 0.848694 0.080040 0.093700
H90   H     H_    0.737481 0.151316 0.580061 0.093657
H91   H     H_    0.762104 0.651197 0.730691 0.096976
H92   H     H_    0.213561 0.937111 0.709067 0.120612
H93   H     H_    0.762096 0.348805 0.230695 0.096972
H94   H     H_    0.262100 0.151193 0.730685 0.096987
H95   H     H_    0.262107 0.848797 0.230663 0.096975
H96   H     H_    0.982042 0.106526 0.462267 0.092411
H97   H     H_    0.982050 0.893467 0.962459 0.092406
H98   H     H_    0.482157 0.606417 0.461455 0.092799
H99   H     H_    0.482058 0.393472 0.962113 0.092598
H100  H     H_    0.044647 0.246935 0.869946 -0.007044
H101  H     H_    0.044611 0.753040 0.369624 -0.007236
H102  H     H_    0.544747 0.747009 0.870409 -0.006738
H103  H     H_    0.213573 0.062869 0.208910 0.120627
H104  H     H_    0.544963 0.252907 0.371728 -0.006027
H105  H     H_    0.999303 0.181468 0.767113 -0.040955
H106  H     H_    0.999291 0.818631 0.267055 -0.040836
H107  H     H_    0.499474 0.681631 0.767029 -0.041211
H108  H     H_    0.499790 0.318082 0.267238 -0.041740
H109  H     H_    0.089363 0.169657 0.070980 0.140674
H110  H     H_    0.089381 0.830173 0.571006 0.140821
H111  H     H_    0.589405 0.669639 0.071041 0.140627
H112  H     H_    0.589244 0.330615 0.572028 0.140830
H113  H     H_    0.833546 0.461592 0.698832 0.009801
H114  H     H_    0.760470 0.364450 0.771110 0.065777
H115  H     H_    0.833590 0.538410 0.198878 0.009833
H116  H     H_    0.333570 0.961589 0.698847 0.009800
H117  H     H_    0.333586 0.038409 0.198878 0.009833
H118  H     H_    0.845865 0.434726 0.905809 0.067544
H119  H     H_    0.845832 0.565285 0.405863 0.067538
H120  H     H_    0.345867 0.934723 0.905828 0.067578
H121  H     H_    0.345831 0.065284 0.405864 0.067594
H122  H     H_    0.912389 0.020040 0.923874 0.167780
H123  H     H_    0.916590 0.100926 0.831597 0.156570
H124  H     H_    0.916520 0.027455 0.708322 0.149538
I1    I     I_    0.874012 0.122503 0.260491 -0.558969
I2    I     I_    0.874070 0.877555 0.760494 -0.559002
I3    I     I_    0.373944 0.622468 0.260453 -0.559156
I4    I     I_    0.373960 0.377571 0.760664 -0.559096
O1    O     O_2   0.130070 0.404060 0.104920 -0.474339
O2    O     O_3   0.963130 0.792996 0.487132 -0.558048
O3    O     O_3   0.463130 0.706987 0.987078 -0.558201
O4    O     O_3   0.463081 0.293049 0.487137 -0.558266
O5    O     O_3   0.924190 0.533610 0.949240 -0.495704
O6    O     O_3   0.924190 0.466390 0.449240 -0.495707
O7    O     O_3   0.424190 0.033610 0.949240 -0.495687
O8    O     O_3   0.424190 0.966390 0.449240 -0.495682
O9    O     O_3   0.075780 0.466370 0.861070 -0.498560
O10   O     O_3   0.075780 0.533630 0.361070 -0.498524
O11   O     O_3   0.575780 0.966370 0.861070 -0.498533
O12   O     O_2   0.130070 0.595940 0.604920 -0.474388
O13   O     O_3   0.575780 0.033630 0.361070 -0.498476
O14   O     O_3   0.022320 0.344950 0.359800 -0.480077
O15   O     O_3   0.022320 0.655050 0.859800 -0.480074
O16   O     O_3   0.522320 0.844950 0.359800 -0.480114
O17   O     O_3   0.522320 0.155050 0.859800 -0.480111
O18   O     O_2   0.126443 0.286266 0.231536 -0.494146
O19   O     O_2   0.126443 0.713728 0.731537 -0.494183
O20   O     O_2   0.626498 0.786325 0.231606 -0.494092
O21   O     O_2   0.626460 0.213724 0.731591 -0.494202
O22   O     O_3   0.206912 0.477665 0.939613 -0.619942
O23   O     O_2   0.630070 0.904060 0.104920 -0.474257
O24   O     O_3   0.206908 0.522325 0.439591 -0.619957
O25   O     O_3   0.706905 0.977677 0.939608 -0.619998
O26   O     O_3   0.706907 0.022323 0.439568 -0.619980
O27   O     O_3   0.036675 0.206675 0.349445 -0.603502
O28   O     O_3   0.036680 0.793327 0.849468 -0.603529
O29   O     O_3   0.536768 0.706661 0.349333 -0.603685
O30   O     O_3   0.536698 0.293330 0.849464 -0.603751
O31   O     O_2   0.869860 0.403670 0.205810 -0.468419
O32   O     O_2   0.869860 0.596330 0.705810 -0.468452
O33   O     O_2   0.369860 0.903670 0.205810 -0.468439
O34   O     O_2   0.630070 0.095940 0.604920 -0.474379
O35   O     O_2   0.369860 0.096330 0.705810 -0.468423
O36   O     O_3   0.977590 0.344880 0.951200 -0.477500
O37   O     O_3   0.977590 0.655120 0.451200 -0.477468
O38   O     O_3   0.477590 0.844880 0.951200 -0.477580
O39   O     O_3   0.477590 0.155120 0.451200 -0.477760
O40   O     O_2   0.870935 0.290352 0.070330 -0.460885
O41   O     O_2   0.870942 0.709661 0.570338 -0.460917
O42   O     O_2   0.370936 0.790328 0.070277 -0.460938
O43   O     O_2   0.370928 0.209658 0.570265 -0.460929
O44   O     O_3   0.793116 0.477632 0.368866 -0.641051
O45   O     O_3   0.793116 0.522371 0.868881 -0.641058
O46   O     O_3   0.293114 0.977630 0.368867 -0.641058
O47   O     O_3   0.293120 0.022367 0.868871 -0.641055
O48   O     O_3   0.963123 0.207007 0.987174 -0.558067
P1    P     P_3+3 0.136530 0.426510 0.931350 0.983044
P2    P     P_3+3 0.920217 0.719809 0.433964 0.980400
P3    P     P_3+3 0.420226 0.780185 0.933929 0.980169
P4    P     P_3+3 0.420225 0.219823 0.433943 0.980009
P5    P     P_3+3 0.080763 0.718811 0.876870 0.958876
P6    P     P_3+3 0.080762 0.281185 0.376868 0.958914
P7    P     P_3+3 0.580765 0.218810 0.876895 0.958560
P8    P     P_3+3 0.580787 0.781203 0.376869 0.958751
P9    P     P_3+3 0.136530 0.573490 0.431350 0.983060
P10   P     P_3+3 0.636530 0.926510 0.931350 0.983017
P11   P     P_3+3 0.636530 0.073490 0.431350 0.983004
P12   P     P_3+3 0.863410 0.426100 0.379280 0.967887
P13   P     P_3+3 0.863410 0.573900 0.879280 0.967876
P14   P     P_3+3 0.363410 0.926100 0.379280 0.967878
P15   P     P_3+3 0.363410 0.073900 0.879280 0.967883
P16   P     P_3+3 0.920215 0.280195 0.933971 0.980358

loop_
_geom_bond_atom_site_label_1
_geom_bond_atom_site_label_2
_ccdc_geom_bond_type
O26   P11   S    
C29   C51   A    
C76   H47   S    
O1    P1    D    
C30   C52   A    
C97   C98   S    
Ba3   O33   S    
C43   H107  S    
C42   H101  S    
C65   H116  S    
O31   P12   D    
C6    P6    S    
C36   P14   S    
C91   C92   S    
O4    P4    S    
C66   H121  S    
Ba4   O7    S    
O15   P5    S    
C17   C54   A    
C67   H30   S    
C93   C94   S    
O39   P4    S    
C84   O30   S    
C86   H88   S    
O13   P11   S    
Ba4   O35   S    
C26   C34   A    
C22   C79   A    
Ba3   O38   S    
C43   C61   S    
C9    C14   A    
C61   H67   S    
O41   P2    D    
C92   H124  S    
C2    C57   A    
C60   H110  S    
C55   H93   S    
Ba4   O17   S    
C61   H111  S    
O23   P10   D    
C88   H90   S    
Ba1   O14   S    
C33   P12   S    
C75   C80   S    
C78   H54   S    
C80   H51   S    
C57   P9    S    
C39   C48   A    
C94   H10   S    
C28   C87   A    
O7    P15   S    
C2    H71   S    
C6    C90   A    
C22   C88   A    
C45   C50   A    
O46   P14   S    
C25   C29   A    
C45   P2    S    
C33   C38   A    
C66   H117  S    
C77   H49   S    
C27   C36   A    
C37   H83   S    
Ba3   O7    S    
Ba1   Ba2   S    
Ba4   O34   S    
C28   C50   A    
C35   H64   S    
C70   H13   S    
C5    C9    A    
C96   C97   S    
C39   H85   S    
C27   C31   A    
C24   H63   S    
C40   H86   S    
Ba1   O31   S    
C7    C11   A    
C40   C49   A    
C9    P7    S    
C76   H43   S    
Ba2   O32   S    
C4    H72   S    
C25   C55   A    
C82   O28   S    
Ba1   O1    S    
O2    P2    S    
C100  H27   S    
C70   H32   S    
C63   C67   S    
C72   C76   S    
Ba4   P15   S    
C49   P3    S    
O34   P11   D    
C71   H24   S    
C81   H56   S    
C1    H61   S    
O38   P3    S    
C1    H96   S    
C98   H17   S    
C72   O22   S    
C99   H28   S    
C83   O29   S    
Ba4   O11   S    
C74   H36   S    
O28   P5    S    
C74   H41   S    
C56   H94   S    
Ba3   O8    S    
O29   P8    S    
C1    C81   S    
C41   O48   S    
Ba4   O39   S    
O30   P7    S    
C95   H7    S    
C89   C91   S    
C87   H89   S    
C100  H26   S    
C51   H79   S    
C68   P10   S    
C75   H38   S    
C81   O27   S    
Ba2   P13   S    
C32   C37   A    
C73   O24   S    
C71   H103  S    
C35   C84   S    
C60   H66   S    
C81   H1    S    
O20   P8    D    
C3    H25   S    
C37   C45   A    
O24   P9    S    
C80   H55   S    
O25   P10   S    
C76   H52   S    
C75   H42   S    
C43   O3    S    
C73   H40   S    
C85   H87   S    
C11   C16   A    
C70   H92   S    
C21   C87   A    
C77   H53   S    
C26   C30   A    
C46   P1    S    
C96   H21   S    
C3    H23   S    
C92   H123  S    
C8    C12   A    
C63   H113  S    
C64   H115  S    
C7    P5    S    
C71   H33   S    
C29   C88   A    
C18   C55   A    
O16   P8    S    
C79   P11   S    
C10   C15   A    
Ba2   O6    S    
C19   C46   A    
C52   H80   S    
C14   H77   S    
Ba1   O5    S    
C64   C69   S    
C84   H60   S    
C12   C17   A    
C41   C59   S    
O10   P9    S    
C41   H105  S    
C34   C39   A    
C13   C82   S    
Ba1   P12   S    
C26   C56   A    
C35   H99   S    
C96   H20   S    
O44   P12   S    
O36   P16   S    
O27   P6    S    
C15   C19   A    
Ba2   O15   S    
C72   H39   S    
C13   H62   S    
C69   H31   S    
C48   P4    S    
C74   C78   S    
Ba2   P9    S    
C64   O44   S    
C73   C77   S    
C54   H91   S    
C4    C8    A    
C77   H44   S    
O8    P14   S    
C44   H104  S    
C24   C83   S    
C50   H78   S    
C19   C85   A    
O18   P6    D    
C65   C70   S    
C82   H57   S    
C44   O4    S    
C59   H109  S    
C93   H12   S    
C13   H97   S    
O43   P4    D    
C67   H114  S    
C24   I3    S    
C27   C58   A    
C53   H82   S    
C93   H14   S    
C91   H3    S    
C91   H4    S    
C5    C79   A    
C20   C57   A    
C44   H108  S    
O5    P13   S    
C32   P13   S    
C47   P16   S    
C83   H48   S    
C18   C22   A    
C34   P15   S    
Ba1   O6    S    
C1    I1    S    
O37   P2    S    
O14   P6    S    
C64   H119  S    
C63   O45   S    
O32   P13   D    
C25   C33   A    
Ba3   Ba4   S    
C42   O2    S    
C2    C7    A    
C5    H73   S    
C10   H74   S    
C38   H84   S    
Ba2   O37   S    
C17   C21   A    
C60   C93   S    
O6    P12   S    
C43   H102  S    
C23   C28   A    
C14   C18   A    
C4    C68   A    
C21   C68   A    
C62   C99   S    
C46   C90   A    
O42   P3    D    
C73   H35   S    
Ba3   P14   S    
O9    P1    S    
C61   C96   S    
C23   C54   A    
C20   C86   A    
C95   H9    S    
C69   H81   S    
C13   I2    S    
O21   P7    D    
Ba2   O5    S    
C97   H19   S    
C72   H34   S    
C23   C32   A    
Ba4   O8    S    
C84   H59   S    
O19   P5    D    
C38   C47   A    
C97   H18   S    
C66   O46   S    
C67   H70   S    
C31   C53   A    
C58   H95   S    
C3    C100  S    
C98   H16   S    
C24   H98   S    
C75   O26   S    
C11   H75   S    
C99   H29   S    
Ba4   P11   S    
C35   I4    S    
O40   P16   D    
C42   H106  S    
C8    P8    S    
Ba1   P1    S    
C62   H68   S    
C69   H2    S    
Ba1   O36   S    
Ba2   O12   S    
O11   P10   S    
C41   H100  S    
O47   P15   S    
C95   H8    S    
C63   H118  S    
O33   P14   D    
O48   P16   S    
C74   O25   S    
C49   C53   A    
Ba3   O16   S    
C94   H11   S    
C47   C51   A    
C3    H22   S    
C16   C58   A    
C31   C86   A    
Ba2   O9    S    
Ba3   O23   S    
C30   C85   A    
C78   H45   S    
C59   H65   S    
Ba1   O10   S    
C62   H112  S    
C90   H69   S    
C6    C10   A    
C78   H50   S    
O22   P1    S    
C12   H76   S    
O12   P9    D    
C36   C40   A    
C83   H58   S    
O45   P13   S    
O3    P3    S    
C94   C95   S    
O17   P7    S    
C42   C60   S    
C99   C100  S    
C44   C62   S    
C66   C71   S    
O35   P15   D    
C15   C56   A    
Ba3   O13   S    
Ba3   P10   S    
C92   H122  S    
C59   C89   S    
C65   H120  S    
C16   C20   A    
C65   O47   S    
C98   H15   S    
C48   C52   A    
C82   H37   S    
C89   H5    S    
C89   H6    S    
C80   H46   S    
