data_mof_unit_43552.cif
_audit_creation_date              2012-12-11T14:54:18-0500
_audit_creation_method            fapswitch 2.2
_symmetry_space_group_name_H-M    P1
_symmetry_Int_Tables_number       1
_space_group_crystal_system       triclinic
_cell_length_a                    18.868784
_cell_length_b                    10.946184
_cell_length_c                    18.609256
_cell_angle_alpha                 90.103129
_cell_angle_beta                  90.260066
_cell_angle_gamma                 90.245056
_cell_volume                      3843.49661144

loop_
_atom_site_label
_atom_site_type_symbol
_atom_type_description
_atom_site_fract_x
_atom_site_fract_y
_atom_site_fract_z
_atom_type_partial_charge
C1    C     C_R   0.731273 0.380722 0.647271 0.534134
C2    C     C_R   0.268136 0.381767 0.351971 0.569963
C3    C     C_R   0.231273 0.880722 0.647271 0.534134
C4    C     C_R   0.768136 0.881767 0.351971 0.569963
C5    C     C_3   0.460283 0.362866 0.473917 0.111113
C6    C     C_3   0.488363 0.365412 0.550589 0.113722
C7    C     C_3   0.960282 0.862866 0.473917 0.111113
C8    C     C_3   0.988363 0.865412 0.550589 0.113722
C9    C     C_R   0.694170 0.891918 0.534741 -0.142053
C10   C     C_R   0.324034 0.931746 0.472463 -0.121889
C11   C     C_R   0.194170 0.391918 0.534741 -0.142053
C12   C     C_R   0.824034 0.431745 0.472463 -0.121889
C13   C     C_R   0.697529 0.868177 0.461849 -0.135984
C14   C     C_R   0.315288 0.900426 0.544519 -0.143612
C15   C     C_R   0.197529 0.368176 0.461849 -0.135983
C16   C     C_R   0.815288 0.400426 0.544519 -0.143612
C17   C     C_R   0.743482 0.935814 0.418646 0.039136
C18   C     C_R   0.254344 0.938505 0.580846 0.025026
C19   C     C_R   0.243482 0.435814 0.418646 0.039136
C20   C     C_R   0.754344 0.438505 0.580846 0.025026
C21   C     C_R   0.777318 0.040153 0.446399 -0.133975
C22   C     C_R   0.206996 0.019001 0.547288 -0.109661
C23   C     C_R   0.277318 0.540153 0.446399 -0.133975
C24   C     C_R   0.706996 0.519001 0.547288 -0.109661
C25   C     C_R   0.770777 0.068240 0.518795 -0.155524
C26   C     C_R   0.213823 0.044714 0.475531 -0.123905
C27   C     C_R   0.270777 0.568241 0.518795 -0.155524
C28   C     C_R   0.713823 0.544714 0.475531 -0.123905
C29   C     C_R   0.731218 0.991747 0.563666 0.016727
C30   C     C_R   0.270878 0.998480 0.436843 0.039841
C31   C     C_R   0.231218 0.491747 0.563666 0.016727
C32   C     C_R   0.770878 0.498480 0.436843 0.039841
C33   C     C_R   0.487124 0.058702 0.960779 0.213126
C34   C     C_R   0.500483 0.056248 0.033872 0.276716
C35   C     C_R   0.987125 0.558702 0.960779 0.213126
C36   C     C_R   0.000483 0.556247 0.033872 0.276716
C37   C     C_R   0.497498 0.166433 0.073126 -0.006221
C38   C     C_R   0.496291 0.168805 0.923165 -0.049058
C39   C     C_R   0.997498 0.666433 0.073127 -0.006221
C40   C     C_R   0.996291 0.668805 0.923165 -0.049059
C41   C     C_R   0.499647 0.281231 0.036984 -0.081865
C42   C     C_R   0.497493 0.282423 0.960559 -0.068986
C43   C     C_R   0.999647 0.781231 0.036984 -0.081865
C44   C     C_R   0.997493 0.782423 0.960559 -0.068986
C45   C     C_R   0.565575 0.150777 0.639476 0.542868
C46   C     C_R   0.469483 0.155213 0.352828 0.576651
C47   C     C_R   0.065575 0.650777 0.639476 0.542868
C48   C     C_R   0.969483 0.655213 0.352828 0.576651
C49   C     C_R   0.776621 0.064128 0.981951 -0.145059
C50   C     C_R   0.225628 0.066862 0.017825 -0.145109
C51   C     C_R   0.276621 0.564128 0.981951 -0.145059
C52   C     C_R   0.725628 0.566861 0.017825 -0.145108
C53   C     C_R   0.781578 0.038639 0.054656 -0.135696
C54   C     C_R   0.220322 0.040282 0.945142 -0.137022
C55   C     C_R   0.281578 0.538639 0.054656 -0.135696
C56   C     C_R   0.720322 0.540282 0.945143 -0.137022
C57   C     C_R   0.742055 0.942719 0.084032 0.031436
C58   C     C_R   0.257877 0.941900 0.916333 0.016244
C59   C     C_R   0.242055 0.442720 0.084032 0.031436
C60   C     C_R   0.757877 0.441900 0.916333 0.016244
C61   C     C_R   0.686379 0.891479 0.043985 -0.127317
C62   C     C_R   0.311513 0.887457 0.957101 -0.131489
C63   C     C_R   0.186379 0.391479 0.043985 -0.127317
C64   C     C_R   0.811513 0.387457 0.957101 -0.131489
C65   C     C_R   0.678899 0.921184 0.971571 -0.128088
C66   C     C_R   0.318956 0.916995 0.029442 -0.108352
C67   C     C_R   0.178899 0.421185 0.971571 -0.128088
C68   C     C_R   0.818956 0.416995 0.029442 -0.108352
C69   C     C_R   0.727661 0.001458 0.939084 0.022426
C70   C     C_R   0.272347 0.001085 0.061224 0.019817
C71   C     C_R   0.227661 0.501458 0.939084 0.022426
C72   C     C_R   0.772347 0.501085 0.061224 0.019817
C73   C     C_R   0.727329 0.019883 0.639773 0.552010
C74   C     C_R   0.273372 0.021734 0.359901 0.587190
C75   C     C_R   0.227329 0.519883 0.639773 0.552010
C76   C     C_R   0.773372 0.521734 0.359901 0.587190
C77   C     C_R   0.731773 0.383132 0.850672 0.538091
C78   C     C_R   0.268167 0.383288 0.149385 0.537960
C79   C     C_R   0.231773 0.883132 0.850672 0.538091
C80   C     C_R   0.768167 0.883288 0.149385 0.537960
C81   C     C_R   0.529498 0.157766 0.852160 0.538938
C82   C     C_R   0.469165 0.157374 0.146610 0.551316
C83   C     C_R   0.029498 0.657766 0.852160 0.538939
C84   C     C_R   0.969165 0.657374 0.146610 0.551316
C85   C     C_R   0.726585 0.023737 0.861566 0.575687
C86   C     C_R   0.273505 0.023687 0.138623 0.568399
C87   C     C_R   0.226585 0.523737 0.861566 0.575687
C88   C     C_R   0.773505 0.523687 0.138623 0.568399
C89   C     C_R   0.512479 0.163201 0.417646 0.029223
C90   C     C_R   0.553899 0.158232 0.562423 -0.015126
C91   C     C_R   0.012479 0.663201 0.417646 0.029223
C92   C     C_R   0.053899 0.658232 0.562423 -0.015126
C93   C     C_R   0.516785 0.271309 0.457687 0.033790
C94   C     C_R   0.540278 0.269850 0.528473 0.080226
C95   C     C_R   0.016785 0.771309 0.457687 0.033790
C96   C     C_R   0.040278 0.769850 0.528473 0.080226
C97   C     C_R   0.555888 0.051691 0.520835 -0.160325
C98   C     C_R   0.538570 0.054920 0.448276 -0.155977
C99   C     C_R   0.055889 0.551691 0.520835 -0.160325
C100  C     C_R   0.038570 0.554921 0.448276 -0.155976
Cr1   Cr    Cr6+3 0.771950 0.169480 0.750100 0.972349
Cr2   Cr    Cr6+3 0.228050 0.169480 0.249900 0.983348
Cr3   Cr    Cr6+3 0.271950 0.669480 0.750100 0.972348
Cr4   Cr    Cr6+3 0.728050 0.669480 0.249900 0.983348
Cr5   Cr    Cr6+3 0.614930 0.323340 0.749170 1.037480
Cr6   Cr    Cr6+3 0.385070 0.323340 0.250830 1.026248
Cr7   Cr    Cr6+3 0.114930 0.823340 0.749170 1.037480
Cr8   Cr    Cr6+3 0.885070 0.823340 0.250830 1.026248
Cr9   Cr    Cr6+3 0.616590 0.010620 0.750610 1.008246
Cr10  Cr    Cr6+3 0.383410 0.010620 0.249390 1.023327
Cr11  Cr    Cr6+3 0.116590 0.510620 0.750610 1.008245
Cr12  Cr    Cr6+3 0.883410 0.510620 0.249390 1.023327
H1    H     H_    0.564893 0.964065 0.545629 0.138140
H2    H     H_    0.537252 0.969283 0.419019 0.136817
H3    H     H_    0.064894 0.464065 0.545629 0.138140
H4    H     H_    0.037252 0.469283 0.419019 0.136817
H5    H     H_    0.813179 0.128503 0.958672 0.121621
H6    H     H_    0.191222 0.134893 0.040652 0.121261
H7    H     H_    0.313180 0.628502 0.958672 0.121621
H8    H     H_    0.691222 0.634892 0.040652 0.121261
H9    H     H_    0.820472 0.086817 0.086636 0.126045
H10   H     H_    0.182931 0.090167 0.912634 0.127445
H11   H     H_    0.320473 0.586817 0.086636 0.126045
H12   H     H_    0.682931 0.590167 0.912634 0.127445
H13   H     H_    0.651572 0.823687 0.067295 0.133528
H14   H     H_    0.345026 0.817926 0.934139 0.144939
H15   H     H_    0.151572 0.323688 0.067295 0.133528
H16   H     H_    0.845026 0.317926 0.934139 0.144939
H17   H     H_    0.637592 0.876490 0.940552 0.146009
H18   H     H_    0.358573 0.869470 0.060862 0.158119
H19   H     H_    0.137592 0.376490 0.940552 0.146009
H20   H     H_    0.858573 0.369471 0.060862 0.158119
H21   H     H_    0.465521 0.449693 0.443370 0.147256
H22   H     H_    0.450445 0.334540 0.592669 0.147970
H23   H     H_    0.965521 0.949693 0.443370 0.147256
H24   H     H_    0.950445 0.834540 0.592669 0.147970
H25   H     H_    0.662560 0.832126 0.568196 0.130137
H26   H     H_    0.370043 0.898556 0.443977 0.133346
H27   H     H_    0.162560 0.332125 0.568196 0.130137
H28   H     H_    0.870043 0.398555 0.443977 0.133346
H29   H     H_    0.667900 0.792205 0.440187 0.115510
H30   H     H_    0.353622 0.841388 0.570275 0.118772
H31   H     H_    0.167900 0.292205 0.440187 0.115510
H32   H     H_    0.853622 0.341388 0.570275 0.118772
H33   H     H_    0.812455 0.094731 0.413462 0.130746
H34   H     H_    0.160574 0.053682 0.574426 0.182862
H35   H     H_    0.312455 0.594731 0.413461 0.130746
H36   H     H_    0.660574 0.553682 0.574427 0.182861
H37   H     H_    0.798907 0.146308 0.540438 0.123610
H38   H     H_    0.171837 0.094826 0.449543 0.128465
H39   H     H_    0.298907 0.646308 0.540437 0.123610
H40   H     H_    0.671837 0.594827 0.449543 0.128465
O1    O     O_R   0.787510 0.042610 0.670410 -0.522119
O2    O     O_R   0.212490 0.042610 0.329590 -0.534172
O3    O     O_R   0.287510 0.542610 0.670410 -0.522119
O4    O     O_R   0.712490 0.542610 0.329590 -0.534172
O5    O     O_R   0.556450 0.252890 0.823790 -0.486045
O6    O     O_R   0.443550 0.252890 0.176210 -0.507250
O7    O     O_R   0.056450 0.752890 0.823790 -0.486046
O8    O     O_R   0.943550 0.752890 0.176210 -0.507250
O9    O     O_R   0.545750 0.051070 0.830560 -0.494178
O10   O     O_R   0.454250 0.051070 0.169440 -0.457224
O11   O     O_R   0.045750 0.551070 0.830560 -0.494178
O12   O     O_R   0.954250 0.551070 0.169440 -0.457224
O13   O     O_R   0.681210 0.959150 0.825320 -0.494621
O14   O     O_R   0.318790 0.959150 0.174680 -0.499438
O15   O     O_R   0.181210 0.459150 0.825320 -0.494621
O16   O     O_R   0.818790 0.459150 0.174680 -0.499438
O17   O     O_3   0.667820 0.167810 0.749960 -0.304176
O18   O     O_3   0.332180 0.167810 0.250040 -0.284949
O19   O     O_3   0.167820 0.667810 0.749960 -0.304176
O20   O     O_3   0.832180 0.667810 0.250040 -0.284949
O21   O     O_R   0.765670 0.292090 0.675090 -0.528593
O22   O     O_R   0.234330 0.292090 0.324910 -0.525182
O23   O     O_R   0.265670 0.792090 0.675090 -0.528593
O24   O     O_R   0.734330 0.792090 0.324910 -0.525182
O25   O     O_R   0.670220 0.409020 0.668560 -0.497670
O26   O     O_R   0.329780 0.409020 0.331440 -0.493935
O27   O     O_R   0.170220 0.909020 0.668560 -0.497670
O28   O     O_R   0.829780 0.909020 0.331440 -0.493935
O29   O     O_R   0.556580 0.251590 0.674980 -0.477408
O30   O     O_R   0.443420 0.251590 0.325020 -0.470162
O31   O     O_R   0.056580 0.751590 0.674980 -0.477408
O32   O     O_R   0.943420 0.751590 0.325020 -0.470162
O33   O     O_R   0.545890 0.049670 0.670030 -0.526310
O34   O     O_R   0.454110 0.049670 0.329970 -0.543433
O35   O     O_R   0.045890 0.549670 0.670030 -0.526310
O36   O     O_R   0.954110 0.549670 0.329970 -0.543433
O37   O     O_R   0.681340 0.957860 0.676500 -0.509683
O38   O     O_R   0.318660 0.957860 0.323500 -0.500620
O39   O     O_R   0.181340 0.457860 0.676500 -0.509683
O40   O     O_R   0.818660 0.457860 0.323500 -0.500620
O41   O     O_R   0.787380 0.044010 0.830940 -0.529182
O42   O     O_R   0.212620 0.044010 0.169060 -0.529458
O43   O     O_R   0.287380 0.544010 0.830940 -0.529182
O44   O     O_R   0.712620 0.544010 0.169060 -0.529458
O45   O     O_R   0.765540 0.293390 0.823910 -0.523685
O46   O     O_R   0.234460 0.293390 0.176090 -0.522519
O47   O     O_R   0.265540 0.793390 0.823910 -0.523685
O48   O     O_R   0.734460 0.793390 0.176090 -0.522519
O49   O     O_R   0.670090 0.410410 0.829090 -0.506304
O50   O     O_R   0.329910 0.410410 0.170910 -0.513884
O51   O     O_R   0.170090 0.910410 0.829090 -0.506304
O52   O     O_R   0.829910 0.910410 0.170910 -0.513884
O53   O     O_3   0.892714 0.809396 0.469528 -0.701488
H41   H     H_    0.861541 0.859290 0.500455 0.327353
O54   O     O_3   0.022841 0.975496 0.567123 -0.727455
H42   H     H_    0.984820 0.033813 0.579978 0.310870
O55   O     O_3   0.392715 0.309397 0.469528 -0.701488
H43   H     H_    0.361541 0.359291 0.500455 0.327353
O56   O     O_3   0.522841 0.475497 0.567123 -0.727454
H44   H     H_    0.484820 0.533814 0.579977 0.310870
O57   O     O_3   0.469217 0.950577 0.926654 -0.726085
H45   H     H_    0.440249 0.970751 0.883681 0.332706
O58   O     O_3   0.511191 0.946221 0.069068 -0.689059
H46   H     H_    0.518444 0.879432 0.033907 0.349747
O59   O     O_3   0.969217 0.450577 0.926654 -0.726086
H47   H     H_    0.940249 0.470751 0.883681 0.332707
O60   O     O_3   0.011191 0.446220 0.069068 -0.689059
H48   H     H_    0.018444 0.379432 0.033907 0.349747
C101  C     C_R   0.505936 0.397200 0.079772 0.049451
C102  C     C_R   0.459471 0.495508 0.068441 -0.069958
C103  C     C_R   0.465260 0.602056 0.109737 -0.110215
C104  C     C_R   0.513954 0.608397 0.166172 -0.109426
C105  C     C_R   0.558447 0.509730 0.179950 -0.088399
C106  C     C_R   0.556645 0.406755 0.135359 -0.064168
H49   H     H_    0.419557 0.490218 0.026816 0.119970
H50   H     H_    0.431219 0.679159 0.098883 0.111769
H51   H     H_    0.516842 0.689369 0.199550 0.116863
H52   H     H_    0.594328 0.513159 0.225375 0.153081
H53   H     H_    0.592773 0.332250 0.146001 0.112827
C107  C     C_R   0.494071 0.399591 0.918853 0.051814
C108  C     C_R   0.542121 0.495909 0.931677 -0.071253
C109  C     C_R   0.537834 0.604320 0.892187 -0.102036
C110  C     C_R   0.489233 0.614472 0.835917 -0.101165
C111  C     C_R   0.443441 0.517609 0.820364 -0.086924
C112  C     C_R   0.443918 0.412566 0.863050 -0.063208
H54   H     H_    0.582024 0.487815 0.973135 0.121293
H55   H     H_    0.572806 0.680121 0.904429 0.107622
H56   H     H_    0.487395 0.697053 0.804060 0.117088
H57   H     H_    0.407477 0.524186 0.775151 0.153296
H58   H     H_    0.406704 0.339603 0.851147 0.114211
C113  C     C_R   0.005936 0.897200 0.079772 0.049451
C114  C     C_R   0.959472 0.995508 0.068442 -0.069958
C115  C     C_R   0.965260 0.102055 0.109738 -0.110214
C116  C     C_R   0.013953 0.108395 0.166174 -0.109425
C117  C     C_R   0.058448 0.009729 0.179951 -0.088398
C118  C     C_R   0.056645 0.906755 0.135359 -0.064168
H59   H     H_    0.919557 0.990218 0.026817 0.119970
H60   H     H_    0.931219 0.179158 0.098885 0.111768
H61   H     H_    0.016841 0.189367 0.199552 0.116862
H62   H     H_    0.094329 0.013158 0.225376 0.153081
H63   H     H_    0.092773 0.832249 0.146001 0.112827
C119  C     C_R   0.994071 0.899592 0.918853 0.051814
C120  C     C_R   0.042121 0.995909 0.931678 -0.071253
C121  C     C_R   0.037834 0.104321 0.892187 -0.102036
C122  C     C_R   0.989233 0.114473 0.835917 -0.101165
C123  C     C_R   0.943441 0.017609 0.820364 -0.086924
C124  C     C_R   0.943918 0.912566 0.863050 -0.063208
H64   H     H_    0.082025 0.987815 0.973135 0.121293
H65   H     H_    0.072807 0.180121 0.904429 0.107622
H66   H     H_    0.987396 0.197053 0.804060 0.117089
H67   H     H_    0.907477 0.024186 0.775151 0.153296
H68   H     H_    0.906705 0.839603 0.851147 0.114211

loop_
_geom_bond_atom_site_label_1
_geom_bond_atom_site_label_2
_ccdc_geom_bond_type
Cr2   O18   S    
Cr10  O38   S    
C115  H60   S    
C14   H30   S    
C58   C62   A    
C93   C94   A    
C55   C59   A    
C8    H24   S    
C34   C37   A    
Cr4   O48   S    
C110  H56   S    
C14   C18   A    
C75   O39   A    
C95   C96   A    
C8    C96   S    
O58   H46   S    
C44   C119  S    
C104  C105  A    
C97   C98   A    
Cr10  O10   S    
C45   O29   A    
C7    C8    S    
Cr4   O24   S    
C46   C89   S    
Cr7   O19   S    
O57   H45   S    
C114  C115  A    
C15   C19   A    
C1    O21   A    
C50   C54   A    
Cr5   O17   S    
C112  H58   S    
C37   C41   A    
C88   O44   A    
C64   C68   A    
C16   H32   S    
C39   C84   S    
C38   C42   A    
C83   O11   A    
C34   O58   S    
Cr2   O46   S    
C99   H3    S    
C5    C6    S    
C30   C74   S    
Cr1   O45   S    
C98   H2    S    
C29   C73   S    
C106  H53   S    
Cr12  O16   S    
C35   O59   S    
C92   C96   A    
C10   H26   S    
C111  C112  A    
Cr8   O28   S    
C3    C18   S    
C25   H37   S    
C122  C123  A    
C41   C42   A    
C78   O50   A    
C68   H20   S    
C9    C13   A    
Cr6   O30   S    
C11   H27   S    
C108  H54   S    
C52   H8    S    
C123  H67   S    
C74   O38   A    
C52   C56   A    
C9    H25   S    
C87   O15   A    
C22   H34   S    
C122  H66   S    
Cr9   O37   S    
C88   O16   A    
C48   C91   S    
C86   O14   A    
C51   H7    S    
C110  C111  A    
C12   H28   S    
Cr1   O17   S    
C23   C27   A    
C91   C100  A    
C108  C109  A    
Cr2   O2    S    
C90   C97   A    
C67   C71   A    
C84   O12   A    
C9    C29   A    
Cr6   O26   S    
Cr4   O20   S    
C54   H10   S    
C6    H22   S    
C11   C31   A    
C49   C69   A    
C121  H65   S    
C12   C32   A    
Cr3   O19   S    
Cr6   O18   S    
C40   C83   S    
C1    O25   A    
C4    O28   A    
C47   C92   S    
Cr2   O42   S    
C59   C78   S    
Cr6   O6    S    
C72   C88   S    
C48   O32   A    
Cr1   O41   S    
C90   C94   A    
C55   H11   S    
C116  H61   S    
C121  C122  A    
C25   C29   A    
Cr12  O12   S    
Cr7   O7    S    
C63   C67   A    
C60   C77   S    
C59   C63   A    
C79   O47   A    
C114  H59   S    
Cr8   O32   S    
C27   C31   A    
O54   H42   S    
C12   C16   A    
Cr11  O39   S    
C28   C32   A    
C81   O5    A    
C22   C26   A    
C103  C104  A    
O55   H43   S    
C124  H68   S    
C24   H36   S    
O60   H48   S    
Cr3   O43   S    
C115  C116  A    
C62   C66   A    
C118  H63   S    
C39   C43   A    
C6    O56   S    
C82   O10   A    
C51   C55   A    
C43   C113  S    
O59   H47   S    
O53   H41   S    
C23   H35   S    
C101  C106  A    
C76   O4    A    
C17   C21   A    
C3    O27   A    
C61   H13   S    
Cr7   O31   S    
C68   C72   A    
C74   O2    A    
C21   H33   S    
C111  H57   S    
C8    O54   S    
C19   C23   A    
C43   C44   A    
Cr7   O51   S    
C119  C120  A    
C76   O40   A    
C75   O3    A    
C65   H17   S    
Cr6   O50   S    
C101  C102  A    
C109  C110  A    
C10   C30   A    
Cr5   O49   S    
O56   H44   S    
C26   H38   S    
C16   C20   A    
Cr5   O5    S    
C52   C72   A    
C77   O49   A    
Cr3   O23   S    
C105  C106  A    
C5    H21   S    
Cr11  O11   S    
C48   O36   A    
Cr3   O47   S    
C46   O34   A    
C119  C124  A    
C45   C90   S    
C71   C87   S    
Cr9   O13   S    
Cr12  O40   S    
C15   H31   S    
C4    C17   S    
C58   C79   S    
C47   O31   A    
C57   C80   S    
C28   H40   S    
C11   C15   A    
C50   H6    S    
Cr8   O20   S    
C38   C81   S    
C10   C14   A    
C107  C112  A    
C49   H5    S    
C37   C82   S    
Cr4   O4    S    
Cr11  O15   S    
Cr9   O17   S    
Cr1   O1    S    
C47   O35   A    
C120  C121  A    
C70   C86   S    
Cr10  O18   S    
C31   C75   S    
C69   C85   S    
C36   O60   S    
C62   H14   S    
Cr12  O36   S    
C54   C58   A    
Cr3   O3    S    
C65   C69   A    
C21   C25   A    
C120  H64   S    
Cr10  O34   S    
C1    C20   S    
C27   H39   S    
C80   O48   A    
Cr7   O27   S    
C2    C19   S    
C103  H50   S    
C81   O9    A    
C13   H29   S    
C36   C39   A    
C117  H62   S    
C24   C28   A    
Cr5   O25   S    
C53   C57   A    
C32   C76   S    
C5    C93   S    
C117  C118  A    
C51   C71   A    
C57   C61   A    
C84   O8    A    
Cr8   O8    S    
Cr2   O22   S    
C7    C95   S    
C66   C70   A    
Cr11  O35   S    
C105  H52   S    
C73   O37   A    
C99   C100  A    
C13   C17   A    
C89   C98   A    
C60   C64   A    
C79   O51   A    
Cr9   O33   S    
C100  H4    S    
C46   O30   A    
C116  C117  A    
C18   C22   A    
C123  C124  A    
C50   C70   A    
C85   O13   A    
C3    O23   A    
Cr9   O9    S    
C104  H51   S    
C86   O42   A    
C33   O57   S    
Cr10  O14   S    
C45   O33   A    
Cr12  O20   S    
C77   O45   A    
C102  H49   S    
C82   O6    A    
C107  C108  A    
C33   C34   A    
C35   C40   A    
C78   O46   A    
Cr11  O19   S    
C109  H55   S    
C85   O41   A    
C61   C65   A    
C89   C93   A    
C102  C103  A    
C67   H19   S    
C63   H15   S    
C49   C53   A    
C7    H23   S    
C2    O22   A    
C87   O43   A    
C7    O53   S    
C56   C60   A    
C40   C44   A    
C83   O7    A    
C91   C95   A    
Cr8   O52   S    
C113  C118  A    
C4    O24   A    
C6    C94   S    
C73   O1    A    
C5    O55   S    
C56   H12   S    
C33   C38   A    
C53   H9    S    
C35   C36   A    
C2    O26   A    
Cr5   O29   S    
C64   H16   S    
C80   O52   A    
C97   H1    S    
C20   C24   A    
C41   C101  S    
C113  C114  A    
C92   C99   A    
Cr4   O44   S    
Cr1   O21   S    
C66   H18   S    
C26   C30   A    
C42   C107  S    
