data_mof_unit_37469.cif
_audit_creation_date              2012-12-10T18:21:19-0500
_audit_creation_method            fapswitch 2.2
_symmetry_space_group_name_H-M    P1
_symmetry_Int_Tables_number       1
_space_group_crystal_system       triclinic
_cell_length_a                    15.078223
_cell_length_b                    14.024267
_cell_length_c                    10.805032
_cell_angle_alpha                 89.254435
_cell_angle_beta                  88.873732
_cell_angle_gamma                 90.530609
_cell_volume                      2284.10483006

loop_
_atom_site_label
_atom_site_type_symbol
_atom_type_description
_atom_site_fract_x
_atom_site_fract_y
_atom_site_fract_z
_atom_type_partial_charge
C1    C     C_R   0.326488 0.498934 0.494468 0.925233
C2    C     C_3   0.572652 0.564791 0.921008 1.079536
C3    C     C_R   0.814742 0.576143 0.441672 0.554918
C4    C     C_R   0.768695 0.502754 0.503849 -0.326336
C5    C     C_R   0.812878 0.431237 0.566978 0.612328
C6    C     C_R   0.905084 0.433389 0.572489 -0.174079
C7    C     C_R   0.952735 0.502805 0.499784 -0.030066
C8    C     C_R   0.907527 0.574706 0.432968 -0.060604
C9    C     C_R   0.950975 0.365735 0.644633 -0.159081
C10   C     C_R   0.042427 0.359364 0.630829 0.601115
C11   C     C_R   0.089827 0.423489 0.552394 -0.085450
C12   C     C_R   0.503902 0.500515 0.257867 0.993632
C13   C     C_R   0.045382 0.499138 0.492717 0.002595
C14   C     C_R   0.093777 0.569367 0.423803 -0.048066
C15   C     C_R   0.048888 0.636306 0.348742 -0.134516
C16   C     C_R   0.955659 0.640151 0.355486 -0.109761
C17   C     C_R   0.181502 0.415006 0.535105 -0.127823
C18   C     C_R   0.230122 0.495152 0.489536 -0.279641
C19   C     C_R   0.186105 0.571921 0.435183 0.647629
C20   C     C_R   0.556820 0.798091 0.573532 0.762443
C21   C     C_R   0.558937 0.201134 0.569624 0.780232
C22   C     C_R   0.443168 0.796713 0.424992 0.631470
C23   C     C_R   0.440946 0.203615 0.427939 0.621061
C24   C     C_R   0.438440 0.898021 0.424257 -0.128139
C25   C     C_R   0.438292 0.102077 0.423796 -0.099675
C26   C     C_R   0.673198 0.500611 0.501819 1.099676
C27   C     C_R   0.498114 0.949163 0.498496 -0.062904
C28   C     C_R   0.498433 0.050591 0.497655 -0.061179
C29   C     C_R   0.558211 0.898690 0.573606 -0.367697
C30   C     C_R   0.559350 0.100663 0.571282 -0.354106
C31   C     C_R   0.377199 0.949378 0.351463 -0.103389
C32   C     C_R   0.377013 0.050567 0.351128 -0.082296
C33   C     C_R   0.619025 0.049363 0.644755 0.630673
C34   C     C_R   0.618147 0.949754 0.646374 0.659821
C35   C     C_R   0.495649 0.499166 0.742740 0.946549
C36   C     C_3   0.413267 0.542743 0.081556 0.446366
C37   C     C_3   0.504759 0.394944 0.076737 0.279497
C38   C     C_3   0.400867 0.542910 0.936246 -0.462690
C39   C     C_3   0.505227 0.389134 0.932992 -0.420043
C40   C     C_3   0.588661 0.556559 0.064400 -0.441054
C41   C     C_3   0.504560 0.501090 0.121569 -0.394940
C42   C     C_3   0.492143 0.497388 0.880035 -0.447321
H1    H     H_    0.363945 0.494321 0.128067 0.130102
H2    H     H_    0.444621 0.359719 0.117491 0.221469
N1    N     N_R   0.500070 0.750030 0.500050 -0.242393
N2    N     N_R   0.500070 0.249970 0.500050 -0.213029
O1    O     O_R   0.367860 0.580280 0.500020 -0.512619
O2    O     O_R   0.367860 0.419720 0.500020 -0.621413
O3    O     O_R   0.500000 0.580270 0.314790 -0.555875
O4    O     O_R   0.500000 0.419730 0.314790 -0.555949
O5    O     O_R   0.632160 0.580270 0.499960 -0.538287
O6    O     O_R   0.632160 0.419730 0.499960 -0.541976
O7    O     O_R   0.500030 0.580270 0.685200 -0.536359
O8    O     O_R   0.500030 0.419730 0.685200 -0.590946
Zn1   Zn    Zn3+2 0.500020 0.607200 0.499990 1.172488
Zn2   Zn    Zn3+2 0.500020 0.392800 0.499990 1.139287
F1    F     F_    0.394062 0.628835 0.136453 -0.501316
F2    F     F_    0.573526 0.343531 0.128899 -0.593580
F3    F     F_    0.085728 0.295840 0.703695 -0.606087
C43   C     C_2   0.222061 0.319315 0.549802 1.155008
O9    O     O_2   0.204782 0.257297 0.475381 -0.545687
O10   O     O_R   0.275814 0.298616 0.650245 -0.704303
H3    H     H_    0.297784 0.230512 0.649638 0.349168
F4    F     F_    0.233813 0.648723 0.393147 -0.555733
C44   C     C_2   0.097164 0.695618 0.253090 1.068707
O11   O     O_2   0.150027 0.658343 0.181738 -0.513777
O12   O     O_R   0.079468 0.793005 0.241698 -0.734287
H4    H     H_    0.112825 0.824310 0.169425 0.360304
C45   C     C_2   0.909355 0.708032 0.273221 1.105306
O13   O     O_2   0.893253 0.685661 0.166953 -0.547240
O14   O     O_R   0.884611 0.797206 0.317832 -0.675154
H5    H     H_    0.853345 0.837101 0.253391 0.376750
F5    F     F_    0.612642 0.747352 0.645374 -0.501185
F6    F     F_    0.617243 0.250866 0.637396 -0.532079
F7    F     F_    0.393146 0.743197 0.349342 -0.522004
F8    F     F_    0.385296 0.257731 0.360484 -0.621820
C46   C     C_2   0.311328 0.898669 0.275987 1.066030
O15   O     O_2   0.250581 0.854323 0.327185 -0.492030
O16   O     O_R   0.318228 0.903336 0.146889 -0.734382
H6    H     H_    0.269960 0.865243 0.105477 0.370348
C47   C     C_2   0.309633 0.100443 0.276882 1.044543
O17   O     O_2   0.231192 0.093833 0.306959 -0.543558
O18   O     O_R   0.335576 0.151748 0.170486 -0.696988
H7    H     H_    0.283009 0.181080 0.127734 0.375679
F9    F     F_    0.678833 0.095177 0.715747 -0.557835
F10   F     F_    0.676825 0.903679 0.719219 -0.511755
C48   C     C_2   0.313194 0.488817 0.909260 0.969269
O19   O     O_2   0.255009 0.480639 0.989246 -0.491758
O20   O     O_R   0.291901 0.456564 0.792236 -0.692221
H8    H     H_    0.336833 0.474277 0.726720 0.304363
C49   C     C_2   0.431071 0.318891 0.893434 0.977464
O21   O     O_2   0.440463 0.271420 0.799841 -0.581515
O22   O     O_R   0.354437 0.303498 0.966346 -0.776250
H9    H     H_    0.311490 0.256978 0.927781 0.390131
C50   C     C_2   0.381970 0.643463 0.882408 1.111163
O23   O     O_2   0.394600 0.715833 0.941705 -0.424551
O24   O     O_R   0.347107 0.652862 0.763685 -0.818993
H10   H     H_    0.337705 0.721755 0.737908 0.354348
C51   C     C_2   0.592396 0.340766 0.891281 1.202100
O25   O     O_2   0.644369 0.378554 0.817586 -0.438514
O26   O     O_R   0.609943 0.248114 0.933712 -0.676337
H11   H     H_    0.668627 0.223131 0.900939 0.406719
C52   C     C_2   0.601381 0.657512 0.118152 1.085269
O27   O     O_2   0.671687 0.680857 0.164495 -0.537445
O28   O     O_R   0.534069 0.725078 0.111698 -0.604974
H12   H     H_    0.550872 0.788051 0.150364 0.357231
C53   C     C_2   0.673657 0.500792 0.097046 1.076691
O29   O     O_2   0.725449 0.471789 0.018024 -0.472992
O30   O     O_R   0.692882 0.484352 0.221514 -0.784034
H13   H     H_    0.749622 0.447246 0.232768 0.351483
F11   F     F_    0.554840 0.658607 0.889315 -0.568559
F12   F     F_    0.649037 0.548582 0.851786 -0.567116
F13   F     F_    0.767601 0.645895 0.385459 -0.588755
F14   F     F_    0.765330 0.357903 0.618747 -0.551351
C54   C     C_2   0.907067 0.304282 0.741091 1.157460
O31   O     O_2   0.858306 0.339702 0.819403 -0.506744
O32   O     O_R   0.923961 0.206443 0.744673 -0.687658
H14   H     H_    0.890697 0.172343 0.814950 0.376612

loop_
_geom_bond_atom_site_label_1
_geom_bond_atom_site_label_2
_ccdc_geom_bond_type
C48   O19   D    
O22   H9    S    
C5    F14   S    
C35   O7    A    
C50   O23   D    
C24   C27   A    
C23   F8    S    
C6    C9    A    
C12   O3    A    
C7    C8    A    
C46   O15   D    
C25   C28   A    
C32   C47   S    
C2    F12   S    
C1    C18   S    
O26   H11   S    
C38   C42   S    
C5    C6    A    
C27   C29   A    
C15   C16   A    
C15   C44   S    
O24   H10   S    
C43   O10   S    
C18   C19   A    
C34   F10   S    
C45   O14   S    
C35   C42   S    
C33   F9    S    
O18   H7    S    
C12   O4    A    
C44   O12   S    
C38   C50   S    
C53   O29   D    
C9    C10   A    
C37   F2    S    
C25   C32   A    
C46   O16   S    
C8    C16   A    
C23   N2    A    
C13   C14   A    
C35   O8    A    
C53   O30   S    
C36   C41   S    
C22   F7    S    
C39   C49   S    
C47   O18   S    
C31   C46   S    
C39   C42   S    
C20   C29   A    
O7    Zn1   S    
O8    Zn2   S    
C2    F11   S    
O12   H4    S    
C9    C54   S    
C3    C8    A    
C3    F13   S    
C49   O21   D    
C1    O1    A    
C54   O32   S    
O3    Zn1   S    
C21   F6    S    
C47   O17   D    
C43   O9    D    
C12   C41   S    
C26   O6    A    
C49   O22   S    
C39   C51   S    
C51   O25   D    
C19   F4    S    
O10   H3    S    
C17   C18   A    
C52   O28   S    
C40   C53   S    
C40   C41   S    
C51   O26   S    
C36   F1    S    
C48   O20   S    
C22   C24   A    
C3    C4    A    
C52   O27   D    
O1    Zn1   S    
C21   N2    A    
C21   C30   A    
O2    Zn2   S    
C11   C17   A    
C30   C33   A    
C14   C19   A    
C31   C32   A    
C16   C45   S    
C20   N1    A    
C4    C5    A    
C4    C26   S    
C50   O24   S    
C1    O2    A    
C6    C7    A    
O28   H12   S    
C26   O5    A    
C38   C48   S    
C37   H2    S    
C36   C38   S    
C10   F3    S    
C24   C31   A    
O14   H5    S    
C37   C39   S    
O30   H13   S    
C40   C52   S    
C11   C13   A    
O6    Zn2   S    
C2    C42   S    
C29   C34   A    
C28   C30   A    
C33   C34   A    
C20   F5    S    
O5    Zn1   S    
C23   C25   A    
C37   C41   S    
C45   O13   D    
O4    Zn2   S    
C10   C11   A    
C17   C43   S    
O16   H6    S    
C2    C40   S    
C7    C13   A    
C22   N1    A    
N1    Zn1   S    
C44   O11   D    
N2    Zn2   S    
C27   C28   A    
C14   C15   A    
C36   H1    S    
O20   H8    S    
O32   H14   S    
C54   O31   D    
