data_mof_unit_42112.cif
_audit_creation_date              2012-12-11T16:43:17-0500
_audit_creation_method            fapswitch 2.2
_symmetry_space_group_name_H-M    P1
_symmetry_Int_Tables_number       1
_space_group_crystal_system       triclinic
_cell_length_a                    6.925609
_cell_length_b                    23.297236
_cell_length_c                    25.822802
_cell_angle_alpha                 104.86326
_cell_angle_beta                  90.250003
_cell_angle_gamma                 90.460909
_cell_volume                      4026.82034429

loop_
_atom_site_label
_atom_site_type_symbol
_atom_type_description
_atom_site_fract_x
_atom_site_fract_y
_atom_site_fract_z
_atom_type_partial_charge
O1    O     O_R   0.505750 0.453350 0.547660 -0.510201
O2    O     O_R   0.170990 0.432220 0.437590 -0.546026
O3    O     O_R   0.005600 0.546650 0.452340 -0.542258
C1    C     C_R   0.339814 0.415022 0.417736 0.698195
O4    O     O_R   0.175720 0.446240 0.546340 -0.538814
O5    O     O_R   0.010370 0.560770 0.561860 -0.539899
C2    C     C_R   0.344935 0.433426 0.562044 0.721707
O6    O     O_R   0.500990 0.439230 0.438140 -0.539640
O7    O     O_3   0.340820 0.537560 0.504970 -0.374944
V1    V     V_3+5 0.064050 0.493030 0.499080 1.415028
O8    O     O_R   0.680940 0.567780 0.562410 -0.543164
C3    C     C_R   0.850766 0.584544 0.582480 0.715871
O9    O     O_R   0.676210 0.553760 0.453660 -0.544235
C4    C     C_R   0.845192 0.565844 0.437163 0.683242
V2    V     V_3+5 0.564640 0.506970 0.500920 1.426851
O10   O     O_3   0.837740 0.462440 0.495030 -0.358513
C5    C     C_R   0.773931 0.884460 0.122410 -0.160424
H1    H     H_    0.642391 0.903663 0.111784 0.120564
C6    C     C_R   0.762597 0.848933 0.158579 -0.143781
H2    H     H_    0.623147 0.842394 0.175085 0.100283
C7    C     C_R   0.929284 0.823284 0.174093 0.094593
C8    C     C_R   0.107792 0.834210 0.152334 -0.141411
H3    H     H_    0.238820 0.814543 0.162681 0.099406
C9    C     C_R   0.119267 0.869924 0.116240 -0.161713
H4    H     H_    0.259119 0.877264 0.100348 0.119712
C10   C     C_R   0.952419 0.895557 0.100776 -0.055150
C11   C     C_R   0.062580 0.787979 0.251569 -0.151401
H5    H     H_    0.185040 0.817799 0.254237 0.109526
C12   C     C_R   0.050247 0.752915 0.288145 -0.151591
H6    H     H_    0.163725 0.756755 0.317842 0.108181
C13   C     C_R   0.891797 0.714402 0.287136 0.081655
C14   C     C_R   0.745986 0.712017 0.248493 -0.150992
H7    H     H_    0.623528 0.682196 0.245826 0.109991
C15   C     C_R   0.758319 0.747082 0.211917 -0.151248
H8    H     H_    0.644843 0.743242 0.182219 0.108601
C16   C     C_R   0.916785 0.785588 0.212921 0.081607
C17   C     C_R   0.700910 0.665732 0.347715 -0.141736
H9    H     H_    0.569841 0.685389 0.337383 0.099264
C18   C     C_R   0.689541 0.630007 0.383803 -0.161904
H10   H     H_    0.549727 0.622648 0.399707 0.119144
C19   C     C_R   0.856453 0.604390 0.399250 -0.053412
C20   C     C_R   0.034889 0.615506 0.377599 -0.160483
H11   H     H_    0.166475 0.596314 0.388207 0.120283
C21   C     C_R   0.046116 0.651042 0.341437 -0.143717
H12   H     H_    0.185533 0.657597 0.324921 0.100533
C22   C     C_R   0.879375 0.676684 0.325947 0.094588
C23   C     C_R   0.712961 0.645058 0.668883 -0.221123
C24   C     C_R   0.864336 0.634266 0.631542 -0.086179
C25   C     C_R   0.031363 0.670377 0.641838 -0.219043
C26   C     C_R   0.047368 0.716985 0.688552 0.089608
C27   C     C_R   0.896384 0.726884 0.726227 0.053003
C28   C     C_R   0.729055 0.690580 0.716468 0.091123
C29   C     C_R   0.211872 0.753865 0.698317 -0.191099
C30   C     C_R   0.227966 0.799729 0.745332 -0.182244
C31   C     C_R   0.080245 0.809404 0.783544 0.091932
C32   C     C_R   0.912922 0.773097 0.773786 0.053093
C33   C     C_R   0.761944 0.782991 0.811464 0.088651
C34   C     C_R   0.597430 0.746116 0.801696 -0.190405
C35   C     C_R   0.581326 0.700257 0.754678 -0.181204
C36   C     C_R   0.096341 0.854923 0.831132 -0.223969
C37   C     C_R   0.944990 0.865699 0.868480 -0.084125
C38   C     C_R   0.777965 0.829588 0.858183 -0.217440
H13   H     H_    0.584452 0.617188 0.661459 0.123742
H14   H     H_    0.148341 0.662563 0.613174 0.127380
H15   H     H_    0.328924 0.746995 0.669732 0.134108
H16   H     H_    0.356860 0.827391 0.751977 0.135841
H17   H     H_    0.224829 0.882805 0.838554 0.122942
H18   H     H_    0.661001 0.837395 0.886852 0.128287
H19   H     H_    0.480380 0.752985 0.830281 0.134603
H20   H     H_    0.452425 0.672599 0.748031 0.136226
C39   C     C_R   0.288190 0.170089 0.140314 -0.213666
C40   C     C_R   0.456184 0.135169 0.131246 -0.085501
C41   C     C_R   0.604586 0.147003 0.170078 -0.225104
C42   C     C_R   0.583788 0.192048 0.217919 0.093992
C43   C     C_R   0.414955 0.226825 0.226424 0.052063
C44   C     C_R   0.267460 0.216048 0.187235 0.087716
C45   C     C_R   0.727880 0.202645 0.257733 -0.180416
C46   C     C_R   0.706996 0.247919 0.304930 -0.198391
C47   C     C_R   0.540938 0.283241 0.313408 0.090332
C48   C     C_R   0.393319 0.272380 0.274254 0.052621
C49   C     C_R   0.224521 0.307177 0.282736 0.093299
C50   C     C_R   0.080247 0.296509 0.242991 -0.179830
C51   C     C_R   0.101192 0.251276 0.195788 -0.194154
C52   C     C_R   0.520665 0.329462 0.360152 -0.221487
C53   C     C_R   0.352888 0.364465 0.369120 -0.083326
C54   C     C_R   0.204039 0.352386 0.330448 -0.224322
H21   H     H_    0.173166 0.161591 0.110625 0.128700
H22   H     H_    0.733671 0.120138 0.163738 0.123641
H23   H     H_    0.857783 0.176204 0.252199 0.136710
H24   H     H_    0.821632 0.255572 0.334683 0.131787
H25   H     H_    0.635981 0.338200 0.389701 0.127882
H26   H     H_    0.074963 0.379258 0.336760 0.123355
H27   H     H_    0.950305 0.322933 0.248541 0.137551
H28   H     H_    0.986514 0.243636 0.166053 0.133968
C55   C     C_R   0.297116 0.097813 0.863365 -0.159721
H29   H     H_    0.184022 0.065310 0.863001 0.118223
C56   C     C_R   0.286144 0.132859 0.826856 -0.142308
H30   H     H_    0.165937 0.125357 0.798979 0.106881
C57   C     C_R   0.429539 0.175827 0.825772 0.091052
C58   C     C_R   0.586100 0.181682 0.861996 -0.140741
H31   H     H_    0.697793 0.214824 0.863628 0.106029
C59   C     C_R   0.599371 0.145471 0.897611 -0.164294
H32   H     H_    0.721487 0.151152 0.924865 0.121937
C60   C     C_R   0.454135 0.103507 0.898976 -0.051813
C61   C     C_R   0.582979 0.235945 0.767575 -0.151567
H33   H     H_    0.725259 0.225355 0.779629 0.100375
C62   C     C_R   0.569943 0.271481 0.731466 -0.147584
H34   H     H_    0.702552 0.288687 0.719041 0.101619
C63   C     C_R   0.389489 0.284891 0.712243 0.110232
C64   C     C_R   0.222358 0.262546 0.731413 -0.148285
H35   H     H_    0.080468 0.270707 0.717316 0.100869
C65   C     C_R   0.235189 0.228414 0.768691 -0.151158
H36   H     H_    0.102212 0.213787 0.783259 0.100020
C66   C     C_R   0.415817 0.213917 0.787020 0.085545
C67   C     C_R   0.214542 0.357735 0.671047 -0.142281
H37   H     H_    0.097521 0.360328 0.699135 0.117886
C68   C     C_R   0.203659 0.392595 0.634341 -0.203605
H38   H     H_    0.078249 0.420264 0.634994 0.158328
C69   C     C_R   0.355321 0.393580 0.598627 -0.154331
C70   C     C_R   0.516422 0.356729 0.598891 0.409811
C71   C     C_R   0.525611 0.321605 0.635655 -0.227425
H39   H     H_    0.650345 0.293648 0.634476 0.122625
C72   C     C_R   0.376058 0.321767 0.672490 0.033634
O11   O     O_R   0.308350 0.060850 0.061810 -0.538657
O12   O     O_R   0.633860 0.053770 0.953650 -0.541162
O13   O     O_R   0.798960 0.939210 0.938150 -0.538402
C73   C     C_R   0.464944 0.065633 0.937111 0.689469
O14   O     O_R   0.638360 0.067800 0.062400 -0.541528
O15   O     O_R   0.803500 0.953330 0.047670 -0.540535
C74   C     C_R   0.469538 0.084868 0.082386 0.709972
O16   O     O_R   0.303810 0.046730 0.952290 -0.539421
O17   O     O_3   0.468430 0.962490 0.995010 -0.369295
V3    V     V_3+5 0.745300 0.006960 0.000930 1.399445
O18   O     O_R   0.132880 0.946160 0.046390 -0.542449
C75   C     C_R   0.963830 0.934102 0.062863 0.690079
O19   O     O_R   0.128380 0.932130 0.937650 -0.542686
C76   C     C_R   0.958561 0.915408 0.917550 0.712227
V4    V     V_3+5 0.244670 0.992930 0.999140 1.398244
O20   O     O_3   0.971670 0.037510 0.005000 -0.367649
O21   O     O_3   0.670642 0.356618 0.565032 -0.546249
C77   C     C_3   0.645525 0.309167 0.518846 0.107321
H40   H     H_    0.519944 0.317566 0.494781 0.096353
H41   H     H_    0.623290 0.266070 0.529374 0.106907
C78   C     C_3   0.825876 0.303750 0.484538 -0.689638
H42   H     H_    0.807897 0.266421 0.448133 0.159510
H43   H     H_    0.851007 0.345306 0.472035 0.231323
H44   H     H_    0.953479 0.295202 0.507592 0.213570

loop_
_geom_bond_atom_site_label_1
_geom_bond_atom_site_label_2
_ccdc_geom_bond_type
C31   C32   A    
O13   C76   A    
C11   C12   A    
C19   C20   A    
C55   H29   S    
C1    O6    A    
C57   C66   S    
C65   C66   A    
C49   C50   A    
C33   C38   A    
C18   C19   A    
C7    C16   S    
C45   C46   A    
C46   H24   S    
C61   C62   A    
C45   H23   S    
C12   H6    S    
C5    C10   A    
O11   V4    S    
C6    C7    A    
C9    C10   A    
C27   C32   A    
C50   H27   S    
C77   H41   S    
C23   H13   S    
C47   C52   A    
C48   C49   A    
O17   V4    S    
V2    O10   S    
C32   C33   A    
C15   H8    S    
C41   C42   A    
C25   C26   A    
C64   H35   S    
C10   C75   S    
C7    C8    A    
O15   C75   A    
O8    V2    S    
C52   C53   A    
C57   C58   A    
O13   V3    S    
O17   V3    S    
C67   C68   A    
C42   C45   A    
C62   H34   S    
O1    V2    S    
C52   H25   S    
C29   H15   S    
C43   C48   A    
C15   C16   A    
C49   C54   A    
C3    C24   S    
C25   H14   S    
O9    C4    A    
C62   C63   A    
C59   H32   S    
C20   C21   A    
C78   H44   S    
C44   C51   A    
C65   H36   S    
C56   C57   A    
C21   C22   A    
C56   H30   S    
C73   O16   A    
C26   C29   A    
C67   C72   A    
C42   C43   A    
C27   C28   A    
C2    C69   S    
C61   C66   A    
C9    H4    S    
C36   H17   S    
O19   V4    S    
V4    O20   S    
C77   C78   S    
C18   H10   S    
O4    C2    A    
C46   C47   A    
C40   C41   A    
C1    C53   S    
C26   C27   A    
C34   C35   A    
C53   C54   A    
C51   H28   S    
C13   C22   S    
C36   C37   A    
C14   C15   A    
O2    C1    A    
C43   C44   A    
C41   H22   S    
O14   V3    S    
C17   H9    S    
C28   C35   A    
C23   C24   A    
C69   C70   A    
C58   C59   A    
C5    H1    S    
C70   C71   A    
O11   C74   A    
O21   C77   S    
C59   C60   A    
C71   H39   S    
O18   C75   A    
O3    C4    A    
C4    C19   S    
C70   O21   S    
C78   H43   S    
C24   C25   A    
V3    O20   S    
O6    V2    S    
O9    V2    S    
C39   H21   S    
C20   H11   S    
O2    V1    S    
C21   H12   S    
O7    V1    S    
O12   V3    S    
C30   C31   A    
O15   V3    S    
O1    C2    A    
C13   C14   A    
C63   C72   S    
C78   H42   S    
O14   C74   A    
O18   V4    S    
O8    C3    A    
C55   C56   A    
C34   H19   S    
C29   C30   A    
C23   C28   A    
C30   H16   S    
C11   C16   A    
C61   H33   S    
C68   H38   S    
C38   H18   S    
C14   H7    S    
C6    H2    S    
C68   C69   A    
O7    V2    S    
C39   C40   A    
C12   C13   A    
O16   V4    S    
V1    O10   S    
C77   H40   S    
C55   C60   A    
O5    C3    A    
C37   C76   S    
C33   C34   A    
C39   C44   A    
C60   C73   S    
O3    V1    S    
C58   H31   S    
C5    C6    A    
C40   C74   S    
C8    C9    A    
C37   C38   A    
C64   C65   A    
C71   C72   A    
O5    V1    S    
C35   H20   S    
C47   C48   A    
O4    V1    S    
C17   C18   A    
C50   C51   A    
C63   C64   A    
C11   H5    S    
O12   C73   A    
C8    H3    S    
O19   C76   A    
C54   H26   S    
C17   C22   A    
C31   C36   A    
C67   H37   S    
