data_mof_unit_51778.cif
_audit_creation_date              2012-12-11T14:09:04-0500
_audit_creation_method            fapswitch 2.2
_symmetry_space_group_name_H-M    P1
_symmetry_Int_Tables_number       1
_space_group_crystal_system       triclinic
_cell_length_a                    8.405297
_cell_length_b                    15.337357
_cell_length_c                    18.998407
_cell_angle_alpha                 96.453696
_cell_angle_beta                  93.915286
_cell_angle_gamma                 98.848503
_cell_volume                      2395.54559087

loop_
_atom_site_label
_atom_site_type_symbol
_atom_type_description
_atom_site_fract_x
_atom_site_fract_y
_atom_site_fract_z
_atom_type_partial_charge
Ba1   Ba    Ba6+2 0.852120 0.544010 0.466690 1.683183
Ba2   Ba    Ba6+2 0.337720 0.456070 0.533320 1.698476
C1    C     C_3   0.609862 0.854644 0.230748 -0.272133
C2    C     C_R   0.141492 0.496200 0.276580 0.052779
C3    C     C_R   0.088814 0.484067 0.203127 -0.165715
C4    C     C_3   0.088190 0.740590 0.280593 0.316454
C5    C     C_R   0.187593 0.521396 0.152609 -0.003857
C6    C     C_R   0.347804 0.563214 0.176372 0.067253
C7    C     C_R   0.399828 0.576110 0.249738 0.025959
C8    C     C_R   0.160203 0.586500 0.035721 -0.047597
C9    C     C_R   0.117784 0.578113 0.962020 -0.042764
C10   C     C_R   0.037399 0.497104 0.925111 0.035462
C11   C     C_R   0.000844 0.424704 0.964283 -0.078004
C12   C     C_3   0.611596 0.787292 0.284077 0.409701
C13   C     C_R   0.046139 0.432621 0.037845 -0.058983
C14   C     C_R   0.128395 0.513447 0.074742 0.070830
C15   C     C_R   0.827285 0.447198 0.821876 -0.053934
C16   C     C_3   0.050515 0.767182 0.206649 -0.074780
C17   C     C_R   0.776494 0.437230 0.749268 0.042265
C18   C     C_R   0.039652 0.509450 0.722750 0.128352
C19   C     C_R   0.090272 0.520640 0.796655 -0.049667
C20   C     C_R   0.984984 0.488739 0.846944 -0.005855
C21   C     C_R   0.882646 0.466610 0.700055 -0.269181
C22   C     C_R   0.747691 0.229140 0.532244 -0.267079
C23   C     C_3   0.398361 0.287094 0.310095 0.246252
C24   C     C_R   0.849386 0.170700 0.551551 -0.041730
C25   C     C_R   0.797457 0.077786 0.536280 -0.073682
C26   C     C_R   0.636068 0.042433 0.505318 -0.019064
C27   C     C_R   0.549198 0.104723 0.474348 -0.058748
C28   C     C_3   0.256648 0.751696 0.664068 0.494959
C29   C     C_R   0.603395 0.197902 0.490459 -0.012929
C30   C     C_R   0.395337 0.911023 0.478329 -0.083114
C31   C     C_R   0.336817 0.820229 0.459991 0.054436
C32   C     C_R   0.584268 0.786477 0.512989 0.039238
C33   C     C_R   0.645675 0.877516 0.527111 -0.091738
C34   C     C_3   0.338185 0.228821 0.238707 -0.106206
C35   C     C_R   0.560820 0.942866 0.501991 0.029093
C36   C     C_R   0.433993 0.758163 0.475392 -0.272650
C37   C     C_3   0.287646 0.838744 0.718075 -0.246961
C38   C     C_3   0.918217 0.258662 0.344475 0.229731
C39   C     C_3   0.889446 0.168627 0.295654 -0.199888
C40   C     C_3   0.711602 0.665669 0.691180 0.252955
C41   C     C_3   0.684338 0.707426 0.767407 -0.278002
C42   C     C_2   0.160327 0.846969 0.769250 1.022738
C43   C     C_2   0.745064 0.158183 0.241810 0.850037
C44   C     C_2   0.891847 0.089312 0.334941 0.886749
C45   C     C_3   0.038403 0.225718 0.725481 0.398293
C46   C     C_2   0.835288 0.731098 0.817943 0.974669
C47   C     C_2   0.558697 0.652315 0.803786 0.806774
C48   C     C_2   0.493661 0.373799 0.296535 0.770126
C49   C     C_2   0.040031 0.091625 0.794619 1.002467
C50   C     C_2   0.588229 0.091303 0.756902 0.933145
C51   C     C_2   0.924867 0.022117 0.538629 0.890120
C52   C     C_2   0.423376 0.073261 0.414383 0.908417
C53   C     C_3   0.080611 0.190522 0.796681 -0.202674
C54   C     C_3   0.518809 0.215689 0.688913 0.255620
C55   C     C_3   0.459677 0.124319 0.712655 -0.108225
C56   C     C_R   0.290238 0.549944 0.299071 -0.258867
H1    H     H_    0.404388 0.842384 0.750499 0.106124
H2    H     H_    0.483799 0.761183 0.291201 -0.036784
H3    H     H_    0.533961 0.904389 0.247742 0.155211
H4    H     H_    0.289817 0.298860 0.337547 0.017125
H5    H     H_    0.248831 0.261179 0.209278 0.075788
H6    H     H_    0.439896 0.222394 0.204808 0.155336
H7    H     H_    0.561863 0.820668 0.177691 0.080161
H8    H     H_    0.905427 0.210007 0.712725 0.005519
H9    H     H_    0.211207 0.211985 0.813647 0.063321
H10   H     H_    0.012984 0.221326 0.838629 0.043120
H11   H     H_    0.643721 0.219005 0.672552 -0.086980
H12   H     H_    0.301738 0.898157 0.689225 0.057735
H13   H     H_    0.437301 0.224171 0.642437 0.104557
H14   H     H_    0.986721 0.688863 0.289880 0.095621
H15   H     H_    0.360081 0.132376 0.746282 0.162316
H16   H     H_    0.211257 0.552384 0.815145 0.129761
H17   H     H_    0.145054 0.635642 0.934082 0.149651
H18   H     H_    0.218739 0.650664 0.062338 0.097156
H19   H     H_    0.971236 0.445280 0.185454 0.132456
H20   H     H_    0.939185 0.361169 0.937607 0.082688
H21   H     H_    0.019848 0.374828 0.065545 0.094084
H22   H     H_    0.742869 0.423544 0.858858 0.095183
H23   H     H_    0.801822 0.280037 0.357065 0.026926
H24   H     H_    0.840126 0.460101 0.644347 0.060136
H25   H     H_    0.201523 0.711956 0.281541 -0.060810
H26   H     H_    0.327485 0.564369 0.355301 0.077943
H27   H     H_    0.307521 0.954783 0.474976 0.096218
H28   H     H_    0.753399 0.893909 0.562248 0.095600
H29   H     H_    0.386891 0.687876 0.463838 0.056733
H30   H     H_    0.790348 0.300059 0.542467 0.058715
H31   H     H_    0.007775 0.706106 0.168622 0.076958
H32   H     H_    0.952150 0.807820 0.208035 0.152539
H33   H     H_    0.699140 0.785414 0.386452 0.187511
H34   H     H_    0.991924 0.253758 0.394681 0.015772
H35   H     H_    0.809575 0.858474 0.344119 0.226850
H36   H     H_    0.995771 0.878557 0.696319 0.305398
H37   H     H_    0.546463 0.077279 0.193419 0.300941
H38   H     H_    0.001084 0.983728 0.351302 0.359267
H39   H     H_    0.764032 0.840289 0.866153 0.284431
H40   H     H_    0.509767 0.557233 0.868798 0.316460
H41   H     H_    0.423305 0.440749 0.382638 0.256865
H42   H     H_    0.219193 0.104588 0.199922 0.188500
H43   H     H_    0.349244 0.107680 0.271495 0.264766
H44   H     H_    0.238063 0.872120 0.218650 0.209259
H45   H     H_    0.992039 0.168266 0.262292 0.106392
H46   H     H_    0.279775 0.776432 0.175684 0.159768
H47   H     H_    0.081918 0.348314 0.787623 0.123577
H48   H     H_    0.211129 0.335146 0.725157 0.243624
H49   H     H_    0.924544 0.988584 0.838476 0.367688
H50   H     H_    0.722196 0.065947 0.674433 0.261515
H51   H     H_    0.482197 0.055644 0.615814 0.131094
H52   H     H_    0.297254 0.077641 0.626314 0.254913
H53   H     H_    0.557636 0.556956 0.130387 0.215188
H54   H     H_    0.497363 0.657686 0.135779 0.170691
H55   H     H_    0.073759 0.962877 0.597685 0.303266
H56   H     H_    0.820312 0.633203 0.691764 0.012334
H57   H     H_    0.348900 0.983634 0.327787 0.309461
H58   H     H_    0.479151 0.786283 0.636135 0.137760
H59   H     H_    0.392362 0.681437 0.604435 0.142657
H60   H     H_    0.073313 0.798239 0.609565 0.186566
H61   H     H_    0.139555 0.708553 0.564998 0.205089
H62   H     H_    0.607384 0.614454 0.669534 0.063641
H63   H     H_    0.732919 0.890011 0.226424 0.135751
H64   H     H_    0.638158 0.770724 0.761188 0.082715
N1    N     N_3   0.690855 0.832767 0.351789 -0.441576
N2    N     N_3   0.261297 0.140295 0.249972 -0.445889
N3    N     N_3   0.191899 0.817508 0.180934 -0.478305
N4    N     N_3   0.088071 0.322148 0.734295 -0.510909
N5    N     N_3   0.395911 0.057367 0.652404 -0.520388
N6    N     N_3   0.458085 0.589302 0.125241 -0.494642
N7    N     N_3   0.411185 0.728556 0.649482 -0.454728
N8    N     N_3   0.174835 0.768912 0.597846 -0.534043
O1    O     O_2   0.860810 0.457220 0.330270 -0.387260
O2    O     O_2   0.176642 0.179912 0.538234 -0.445639
O3    O     O_3   0.119125 0.186160 0.670375 -0.578494
O4    O     O_3   0.115570 0.454630 0.416610 -0.514210
O5    O     O_3   0.584290 0.607440 0.536430 -0.500425
O6    O     O_2   0.331880 0.280530 0.464130 -0.435807
O7    O     O_3   0.500066 0.243475 0.350653 -0.650160
O8    O     O_2   0.449030 0.444331 0.749902 -0.475453
O9    O     O_3   0.511445 0.282446 0.745327 -0.614316
O10   O     O_3   0.655480 0.619980 0.374380 -0.438862
O11   O     O_2   0.724032 0.553885 0.248724 -0.427184
O12   O     O_3   0.734428 0.735696 0.648955 -0.616732
O13   O     O_3   0.007291 0.318586 0.305629 -0.640530
O14   O     O_3   0.697423 0.720414 0.257585 -0.641653
O15   O     O_2   0.857830 0.719490 0.535920 -0.453608
O16   O     O_3   0.080900 0.665060 0.409740 -0.513085
O17   O     O_2   0.004703 0.820252 0.459851 -0.439743
O18   O     O_2   0.193028 0.840550 0.832206 -0.488838
O19   O     O_R   0.007815 0.865026 0.747533 -0.716953
O20   O     O_2   0.742107 0.211655 0.197305 -0.568804
O21   O     O_R   0.623498 0.083246 0.237925 -0.745273
O22   O     O_2   0.789224 0.070163 0.375268 -0.581394
O23   O     O_3   0.102613 0.815033 0.332510 -0.616607
O24   O     O_R   0.010025 0.035695 0.322623 -0.717786
O25   O     O_2   0.935922 0.682185 0.818015 -0.573766
O26   O     O_R   0.857028 0.806131 0.868313 -0.663115
O27   O     O_2   0.423789 0.672551 0.805790 -0.584839
O28   O     O_R   0.601077 0.584749 0.841669 -0.749662
O29   O     O_2   0.567683 0.378831 0.243594 -0.551307
O30   O     O_R   0.506608 0.448080 0.346788 -0.699947
O31   O     O_2   0.093720 0.042672 0.750328 -0.567545
O32   O     O_R   0.944370 0.055917 0.845177 -0.687755
O33   O     O_2   0.577098 0.090370 0.820615 -0.533027
O34   O     O_2   0.328890 0.542810 0.669780 -0.468568
O35   O     O_R   0.716998 0.058441 0.726353 -0.719707
O36   O     O_2   0.971461 0.991387 0.483174 -0.567689
O37   O     O_R   0.993065 0.005432 0.603787 -0.735724
O38   O     O_2   0.294088 0.100363 0.413644 -0.556503
O39   O     O_R   0.449633 0.008012 0.360776 -0.711801
O40   O     O_3   0.074140 0.545440 0.583400 -0.510702
O41   O     O_3   0.534240 0.380100 0.625630 -0.497667
O42   O     O_3   0.164455 0.683080 0.694482 -0.588307
O43   O     O_3   0.605420 0.392640 0.463580 -0.468060
O44   O     O_3   0.108810 0.335010 0.590270 -0.476968
P1    P     P_3+3 0.028530 0.430100 0.340790 1.013758
P2    P     P_3+3 0.683360 0.705380 0.556640 0.979969
P3    P     P_3+3 0.131639 0.780685 0.416847 0.962916
P4    P     P_3+3 0.161190 0.569970 0.659220 1.040275
P5    P     P_3+3 0.060047 0.218967 0.587777 0.990223
P6    P     P_3+3 0.615792 0.617286 0.282444 0.998498
P7    P     P_3+3 0.510936 0.279638 0.442814 0.981394
P8    P     P_3+3 0.568469 0.387182 0.717615 0.952600

loop_
_geom_bond_atom_site_label_1
_geom_bond_atom_site_label_2
_ccdc_geom_bond_type
C44   O22   D    
H50   O35   S    
Ba1   P2    S    
C21   H24   S    
O11   P6    D    
O41   P8    S    
Ba1   O15   S    
O13   P1    S    
H57   O39   S    
H44   N3    S    
Ba1   O5    S    
C9    H17   S    
C53   H10   S    
C5    C6    A    
C24   P5    S    
H36   O19   S    
C4    H14   S    
C10   C11   A    
Ba1   O43   S    
C24   C25   A    
Ba2   O4    S    
H47   N4    S    
O40   P4    S    
C45   O3    S    
C26   C27   A    
C33   C35   A    
C22   C24   A    
C32   C33   A    
Ba2   O43   S    
C33   H28   S    
O7    P7    S    
C27   C52   S    
C41   C47   S    
C13   C14   A    
C10   C20   S    
Ba1   O40   S    
H61   N8    S    
C54   C55   S    
C49   O32   S    
C43   O20   D    
H39   O26   S    
C55   H15   S    
C23   C48   S    
C15   C17   A    
C8    H18   S    
C40   H56   S    
H38   O24   S    
H58   N7    S    
H40   O28   S    
C6    C7    A    
C2    P1    S    
O6    P7    D    
C40   O12   S    
C39   C44   S    
O15   P2    D    
C4    H25   S    
C15   C20   A    
C34   H5    S    
H59   N7    S    
C41   C46   S    
C45   H8    S    
H52   N5    S    
C34   H6    S    
C46   O26   S    
O43   P7    S    
H33   N1    S    
H41   O30   S    
C29   P7    S    
C52   O39   S    
C47   O27   D    
Ba1   O16   S    
C1    H7    S    
C1    C12   S    
C44   O24   S    
C17   P8    S    
H49   O32   S    
C6    N6    S    
O23   P3    S    
C1    H3    S    
C4    C16   S    
C12   O14   S    
H43   N2    S    
O4    P1    S    
H46   N3    S    
C31   P3    S    
C16   H32   S    
O14   P6    S    
O10   P6    S    
Ba2   O34   S    
C3    C5    A    
C54   O9    S    
O3    P5    S    
O12   P2    S    
C50   O33   D    
C48   O30   S    
C28   N8    S    
C19   H16   S    
C15   H22   S    
Ba2   O6    S    
C23   O7    S    
C39   H45   S    
O16   P3    S    
H42   N2    S    
C17   C21   A    
C55   N5    S    
H60   N8    S    
C42   O19   S    
C56   H26   S    
C50   O35   S    
O17   P3    D    
C18   C21   A    
C54   H13   S    
C37   H1    S    
C30   C35   A    
C38   H34   S    
C22   H30   S    
C41   H64   S    
C28   O42   S    
O9    P8    S    
Ba2   O40   S    
C38   C39   S    
C46   O25   D    
C7    C56   A    
C11   C13   A    
C47   O28   S    
H37   O21   S    
C40   C41   S    
C3    H19   S    
Ba1   O4    S    
C25   C26   A    
O34   P4    D    
C50   C55   S    
C45   N4    S    
C45   C53   S    
O42   P4    S    
H48   N4    S    
C11   H20   S    
Ba1   P1    S    
C12   N1    S    
C34   N2    S    
C23   C34   S    
C32   C36   A    
C16   H31   S    
C38   H23   S    
C5    C14   S    
H35   N1    S    
C52   O38   D    
C2    C3    A    
Ba1   O1    S    
H55   O37   S    
C53   H9    S    
C9    C10   A    
C25   C51   S    
C37   C42   S    
C13   H21   S    
C48   O29   D    
C28   N7    S    
C12   H2    S    
Ba2   O41   S    
Ba2   O5    S    
C36   H29   S    
C7    P6    S    
O5    P2    S    
C22   C29   A    
C27   C29   A    
C8    C14   A    
C30   C31   A    
C40   H62   S    
C26   C35   S    
C30   H27   S    
Ba1   Ba2   S    
O1    P1    D    
C16   N3    S    
C42   O18   D    
C37   H12   S    
H51   N5    S    
C28   C37   S    
C49   O31   D    
C49   C53   S    
C23   H4    S    
O8    P8    D    
H54   N6    S    
C4    O23   S    
C32   P2    S    
C8    C9    A    
Ba2   O44   S    
O2    P5    D    
C51   O36   D    
C18   C19   A    
C54   H11   S    
C38   O13   S    
C2    C56   A    
H53   N6    S    
C39   C43   S    
C31   C36   A    
Ba1   O10   S    
Ba2   P4    S    
C43   O21   S    
C19   C20   A    
O44   P5    S    
C18   P4    S    
C1    H63   S    
C51   O37   S    
