data_mof_unit_47458.cif
_audit_creation_date              2012-12-10T19:21:17-0500
_audit_creation_method            fapswitch 2.2
_symmetry_space_group_name_H-M    P1
_symmetry_Int_Tables_number       1
_space_group_crystal_system       triclinic
_cell_length_a                    15.736483
_cell_length_b                    14.944378
_cell_length_c                    19.038551
_cell_angle_alpha                 90.175468
_cell_angle_beta                  90.512092
_cell_angle_gamma                 90.492219
_cell_volume                      4476.96706608

loop_
_atom_site_label
_atom_site_type_symbol
_atom_type_description
_atom_site_fract_x
_atom_site_fract_y
_atom_site_fract_z
_atom_type_partial_charge
C1    C     C_R   0.337932 0.499612 0.499449 0.919652
C2    C     C_R   0.568014 0.496508 0.072116 0.282350
C3    C     C_R   0.516312 0.577919 0.822465 0.006694
C4    C     C_R   0.550673 0.418105 0.816242 0.007919
C5    C     C_R   0.502542 0.578004 0.750040 -0.245765
C6    C     C_R   0.533618 0.419599 0.744545 -0.249603
C7    C     C_R   0.510817 0.499183 0.711248 -0.065587
C8    C     C_R   0.541873 0.497725 0.855606 -0.005455
C9    C     C_3   0.047170 0.594838 0.511123 -0.126706
C10   C     C_3   0.047613 0.433384 0.564473 -0.127339
C11   C     C_3   0.949107 0.442427 0.566593 -0.460204
C12   C     C_3   0.948887 0.590782 0.509870 -0.458964
C13   C     C_1   0.750649 0.500145 0.501281 -0.200977
C14   C     C_3   0.082731 0.497302 0.505266 0.235392
C15   C     C_3   0.916878 0.492491 0.499876 0.262260
C16   C     C_R   0.503181 0.499884 0.364920 0.874211
C17   C     C_3   0.951916 0.441806 0.431201 0.065832
C18   C     C_3   0.050771 0.460372 0.432219 -0.501460
C19   C     C_1   0.825697 0.496601 0.500789 -0.097258
C20   C     C_1   0.174113 0.497801 0.502387 -0.117729
C21   C     C_1   0.249284 0.498584 0.500304 -0.202721
C22   C     C_3   0.411986 0.050750 0.485031 -0.421440
C23   C     C_3   0.413776 0.946470 0.482414 -0.408195
C24   C     C_3   0.529672 0.054439 0.575532 -0.143814
C25   C     C_3   0.526287 0.947993 0.577493 -0.151327
C26   C     C_3   0.501772 0.090151 0.501349 0.223642
C27   C     C_3   0.503374 0.909995 0.502175 0.219911
C28   C     C_3   0.566003 0.949160 0.446944 -0.390024
C29   C     C_3   0.561544 0.053170 0.443982 -0.379920
C30   C     C_1   0.500329 0.809314 0.499886 -0.017324
C31   C     C_1   0.499662 0.190732 0.499507 -0.003079
C32   C     C_R   0.662141 0.500295 0.500812 0.920781
C33   C     C_R   0.500955 0.499998 0.635271 0.877944
C34   C     C_R   0.529562 0.580576 0.254001 -0.238273
C35   C     C_R   0.542243 0.419293 0.256619 -0.240177
C36   C     C_R   0.553686 0.581903 0.183818 0.004344
C37   C     C_R   0.566524 0.418445 0.186436 0.013635
C38   C     C_R   0.568894 0.499982 0.148762 -0.020808
C39   C     C_R   0.522072 0.499660 0.290080 -0.066781
C40   C     C_R   0.553989 0.495478 0.931239 0.272195
H1    H     H_    0.516997 0.643336 0.280540 0.161816
H2    H     H_    0.540852 0.356952 0.285562 0.158551
H3    H     H_    0.478512 0.076042 0.611864 0.095746
H4    H     H_    0.469662 0.930150 0.609608 0.109553
H5    H     H_    0.537357 0.073396 0.391294 0.166339
H6    H     H_    0.549939 0.921409 0.394114 0.167486
H7    H     H_    0.626013 0.083259 0.448684 0.152289
H8    H     H_    0.632341 0.929473 0.457945 0.149121
H9    H     H_    0.388180 0.076591 0.433803 0.172678
H10   H     H_    0.395548 0.923433 0.428651 0.174938
H11   H     H_    0.483522 0.639302 0.724175 0.162728
H12   H     H_    0.541560 0.358813 0.714199 0.157651
H13   H     H_    0.922072 0.618109 0.559112 0.169307
H14   H     H_    0.929587 0.479031 0.614749 0.173987
H15   H     H_    0.060940 0.364730 0.545761 0.145053
H16   H     H_    0.064801 0.630053 0.461814 0.118224
H17   H     H_    0.918968 0.375095 0.570906 0.174857
H18   H     H_    0.921581 0.637188 0.470845 0.158043
H19   H     H_    0.068360 0.510198 0.391532 0.165007
H20   H     H_    0.088799 0.403690 0.413628 0.163165
N1    N     N_R   0.514011 0.438620 0.039313 -0.157254
N2    N     N_R   0.615718 0.553346 0.033259 -0.177474
N3    N     N_R   0.507248 0.437879 0.969921 -0.164976
N4    N     N_R   0.608682 0.553022 0.963674 -0.166717
N5    N     N_1   0.498630 0.731150 0.498610 -0.087766
N6    N     N_1   0.498630 0.268850 0.498610 -0.088010
O1    O     O_R   0.377210 0.574260 0.500070 -0.612060
O2    O     O_R   0.377210 0.425740 0.500070 -0.607705
O3    O     O_R   0.500060 0.574250 0.398210 -0.617342
O4    O     O_R   0.500060 0.425750 0.398210 -0.619755
O5    O     O_R   0.622930 0.574200 0.500080 -0.609384
O6    O     O_R   0.622930 0.425800 0.500080 -0.611469
O7    O     O_R   0.500080 0.574210 0.601940 -0.613462
O8    O     O_R   0.500080 0.425790 0.601940 -0.617190
Zn1   Zn    Zn3+2 0.500090 0.599130 0.500100 0.963801
Zn2   Zn    Zn3+2 0.500090 0.400870 0.500100 0.963470
C41   C     C_R   0.915237 0.478612 0.359788 0.113073
C42   C     C_R   0.925118 0.569686 0.340566 -0.156541
C43   C     C_R   0.889024 0.603707 0.278938 -0.140355
C44   C     C_R   0.845302 0.547297 0.232713 -0.102974
C45   C     C_R   0.840746 0.456171 0.246655 -0.131122
C46   C     C_R   0.876869 0.421842 0.308103 -0.169315
H21   H     H_    0.964804 0.614966 0.370128 0.112457
H22   H     H_    0.896757 0.673862 0.266278 0.121237
H23   H     H_    0.817859 0.573570 0.184800 0.114485
H24   H     H_    0.810405 0.411435 0.209167 0.125265
H25   H     H_    0.875510 0.350010 0.312810 0.143613
C47   C     C_R   0.928749 0.338709 0.437815 0.097585
C48   C     C_R   0.841880 0.311509 0.437687 -0.172801
C49   C     C_R   0.817346 0.221976 0.444189 -0.120790
C50   C     C_R   0.878383 0.155915 0.450894 -0.132144
C51   C     C_R   0.964051 0.179371 0.451360 -0.143994
C52   C     C_R   0.989310 0.268896 0.444848 -0.166771
H26   H     H_    0.791864 0.358691 0.427994 0.150684
H27   H     H_    0.750604 0.203785 0.443007 0.132802
H28   H     H_    0.859290 0.086442 0.455547 0.114999
H29   H     H_    0.011506 0.127778 0.456908 0.124974
H30   H     H_    0.056792 0.279677 0.446868 0.116173
H31   H     H_    0.365076 0.919082 0.518743 0.154631
H32   H     H_    0.366287 0.072821 0.525715 0.161940
C53   C     C_R   0.611573 0.099162 0.603458 0.139829
C54   C     C_R   0.606039 0.166005 0.655690 -0.170877
C55   C     C_R   0.679254 0.207725 0.682608 -0.111962
C56   C     C_R   0.759088 0.183100 0.658335 -0.107610
C57   C     C_R   0.765851 0.116719 0.607083 -0.138423
C58   C     C_R   0.692828 0.075543 0.579272 -0.122948
H33   H     H_    0.544896 0.186291 0.675622 0.112158
H34   H     H_    0.674160 0.259017 0.722523 0.139261
H35   H     H_    0.815754 0.215153 0.679478 0.117056
H36   H     H_    0.827920 0.096764 0.589143 0.131243
H37   H     H_    0.700546 0.023652 0.540417 0.123435
C59   C     C_R   0.599208 0.904912 0.619328 0.120751
C60   C     C_R   0.605735 0.924658 0.691718 -0.138016
C61   C     C_R   0.671853 0.890247 0.732651 -0.141412
C62   C     C_R   0.731383 0.833503 0.702660 -0.119901
C63   C     C_R   0.725160 0.811488 0.631568 -0.135544
C64   C     C_R   0.659899 0.846759 0.590037 -0.139563
H38   H     H_    0.560051 0.968305 0.716309 0.113004
H39   H     H_    0.676867 0.907493 0.787772 0.118854
H40   H     H_    0.782272 0.806454 0.734537 0.122477
H41   H     H_    0.771243 0.767098 0.608421 0.127270
H42   H     H_    0.658419 0.827486 0.535573 0.121101
C65   C     C_R   0.559340 0.670027 0.148871 0.129617
C66   C     C_R   0.638881 0.706063 0.130792 -0.115507
C67   C     C_R   0.644620 0.791414 0.101220 -0.129255
C68   C     C_R   0.571289 0.841949 0.090832 -0.100157
C69   C     C_R   0.492094 0.807097 0.109863 -0.139272
C70   C     C_R   0.485964 0.721341 0.138641 -0.161071
H43   H     H_    0.696244 0.668123 0.139755 0.114899
H44   H     H_    0.705982 0.818665 0.086897 0.118267
H45   H     H_    0.575832 0.908187 0.068242 0.108042
H46   H     H_    0.435391 0.846472 0.102129 0.114076
H47   H     H_    0.424285 0.695133 0.153365 0.123063
C71   C     C_R   0.590104 0.331595 0.153901 0.129591
C72   C     C_R   0.536486 0.256264 0.159996 -0.148584
C73   C     C_R   0.559366 0.174516 0.129962 -0.136962
C74   C     C_R   0.636123 0.167017 0.094205 -0.100274
C75   C     C_R   0.690053 0.241303 0.088301 -0.120575
C76   C     C_R   0.667062 0.323396 0.117569 -0.145119
H48   H     H_    0.476683 0.261022 0.187412 0.122360
H49   H     H_    0.517650 0.116902 0.134540 0.119641
H50   H     H_    0.653871 0.103627 0.071185 0.107803
H51   H     H_    0.749837 0.235253 0.061159 0.113553
H52   H     H_    0.709502 0.380345 0.112370 0.112015
C77   C     C_R   0.498763 0.661220 0.862106 0.122473
C78   C     C_R   0.541355 0.741194 0.845186 -0.150046
C79   C     C_R   0.521926 0.820687 0.880264 -0.142117
C80   C     C_R   0.459541 0.821021 0.931987 -0.103641
C81   C     C_R   0.416771 0.741801 0.949051 -0.117574
C82   C     C_R   0.436088 0.662165 0.914239 -0.132685
H53   H     H_    0.589400 0.741783 0.804841 0.140366
H54   H     H_    0.554802 0.882193 0.867168 0.113803
H55   H     H_    0.444350 0.882692 0.958859 0.109872
H56   H     H_    0.368317 0.742189 0.989035 0.119225
H57   H     H_    0.401398 0.601612 0.927175 0.126196
C83   C     C_R   0.581466 0.333298 0.847389 0.120050
C84   C     C_R   0.533422 0.254056 0.839756 -0.160662
C85   C     C_R   0.564595 0.173147 0.865659 -0.133507
C86   C     C_R   0.644111 0.170586 0.898788 -0.099026
C87   C     C_R   0.692555 0.248927 0.906079 -0.130243
C88   C     C_R   0.661392 0.330084 0.880737 -0.145521
H58   H     H_    0.472077 0.254958 0.813526 0.124481
H59   H     H_    0.527369 0.112322 0.859610 0.116101
H60   H     H_    0.668363 0.107845 0.918507 0.107638
H61   H     H_    0.754604 0.246681 0.930905 0.114282
H62   H     H_    0.700189 0.389996 0.885860 0.126276
C89   C     C_R   0.084903 0.652915 0.570194 0.131759
C90   C     C_R   0.052701 0.652883 0.639219 -0.137847
C91   C     C_R   0.089801 0.706946 0.691338 -0.148520
C92   C     C_R   0.159282 0.761743 0.675665 -0.124128
C93   C     C_R   0.191872 0.762728 0.607765 -0.131515
C94   C     C_R   0.154959 0.709032 0.555381 -0.172226
H63   H     H_    0.000884 0.609328 0.654089 0.126611
H64   H     H_    0.065097 0.705616 0.744203 0.129185
H65   H     H_    0.188089 0.803189 0.716225 0.122866
H66   H     H_    0.245955 0.805026 0.595673 0.122271
H67   H     H_    0.181807 0.710609 0.503211 0.125231
C95   C     C_R   0.086438 0.432113 0.639053 0.119450
C96   C     C_R   0.156150 0.485258 0.662089 -0.114553
C97   C     C_R   0.189014 0.477051 0.730211 -0.148407
C98   C     C_R   0.154174 0.415031 0.776497 -0.115257
C99   C     C_R   0.086561 0.360639 0.754645 -0.137704
C100  C     C_R   0.053455 0.368570 0.686632 -0.174231
H68   H     H_    0.185936 0.534463 0.629385 0.154042
H69   H     H_    0.241868 0.518977 0.747078 0.134924
H70   H     H_    0.179883 0.408791 0.829157 0.124800
H71   H     H_    0.059950 0.311820 0.790310 0.123512
H72   H     H_    0.001858 0.324256 0.670939 0.121477

loop_
_geom_bond_atom_site_label_1
_geom_bond_atom_site_label_2
_ccdc_geom_bond_type
C94   H67   S    
C31   N6    T    
C23   H31   S    
C57   H36   S    
C1    C21   S    
C68   C69   A    
C17   C47   S    
O7    Zn1   S    
C91   C92   A    
C14   C18   S    
C13   C32   S    
C79   C80   A    
C71   C76   A    
C4    C8    A    
C95   C96   A    
C49   C50   A    
C72   C73   A    
C32   O6    A    
C41   C42   A    
C15   C19   S    
C28   H6    S    
C37   C38   A    
C40   N3    A    
O8    Zn2   S    
C57   C58   A    
C29   H7    S    
C41   C46   A    
C83   C84   A    
C35   C37   A    
C24   C26   S    
C78   C79   A    
C75   H51   S    
C56   H35   S    
C92   C93   A    
C62   C63   A    
C1    O2    A    
C63   C64   A    
C24   C53   S    
C48   H26   S    
N1    N3    A    
C35   H2    S    
C69   H46   S    
C56   C57   A    
N2    N4    A    
C55   C56   A    
C25   C59   S    
C50   H28   S    
C99   C100  A    
C11   C15   S    
C67   H44   S    
C84   C85   A    
C100  H72   S    
C91   H64   S    
C55   H34   S    
C23   C27   S    
C45   H24   S    
C2    N1    A    
O6    Zn2   S    
C92   H65   S    
C12   H18   S    
C47   C48   A    
C74   C75   A    
C18   H19   S    
C26   C31   S    
C81   H56   S    
C27   C30   S    
C7    C33   S    
C90   H63   S    
C34   H1    S    
C70   H47   S    
C42   H21   S    
C25   H4    S    
C59   C60   A    
C51   H29   S    
C77   C78   A    
C32   O5    A    
C58   H37   S    
C72   H48   S    
C74   H50   S    
C22   H32   S    
C63   H41   S    
C13   C19   T    
C34   C39   A    
C10   C95   S    
C53   C54   A    
C14   C20   S    
C65   C66   A    
C36   C65   S    
C16   O4    A    
C24   C25   S    
C4    C6    A    
C3    C8    A    
C97   H69   S    
C89   C90   A    
C5    C7    A    
C9    C14   S    
C42   C43   A    
C73   C74   A    
C23   H10   S    
C16   C39   S    
C98   C99   A    
C45   C46   A    
C78   H53   S    
C29   H5    S    
C95   C100  A    
C35   C39   A    
C64   H42   S    
C44   H23   S    
C76   H52   S    
C2    C38   S    
C86   C87   A    
C86   H60   S    
C12   C15   S    
C9    C89   S    
N6    Zn2   S    
C17   C41   S    
C17   C18   S    
C54   H33   S    
C9    H16   S    
C87   H61   S    
C80   C81   A    
C10   H15   S    
C11   H14   S    
C93   C94   A    
C6    C7    A    
C12   H13   S    
C85   H59   S    
C22   H9    S    
C33   O7    A    
C90   C91   A    
C4    C83   S    
C83   C88   A    
C3    C77   S    
C82   H57   S    
C10   C14   S    
C85   C86   A    
C43   C44   A    
O1    Zn1   S    
C80   H55   S    
O4    Zn2   S    
C69   C70   A    
C28   C29   S    
C50   C51   A    
C97   C98   A    
C60   C61   A    
C96   H68   S    
C18   H20   S    
C53   C58   A    
C15   C17   S    
C47   C52   A    
C28   H8    S    
C43   H22   S    
C22   C23   S    
C16   O3    A    
C77   C82   A    
C44   C45   A    
C3    C5    A    
N5    Zn1   S    
C98   H70   S    
C61   C62   A    
C89   C94   A    
C96   C97   A    
O2    Zn2   S    
C93   H66   S    
C71   C72   A    
C40   N4    A    
C59   C64   A    
C10   C11   S    
C87   C88   A    
C36   C38   A    
C79   H54   S    
C81   C82   A    
O5    Zn1   S    
C65   C70   A    
C67   C68   A    
C61   H39   S    
C68   H45   S    
C84   H58   S    
C51   C52   A    
C1    O1    A    
C73   H49   S    
C66   H43   S    
O3    Zn1   S    
C34   C36   A    
C99   H71   S    
C54   C55   A    
C9    C12   S    
C30   N5    T    
C75   C76   A    
C88   H62   S    
C60   H38   S    
C2    N2    A    
C33   O8    A    
C20   C21   T    
C26   C29   S    
C62   H40   S    
C22   C26   S    
C27   C28   S    
C24   H3    S    
C37   C71   S    
C5    H11   S    
C8    C40   S    
C6    H12   S    
C48   C49   A    
C11   H17   S    
C52   H30   S    
C49   H27   S    
C46   H25   S    
C66   C67   A    
C25   C27   S    
