data_mof_unit_58626.cif
_audit_creation_date              2012-10-26T20:12:45-0400
_audit_creation_method            fapswitch 2.2
_symmetry_space_group_name_H-M    P1
_symmetry_Int_Tables_number       1
_space_group_crystal_system       triclinic
_cell_length_a                    15.117579
_cell_length_b                    14.043548
_cell_length_c                    10.85747
_cell_angle_alpha                 92.527576
_cell_angle_beta                  93.297559
_cell_angle_gamma                 90.878491
_cell_volume                      2298.66467326

loop_
_atom_site_label
_atom_site_type_symbol
_atom_type_description
_atom_site_fract_x
_atom_site_fract_y
_atom_site_fract_z
_atom_type_partial_charge
C1    C     C_R   0.330275 0.499571 0.498148 0.577224
C2    C     C_R   0.430279 0.789297 0.443974 0.186291
C3    C     C_R   0.437855 0.203907 0.428150 0.196917
C4    C     C_R   0.570796 0.796189 0.551677 0.173021
C5    C     C_R   0.502179 0.054343 0.495828 -0.007597
C6    C     C_R   0.501528 0.945834 0.494597 -0.013433
C7    C     C_R   0.508367 0.497523 0.263031 0.629105
C8    C     C_R   0.501670 0.501679 0.737582 0.641642
C9    C     C_R   0.655104 0.602704 0.137424 0.176993
C10   C     C_R   0.369457 0.404236 0.873015 0.203384
C11   C     C_R   0.665735 0.563450 0.883136 0.223174
C12   C     C_R   0.669807 0.500394 0.495379 0.604699
C13   C     C_R   0.451385 0.328479 0.084022 0.248830
C14   C     C_R   0.727618 0.638228 0.074813 0.274659
C15   C     C_R   0.332804 0.321437 0.922306 0.284545
C16   C     C_R   0.733067 0.617968 0.948932 0.357033
C17   C     C_R   0.379171 0.278212 0.019394 0.303284
C18   C     C_R   0.586672 0.539096 0.940543 -0.081097
C19   C     C_R   0.470622 0.423140 0.053349 -0.041703
C20   C     C_R   0.586714 0.546814 0.071407 -0.029917
C21   C     C_R   0.446770 0.447492 0.933031 -0.025173
C22   C     C_R   0.508605 0.502794 0.872620 0.044805
C23   C     C_R   0.048812 0.502634 0.485506 0.030107
C24   C     C_R   0.523288 0.489554 0.129150 0.055145
C25   C     C_R   0.098508 0.568113 0.563990 -0.105223
C26   C     C_R   0.903881 0.415687 0.477503 -0.107141
C27   C     C_R   0.905741 0.588411 0.484511 -0.116454
C28   C     C_R   0.092593 0.436403 0.411236 -0.108633
C29   C     C_R   0.190665 0.566901 0.568305 -0.089178
C30   C     C_R   0.812020 0.415179 0.478148 -0.105535
C31   C     C_R   0.813815 0.587678 0.486083 -0.116359
C32   C     C_R   0.184561 0.434884 0.416537 -0.114925
C33   C     C_R   0.233903 0.499541 0.495427 0.025628
C34   C     C_R   0.951541 0.502350 0.482363 0.034053
C35   C     C_R   0.766368 0.501181 0.486871 0.050518
C36   C     C_2   0.618335 0.261311 0.670767 0.603459
C37   C     C_2   0.353858 0.740161 0.377577 0.613515
C38   C     C_2   0.357619 0.242924 0.366010 0.576966
C39   C     C_2   0.644173 0.757254 0.626968 0.597258
C40   C     C_R   0.559926 0.110742 0.575847 -0.120123
C41   C     C_R   0.428646 0.889910 0.446638 -0.123287
C42   C     C_R   0.442018 0.103646 0.420892 -0.125452
C43   C     C_R   0.573736 0.896096 0.543372 -0.129279
C44   C     C_R   0.559003 0.211303 0.576431 0.197955
Cu1   Cu    Cu3+1 0.500000 0.596430 0.500000 1.108476
Cu2   Cu    Cu3+1 0.500000 0.403570 0.500000 1.094583
H1    H     H_    0.066161 0.619196 0.623150 0.135399
H2    H     H_    0.369683 0.923120 0.408974 0.141348
H3    H     H_    0.395977 0.064903 0.356600 0.135215
H4    H     H_    0.632516 0.934748 0.579910 0.150535
H5    H     H_    0.376875 0.173245 0.131586 0.327334
H6    H     H_    0.804823 0.629630 0.805657 0.357353
H7    H     H_    0.215184 0.328447 0.842807 0.326586
H8    H     H_    0.804536 0.667182 0.222354 0.329457
H9    H     H_    0.672711 0.687168 0.282076 0.334697
H10   H     H_    0.298246 0.393810 0.718225 0.339428
H11   H     H_    0.664660 0.458475 0.764187 0.335687
H12   H     H_    0.937651 0.348238 0.475152 0.130907
H13   H     H_    0.512220 0.214911 0.136865 0.323263
H14   H     H_    0.742772 0.306421 0.721985 0.338412
H15   H     H_    0.221361 0.718754 0.364565 0.345156
H16   H     H_    0.227211 0.221728 0.318094 0.341310
H17   H     H_    0.774845 0.764030 0.677604 0.347949
H18   H     H_    0.940943 0.656138 0.484149 0.135321
H19   H     H_    0.055760 0.386747 0.347770 0.127169
H20   H     H_    0.228223 0.617671 0.629442 0.171047
H21   H     H_    0.777063 0.347323 0.471632 0.189977
H22   H     H_    0.780018 0.654686 0.485581 0.174735
H23   H     H_    0.216910 0.385405 0.356151 0.163311
H24   H     H_    0.604554 0.077878 0.642084 0.123407
N1    N     N_R   0.500000 0.258690 0.500000 -0.270324
N2    N     N_R   0.500000 0.741310 0.500000 -0.277592
O1    O     O_R   0.371460 0.581430 0.500010 -0.496951
O2    O     O_3   0.809047 0.647256 0.895080 -0.620363
O3    O     O_3   0.254736 0.278471 0.874720 -0.622824
O4    O     O_3   0.798643 0.686702 0.135813 -0.629578
O5    O     O_3   0.652709 0.620367 0.262420 -0.702009
O6    O     O_3   0.331519 0.444026 0.769171 -0.710617
O7    O     O_3   0.683502 0.526381 0.767996 -0.697579
O8    O     O_3   0.511223 0.283502 0.161890 -0.659555
O9    O     O_2   0.592355 0.278905 0.773738 -0.524872
O10   O     O_R   0.707211 0.276256 0.647960 -0.718435
O11   O     O_2   0.363883 0.691225 0.283827 -0.487220
O12   O     O_R   0.628540 0.418570 0.499990 -0.510289
O13   O     O_R   0.268856 0.755043 0.418134 -0.701064
O14   O     O_2   0.361559 0.312722 0.304104 -0.500512
O15   O     O_R   0.276627 0.194094 0.371732 -0.703205
O16   O     O_2   0.628607 0.704050 0.708505 -0.457259
O17   O     O_R   0.730622 0.791258 0.615509 -0.732646
O18   O     O_R   0.628540 0.581430 0.499990 -0.464024
O19   O     O_R   0.371460 0.418570 0.500010 -0.480990
O20   O     O_R   0.499990 0.581440 0.319660 -0.434609
O21   O     O_R   0.500010 0.418560 0.680340 -0.482864
O22   O     O_R   0.500010 0.581440 0.680340 -0.444780
O23   O     O_R   0.499990 0.418560 0.319660 -0.427631
O24   O     O_3   0.349535 0.189330 0.050561 -0.619972

loop_
_geom_bond_atom_site_label_1
_geom_bond_atom_site_label_2
_ccdc_geom_bond_type
C15   O3    S    
C5    C42   A    
C3    C42   A    
H11   O7    S    
C10   O6    S    
C1    C33   S    
C11   C18   A    
Cu1   Cu2   S    
C40   H24   S    
C30   C35   A    
C38   O14   D    
C16   O2    S    
C37   O13   S    
C19   C21   A    
H6    O2    S    
C10   C15   A    
C5    C6    S    
H15   O13   S    
C2    C41   A    
C7    C24   S    
C29   C33   A    
H10   O6    S    
C12   O12   A    
C44   N1    A    
Cu1   O1    S    
Cu1   O20   S    
H14   O10   S    
C26   C34   A    
Cu2   O23   S    
C20   C24   A    
C3    C38   S    
C36   O10   S    
C6    C41   A    
C8    C22   S    
C25   H1    S    
C18   C20   A    
C30   H21   S    
H5    O24   S    
C13   O8    S    
C27   C34   A    
C21   C22   A    
Cu1   N2    S    
H7    O3    S    
C39   O16   D    
C2    N2    A    
Cu1   O22   S    
C10   C21   A    
C25   C29   A    
C31   H22   S    
C13   C19   A    
C27   C31   A    
C28   C32   A    
C8    O22   A    
Cu2   O19   S    
H8    O4    S    
C14   O4    S    
C3    N1    A    
C9    C14   A    
C11   C16   A    
C9    C20   A    
C4    C39   S    
C36   O9    D    
C23   C34   S    
H17   O17   S    
C17   O24   S    
C9    O5    S    
C23   C28   A    
C12   C35   S    
Cu1   O18   S    
C26   H12   S    
Cu2   N1    S    
C11   O7    S    
Cu2   O12   S    
C26   C30   A    
C6    C43   A    
C31   C35   A    
C36   C44   S    
C4    N2    A    
C12   O18   A    
C15   C17   A    
C18   C22   A    
C8    O21   A    
H13   O8    S    
C43   H4    S    
C32   H23   S    
C4    C43   A    
C7    O23   A    
H16   O15   S    
C13   C17   A    
C38   O15   S    
C1    O1    A    
C32   C33   A    
C28   H19   S    
C2    C37   S    
Cu2   O21   S    
H9    O5    S    
C7    O20   A    
C41   H2    S    
C19   C24   A    
C14   C16   A    
C23   C25   A    
C27   H18   S    
C42   H3    S    
C29   H20   S    
C40   C44   A    
C1    O19   A    
C5    C40   A    
C37   O11   D    
C39   O17   S    
