data_mof_unit_43270.cif
_audit_creation_date              2012-12-10T19:01:52-0500
_audit_creation_method            fapswitch 2.2
_symmetry_space_group_name_H-M    P1
_symmetry_Int_Tables_number       1
_space_group_crystal_system       triclinic
_cell_length_a                    24.366295
_cell_length_b                    24.391991
_cell_length_c                    25.790349
_cell_angle_alpha                 90.000856
_cell_angle_beta                  89.956654
_cell_angle_gamma                 89.962038
_cell_volume                      15328.2914155

loop_
_atom_site_label
_atom_site_type_symbol
_atom_type_description
_atom_site_fract_x
_atom_site_fract_y
_atom_site_fract_z
_atom_type_partial_charge
C1    C     C_R   0.232663 0.274862 0.247577 0.039296
C2    C     C_R   0.228138 0.729015 0.251051 0.041778
C3    C     C_R   0.394725 0.105072 0.749892 0.511767
C4    C     C_R   0.895018 0.394924 0.250103 0.503969
C5    C     C_R   0.104942 0.605271 0.749677 0.506414
C6    C     C_R   0.395000 0.105126 0.249976 0.511915
C7    C     C_R   0.604862 0.894664 0.750315 0.501486
C8    C     C_R   0.894629 0.605088 0.750182 0.513473
C9    C     C_R   0.105355 0.394984 0.249851 0.502484
C10   C     C_R   0.394781 0.894927 0.749938 0.506012
C11   C     C_R   0.605361 0.105135 0.250144 0.509319
C12   C     C_R   0.105023 0.394788 0.749878 0.499526
C13   C     C_R   0.722628 0.765958 0.756105 0.055247
C14   C     C_R   0.894700 0.605067 0.249898 0.512578
C15   C     C_R   0.605009 0.105253 0.750218 0.506239
C16   C     C_R   0.394737 0.894947 0.250178 0.507303
C17   C     C_R   0.195028 0.278317 0.205644 0.250430
C18   C     C_R   0.819397 0.737446 0.775300 0.254513
C19   C     C_R   0.278567 0.805187 0.206432 0.234301
C20   C     C_R   0.740657 0.176053 0.766655 0.249817
C21   C     C_R   0.803951 0.718952 0.202605 0.236372
C22   C     C_R   0.170349 0.255772 0.758649 0.245346
C23   C     C_R   0.734692 0.182639 0.218039 0.229928
C24   C     C_R   0.274233 0.230987 0.249464 0.033473
C25   C     C_R   0.256909 0.827668 0.762957 0.248707
C26   C     C_R   0.800961 0.283579 0.797023 0.235661
C27   C     C_R   0.172701 0.743055 0.240806 0.248476
C28   C     C_R   0.706152 0.792094 0.802335 0.246257
C29   C     C_R   0.258322 0.175350 0.243821 0.247713
C30   C     C_R   0.195697 0.720581 0.792258 0.235057
C31   C     C_R   0.829740 0.256418 0.259776 0.259335
C32   C     C_R   0.277016 0.194324 0.791536 0.236083
C33   C     C_R   0.740578 0.823754 0.235552 0.249110
C34   C     C_R   0.698276 0.780800 0.708419 0.231438
C35   C     C_R   0.225795 0.731214 0.746289 0.031521
C36   C     C_R   0.330426 0.244297 0.255949 0.249838
C37   C     C_R   0.778823 0.304445 0.706397 0.242878
C38   C     C_R   0.242356 0.673571 0.260874 0.248689
C39   C     C_R   0.300664 0.215885 0.701260 0.249809
C40   C     C_R   0.669258 0.755071 0.252464 0.248316
C41   C     C_R   0.215515 0.699535 0.701192 0.244253
C42   C     C_R   0.758166 0.325514 0.245215 0.256686
C43   C     C_R   0.304628 0.779059 0.294755 0.234477
C44   C     C_R   0.671612 0.243561 0.739643 0.246015
C45   C     C_R   0.228072 0.311851 0.289609 0.234350
C46   C     C_R   0.773576 0.269976 0.252898 0.043543
C47   C     C_R   0.755665 0.670968 0.737683 0.257124
C48   C     C_R   0.686579 0.230190 0.288091 0.233605
C49   C     C_R   0.323571 0.759862 0.731587 0.248664
C50   C     C_R   0.773056 0.690794 0.288988 0.242241
C51   C     C_R   0.240413 0.323327 0.734459 0.243388
C52   C     C_R   0.152393 0.316335 0.208030 -0.132227
C53   C     C_R   0.860514 0.697626 0.774271 -0.131276
C54   C     C_R   0.317811 0.846565 0.207668 -0.138671
C55   C     C_R   0.699978 0.135992 0.767391 -0.133403
C56   C     C_R   0.846406 0.680904 0.205511 -0.137756
C57   C     C_R   0.267415 0.224944 0.745633 0.036745
C58   C     C_R   0.131830 0.297861 0.761371 -0.146468
C59   C     C_R   0.693821 0.142625 0.217908 -0.141967
C60   C     C_R   0.298965 0.866121 0.766128 -0.141918
C61   C     C_R   0.843320 0.321756 0.795134 -0.134060
C62   C     C_R   0.133248 0.701813 0.238958 -0.146415
C63   C     C_R   0.669101 0.836014 0.799606 -0.147749
C64   C     C_R   0.298571 0.134876 0.241250 -0.132556
C65   C     C_R   0.154976 0.680739 0.792102 -0.141910
C66   C     C_R   0.869217 0.297530 0.255894 -0.133856
C67   C     C_R   0.317563 0.154115 0.791846 -0.133628
C68   C     C_R   0.725182 0.768284 0.243563 0.041540
C69   C     C_R   0.700370 0.864305 0.235443 -0.141648
C70   C     C_R   0.658762 0.822080 0.707298 -0.142874
C71   C     C_R   0.369077 0.202357 0.258287 -0.134344
C72   C     C_R   0.818998 0.345070 0.706824 -0.135664
C73   C     C_R   0.201182 0.634095 0.262998 -0.142419
C74   C     C_R   0.343488 0.178135 0.704097 -0.132278
C75   C     C_R   0.630879 0.797161 0.256624 -0.147282
C76   C     C_R   0.177329 0.657099 0.703474 -0.132149
C77   C     C_R   0.798166 0.366251 0.247179 -0.133640
C78   C     C_R   0.345934 0.818526 0.293709 -0.134913
C79   C     C_R   0.148824 0.353642 0.249016 -0.064210
C80   C     C_R   0.632797 0.201780 0.737474 -0.148129
C81   C     C_R   0.187468 0.351966 0.288967 -0.146148
C82   C     C_R   0.798492 0.633389 0.733247 -0.140140
C83   C     C_R   0.645056 0.191007 0.285839 -0.141679
C84   C     C_R   0.363513 0.800638 0.730823 -0.132982
C85   C     C_R   0.813791 0.650648 0.289452 -0.132863
C86   C     C_R   0.200271 0.363937 0.734836 -0.149833
C87   C     C_3   0.800813 0.425945 0.440164 -0.282795
C88   C     C_3   0.762317 0.475064 0.435287 -0.420884
C89   C     C_3   0.198743 0.416365 0.555585 -0.290513
C90   C     C_R   0.850814 0.646189 0.752020 -0.066995
C91   C     C_3   0.196887 0.420649 0.614634 -0.432630
C92   C     C_3   0.582131 0.195784 0.438839 -0.291040
C93   C     C_3   0.533022 0.218149 0.408798 -0.426624
C94   C     C_3   0.593985 0.807928 0.559779 -0.285529
C95   C     C_3   0.549136 0.784585 0.594799 -0.419039
C96   C     C_3   0.194845 0.415698 0.439319 -0.286275
C97   C     C_3   0.216660 0.464120 0.407959 -0.426139
C98   C     C_3   0.799499 0.430731 0.559161 -0.281422
C99   C     C_3   0.783022 0.481259 0.590583 -0.424552
C100  C     C_3   0.590842 0.803645 0.443466 -0.292695
C101  C     C_R   0.352172 0.852804 0.250598 -0.062608
C102  C     C_3   0.586264 0.805372 0.384336 -0.437084
C103  C     C_3   0.581837 0.200046 0.555218 -0.290522
C104  C     C_3   0.577742 0.198399 0.614325 -0.436004
C105  C     C_3   0.306508 0.913941 0.940720 -0.278898
C106  C     C_3   0.264977 0.960740 0.938533 -0.419873
C107  C     C_3   0.703981 0.952526 0.061930 -0.287564
C108  C     C_3   0.716752 0.007260 0.087957 -0.424703
C109  C     C_3   0.086807 0.693826 0.939263 -0.285314
C110  C     C_3   0.040839 0.714112 0.903857 -0.422658
C111  C     C_3   0.065882 0.299339 0.060165 -0.285469
C112  C     C_R   0.766274 0.724100 0.757044 0.065788
C113  C     C_R   0.646625 0.148218 0.751390 -0.067629
C114  C     C_3   0.013589 0.282663 0.088740 -0.420684
C115  C     C_3   0.708985 0.962449 0.945779 -0.292489
C116  C     C_3   0.706176 0.977949 0.888294 -0.425636
C117  C     C_3   0.307233 0.911140 0.059661 -0.284220
C118  C     C_3   0.286877 0.957287 0.094874 -0.423287
C119  C     C_3   0.066900 0.296221 0.943709 -0.291240
C120  C     C_3   0.065591 0.299290 0.884496 -0.437322
C121  C     C_3   0.080101 0.699256 0.055422 -0.294083
C122  C     C_3   0.076078 0.697383 0.114568 -0.433930
C123  C     C_3   0.239733 0.250199 0.130846 0.022840
C124  C     C_R   0.851281 0.646403 0.248528 -0.066267
C125  C     C_3   0.234862 0.304048 0.100300 -0.292302
C126  C     C_3   0.283370 0.311064 0.063517 -0.493517
C127  C     C_3   0.840331 0.828464 0.761971 0.015933
C128  C     C_3   0.898599 0.824724 0.739603 -0.282619
C129  C     C_3   0.910987 0.873323 0.704235 -0.487940
C130  C     C_3   0.263785 0.755602 0.132722 0.011503
C131  C     C_3   0.234662 0.756684 0.080371 -0.250385
C132  C     C_3   0.242146 0.702435 0.051660 -0.498915
C133  C     C_3   0.830055 0.154653 0.744536 0.020485
C134  C     C_3   0.820410 0.100647 0.715346 -0.287063
C135  C     C_R   0.146342 0.351590 0.748717 -0.067318
C136  C     C_3   0.866908 0.088976 0.677234 -0.488402
C137  C     C_3   0.766010 0.727426 0.122332 0.010918
C138  C     C_3   0.771287 0.757529 0.070627 -0.234520
C139  C     C_3   0.751284 0.816671 0.074660 -0.397308
C140  C     C_3   0.140156 0.170259 0.733677 0.017233
C141  C     C_3   0.080327 0.180143 0.717618 -0.280841
C142  C     C_3   0.060292 0.136219 0.680000 -0.486851
C143  C     C_3   0.768242 0.197774 0.136825 0.005003
C144  C     C_3   0.815326 0.183315 0.100165 -0.240435
C145  C     C_3   0.805177 0.205742 0.045814 -0.499140
C146  C     C_R   0.648534 0.146956 0.251123 -0.063252
C147  C     C_3   0.168846 0.853622 0.741179 0.019790
C148  C     C_3   0.179618 0.910057 0.716869 -0.283548
C149  C     C_3   0.134060 0.925952 0.679189 -0.487199
C150  C     C_3   0.748853 0.278526 0.870373 0.012082
C151  C     C_3   0.749612 0.257365 0.926063 -0.246875
C152  C     C_3   0.701715 0.280607 0.957334 -0.498198
C153  C     C_3   0.152937 0.829757 0.271422 0.021305
C154  C     C_3   0.102656 0.815892 0.304917 -0.287463
C155  C     C_3   0.095978 0.856834 0.349200 -0.488003
C156  C     C_3   0.688087 0.760455 0.885412 0.003265
C157  C     C_R   0.351828 0.853265 0.749061 -0.068556
C158  C     C_3   0.689293 0.799138 0.932136 -0.255951
C159  C     C_3   0.645811 0.783856 0.972195 -0.491051
C160  C     C_3   0.174873 0.161775 0.284096 0.022059
C161  C     C_3   0.191006 0.114894 0.320849 -0.286880
C162  C     C_3   0.155977 0.115584 0.369912 -0.489179
C163  C     C_3   0.247700 0.729243 0.865164 0.008752
C164  C     C_3   0.259699 0.767028 0.910811 -0.248171
C165  C     C_3   0.312296 0.750248 0.938764 -0.502430
C166  C     C_3   0.837379 0.184452 0.317472 0.019633
C167  C     C_3   0.874694 0.212377 0.357594 -0.289585
C168  C     C_R   0.852061 0.352993 0.750481 -0.063517
C169  C     C_3   0.865475 0.188739 0.411675 -0.492114
C170  C     C_3   0.261449 0.246603 0.863718 0.015569
C171  C     C_3   0.224072 0.253262 0.910864 -0.246245
C172  C     C_3   0.230241 0.310009 0.935131 -0.501215
C173  C     C_3   0.826730 0.842738 0.267880 0.019616
C174  C     C_3   0.815271 0.895731 0.298128 -0.284503
C175  C     C_3   0.857608 0.904446 0.340897 -0.485588
C176  C     C_3   0.751327 0.780201 0.635794 0.007761
C177  C     C_3   0.760678 0.752092 0.583608 -0.242279
C178  C     C_3   0.781751 0.693481 0.590100 -0.386887
C179  C     C_R   0.147069 0.647683 0.250748 -0.068552
C180  C     C_3   0.357897 0.325693 0.218942 0.016448
C181  C     C_3   0.416695 0.315344 0.200008 -0.277917
C182  C     C_3   0.432748 0.355043 0.156864 -0.483242
C183  C     C_3   0.759164 0.254365 0.632767 0.020664
C184  C     C_3   0.800879 0.270167 0.590946 -0.278560
C185  C     C_3   0.815383 0.221245 0.556723 -0.490079
C186  C     C_3   0.327827 0.654247 0.226736 0.020855
C187  C     C_3   0.311864 0.605416 0.192240 -0.288356
C188  C     C_3   0.350293 0.600490 0.145740 -0.489271
C189  C     C_3   0.249999 0.232751 0.627112 0.018736
C190  C     C_R   0.645384 0.850764 0.752323 -0.053810
C191  C     C_3   0.257258 0.177062 0.600104 -0.284916
C192  C     C_3   0.206383 0.161975 0.568755 -0.491087
C193  C     C_3   0.650035 0.671060 0.215447 0.025445
C194  C     C_3   0.604193 0.690040 0.178639 -0.289610
C195  C     C_3   0.600338 0.652826 0.131238 -0.490310
C196  C     C_3   0.229647 0.750319 0.626936 0.022448
C197  C     C_3   0.177339 0.737713 0.596072 -0.282644
C198  C     C_3   0.162680 0.784890 0.559783 -0.487871
C199  C     C_3   0.684645 0.330359 0.189127 0.019813
C200  C     C_3   0.708139 0.370389 0.148855 -0.286322
C201  C     C_R   0.353571 0.148056 0.249545 -0.063285
C202  C     C_3   0.683530 0.360068 0.095349 -0.488673
C203  C     C_3   0.261300 0.766414 0.372143 0.012280
C204  C     C_3   0.257918 0.729947 0.420251 -0.237897
C205  C     C_3   0.236806 0.672608 0.407184 -0.383134
C206  C     C_3   0.650598 0.331239 0.767174 0.023112
C207  C     C_3   0.599981 0.318175 0.800490 -0.288274
C208  C     C_3   0.593132 0.359993 0.844025 -0.490985
C209  C     C_3   0.245471 0.278215 0.370436 0.007977
C210  C     C_3   0.283582 0.284143 0.417098 -0.238749
C211  C     C_3   0.261372 0.253577 0.464209 -0.502837
C212  C     C_R   0.146385 0.648295 0.748374 -0.062848
C213  C     C_3   0.670272 0.642260 0.763181 0.013355
C214  C     C_3   0.673389 0.580591 0.774100 -0.272146
C215  C     C_3   0.633273 0.563848 0.816704 -0.488498
C216  C     C_3   0.710369 0.262099 0.368032 0.007426
C217  C     C_3   0.692750 0.302344 0.410255 -0.247121
C218  C     C_3   0.718651 0.287836 0.462369 -0.508414
C219  C     C_3   0.343974 0.670626 0.755107 0.024399
C220  C     C_3   0.393832 0.683288 0.789615 -0.291810
C221  C     C_3   0.401381 0.639379 0.831132 -0.490703
C222  C     C_3   0.745538 0.734854 0.363808 0.019708
C223  C     C_R   0.270949 0.771616 0.250676 0.035100
C224  C     C_R   0.853493 0.352266 0.250955 -0.063570
C225  C     C_3   0.791640 0.720546 0.401894 -0.279197
C226  C     C_3   0.797300 0.764470 0.443619 -0.491791
C227  C     C_3   0.328554 0.341642 0.762534 0.022099
C228  C     C_3   0.316186 0.391934 0.796511 -0.289343
C229  C     C_3   0.358137 0.397538 0.840071 -0.489043
C230  C     C_R   0.351418 0.146495 0.748687 -0.067606
C231  C     C_R   0.646094 0.851497 0.247703 -0.069360
C232  C     C_R   0.096845 0.444566 0.446070 -0.096214
C233  C     C_R   0.899985 0.450395 0.553259 -0.099341
C234  C     C_R   0.556910 0.903049 0.446350 -0.089609
C235  C     C_R   0.553573 0.098788 0.553181 -0.090451
C236  C     C_R   0.900803 0.448557 0.446215 -0.099403
C237  C     C_R   0.097416 0.444742 0.553293 -0.090203
C238  C     C_R   0.553877 0.097840 0.445947 -0.094956
C239  C     C_R   0.726642 0.230632 0.752839 0.036668
C240  C     C_R   0.557897 0.903784 0.553727 -0.095445
C241  C     C_R   0.603919 0.960404 0.947520 -0.090838
C242  C     C_R   0.404972 0.941902 0.053674 -0.097451
C243  C     C_R   0.049909 0.399871 0.946539 -0.087764
C244  C     C_R   0.054379 0.597527 0.053099 -0.089926
C245  C     C_R   0.404948 0.942569 0.946434 -0.100564
C246  C     C_R   0.601992 0.956357 0.053985 -0.094894
C247  C     C_R   0.056698 0.596082 0.945927 -0.093938
C248  C     C_R   0.049219 0.400110 0.053499 -0.096105
C249  C     C_R   0.145696 0.432211 0.472030 0.023622
C250  C     C_R   0.767656 0.725255 0.244990 0.034015
C251  C     C_R   0.850486 0.441654 0.526886 0.032256
C252  C     C_R   0.572228 0.854863 0.472717 0.032229
C253  C     C_R   0.565932 0.147689 0.526510 0.030767
C254  C     C_R   0.851071 0.439909 0.472208 0.031735
C255  C     C_R   0.146427 0.432242 0.526752 0.030037
C256  C     C_R   0.565963 0.146761 0.471777 0.024605
C257  C     C_R   0.572963 0.855685 0.527509 0.022010
C258  C     C_R   0.654168 0.960426 0.974347 0.025972
C259  C     C_R   0.356282 0.929048 0.027445 0.034738
C260  C     C_R   0.056939 0.349775 0.972801 0.031714
C261  C     C_R   0.225400 0.268369 0.745493 0.035772
C262  C     C_R   0.066575 0.646436 0.026504 0.031758
C263  C     C_R   0.356287 0.929519 0.972690 0.032760
C264  C     C_R   0.652738 0.956908 0.028807 0.022595
C265  C     C_R   0.068451 0.645174 0.971788 0.022626
C266  C     C_R   0.056367 0.350279 0.027479 0.018595
C267  C     C_R   0.552177 0.967480 0.027747 -0.009345
C268  C     C_R   0.452705 0.960483 0.972649 -0.010290
C269  C     C_R   0.035384 0.449251 0.027393 -0.007526
C270  C     C_R   0.038535 0.548654 0.972298 -0.007460
C271  C     C_R   0.452564 0.960295 0.027511 -0.009706
C272  C     C_R   0.731351 0.226748 0.253374 0.039963
C273  C     C_R   0.552724 0.968522 0.972953 -0.011022
C274  C     C_R   0.037953 0.549054 0.027148 -0.012589
C275  C     C_R   0.035585 0.449068 0.972546 -0.012098
C276  C     C_R   0.049201 0.462003 0.527262 -0.012678
C277  C     C_R   0.949449 0.464031 0.472428 -0.009036
C278  C     C_R   0.538723 0.950900 0.527475 -0.006953
C279  C     C_R   0.536915 0.050007 0.472367 -0.007635
C280  C     C_R   0.949300 0.464421 0.527306 -0.008595
C281  C     C_R   0.049054 0.461992 0.472400 -0.008841
C282  C     C_R   0.536882 0.050342 0.527247 -0.011742
C283  C     C_R   0.269108 0.773471 0.746437 0.034743
C284  C     C_R   0.538462 0.950639 0.472578 -0.011606
C285  C     C_R   0.007260 0.499935 0.109952 0.494561
C286  C     C_R   0.007457 0.499854 0.889953 0.495336
C287  C     C_R   0.500221 0.992595 0.110070 0.496403
C288  C     C_R   0.500313 0.992935 0.890075 0.495886
C289  C     C_R   0.507425 0.000079 0.609968 0.493257
C290  C     C_R   0.507273 0.999995 0.390029 0.493499
C291  C     C_R   0.999935 0.492693 0.609951 0.494185
C292  C     C_R   0.999914 0.492685 0.389990 0.493810
C293  C     C_R   0.501452 0.974098 0.054604 -0.017118
C294  C     C_R   0.769233 0.273465 0.752048 0.030704
C295  C     C_R   0.501824 0.974650 0.945683 -0.017393
C296  C     C_R   0.025763 0.499518 0.054305 -0.018076
C297  C     C_R   0.026136 0.499214 0.945470 -0.018720
C298  C     C_R   0.999535 0.474213 0.554318 -0.018742
C299  C     C_R   0.999520 0.474148 0.445518 -0.017589
C300  C     C_R   0.526044 0.000427 0.554307 -0.019002
C301  C     C_R   0.525846 0.000114 0.445629 -0.018639
C302  C     C_R   0.105022 0.605202 0.250169 0.505742
C303  C     C_R   0.894853 0.394856 0.749967 0.507374
C304  C     C_R   0.604946 0.894755 0.249694 0.499659
H1    H     H_    0.122512 0.317256 0.177043 0.146613
H2    H     H_    0.091245 0.712544 0.229617 0.146249
H3    H     H_    0.004675 0.726531 0.927344 0.159128
H4    H     H_    0.055379 0.750156 0.881421 0.154094
H5    H     H_    0.100859 0.729125 0.962666 0.140580
H6    H     H_    0.122680 0.681318 0.915521 0.139013
H7    H     H_    0.000066 0.315703 0.115516 0.174109
H8    H     H_    0.980301 0.273931 0.060512 0.152194
H9    H     H_    0.021492 0.245105 0.111900 0.151385
H10   H     H_    0.080267 0.263687 0.037357 0.142522
H11   H     H_    0.098603 0.307815 0.088912 0.136809
H12   H     H_    0.687641 0.944371 0.865296 0.155169
H13   H     H_    0.657449 0.857573 0.834505 0.119758
H14   H     H_    0.682265 0.016331 0.882918 0.177039
H15   H     H_    0.748357 0.984789 0.873304 0.141327
H16   H     H_    0.735111 0.993993 0.964657 0.155140
H17   H     H_    0.730033 0.922253 0.949536 0.136001
H18   H     H_    0.318838 0.969118 0.123417 0.170555
H19   H     H_    0.275516 0.993740 0.071409 0.155856
H20   H     H_    0.250110 0.943241 0.116592 0.158346
H21   H     H_    0.272007 0.897464 0.036042 0.147415
H22   H     H_    0.319358 0.875346 0.083646 0.136574
H23   H     H_    0.025853 0.316313 0.870826 0.175807
H24   H     H_    0.286436 0.092655 0.234959 0.148742
H25   H     H_    0.100227 0.324611 0.870005 0.157144
H26   H     H_    0.070303 0.257398 0.868209 0.156142
H27   H     H_    0.107616 0.279748 0.955017 0.134787
H28   H     H_    0.035009 0.266251 0.955790 0.154431
H29   H     H_    0.034464 0.684199 0.126988 0.173826
H30   H     H_    0.107749 0.669397 0.130656 0.156247
H31   H     H_    0.083795 0.738993 0.130444 0.164350
H32   H     H_    0.122596 0.711475 0.045524 0.135858
H33   H     H_    0.051716 0.731896 0.041776 0.154528
H34   H     H_    0.240006 0.215855 0.102560 0.161833
H35   H     H_    0.131081 0.674040 0.826835 0.139299
H36   H     H_    0.279616 0.247694 0.151192 0.112811
H37   H     H_    0.196268 0.303889 0.077458 0.158360
H38   H     H_    0.234027 0.339550 0.127268 0.149473
H39   H     H_    0.322375 0.312023 0.085653 0.140302
H40   H     H_    0.279099 0.350233 0.041964 0.146253
H41   H     H_    0.284872 0.276652 0.035353 0.150228
H42   H     H_    0.835945 0.868532 0.782036 0.161328
H43   H     H_    0.809355 0.828649 0.730451 0.095766
H44   H     H_    0.928855 0.823950 0.771827 0.173999
H45   H     H_    0.903069 0.786404 0.716710 0.146034
H46   H     H_    0.912272 0.286845 0.259088 0.139660
H47   H     H_    0.881575 0.874350 0.671348 0.137551
H48   H     H_    0.953222 0.869365 0.688461 0.144547
H49   H     H_    0.908109 0.912373 0.726241 0.146769
H50   H     H_    0.252811 0.716642 0.152393 0.133311
H51   H     H_    0.308979 0.756915 0.125762 0.102311
H52   H     H_    0.190185 0.764174 0.086573 0.189900
H53   H     H_    0.251291 0.790706 0.056401 0.146547
H54   H     H_    0.223525 0.668331 0.074163 0.148412
H55   H     H_    0.286456 0.693810 0.045681 0.143352
H56   H     H_    0.221532 0.704505 0.013372 0.141537
H57   H     H_    0.323460 0.129800 0.826569 0.154874
H58   H     H_    0.871569 0.153157 0.762261 0.163785
H59   H     H_    0.830822 0.189923 0.717454 0.104713
H60   H     H_    0.817602 0.066337 0.743586 0.170453
H61   H     H_    0.781257 0.102952 0.693396 0.142547
H62   H     H_    0.870439 0.122805 0.648615 0.139077
H63   H     H_    0.858370 0.050240 0.656120 0.143645
H64   H     H_    0.906461 0.084529 0.698223 0.145860
H65   H     H_    0.722547 0.729858 0.135179 0.121242
H66   H     H_    0.777205 0.683631 0.115634 0.094984
H67   H     H_    0.814856 0.757131 0.057827 0.172772
H68   H     H_    0.712115 0.906326 0.227485 0.146149
H69   H     H_    0.746461 0.735797 0.040915 0.105761
H70   H     H_    0.776442 0.839954 0.102999 0.217646
H71   H     H_    0.707612 0.817692 0.087018 0.131688
H72   H     H_    0.754892 0.836866 0.036264 0.110676
H73   H     H_    0.144242 0.127137 0.746998 0.163866
H74   H     H_    0.168191 0.174337 0.699977 0.102190
H75   H     H_    0.053698 0.179843 0.752636 0.174588
H76   H     H_    0.076611 0.220795 0.698532 0.144123
H77   H     H_    0.085821 0.136186 0.644337 0.140100
H78   H     H_    0.017061 0.144771 0.669026 0.143168
H79   H     H_    0.639391 0.832640 0.670989 0.131235
H80   H     H_    0.062213 0.095097 0.698426 0.145902
H81   H     H_    0.765137 0.243200 0.139093 0.123464
H82   H     H_    0.729424 0.180529 0.120729 0.114666
H83   H     H_    0.854214 0.200797 0.115463 0.184847
H84   H     H_    0.819758 0.138002 0.098037 0.172109
H85   H     H_    0.800622 0.251050 0.047004 0.146643
H86   H     H_    0.767468 0.187255 0.029139 0.145542
H87   H     H_    0.840453 0.195358 0.020360 0.153605
H88   H     H_    0.126922 0.853770 0.758136 0.161957
H89   H     H_    0.168643 0.820983 0.711241 0.104912
H90   H     H_    0.411665 0.212520 0.265612 0.144654
H91   H     H_    0.182206 0.941493 0.747973 0.174449
H92   H     H_    0.219216 0.909379 0.695490 0.148332
H93   H     H_    0.130830 0.895150 0.647648 0.139906
H94   H     H_    0.143412 0.966509 0.661745 0.145120
H95   H     H_    0.094119 0.928763 0.699821 0.144941
H96   H     H_    0.709288 0.266091 0.852522 0.131966
H97   H     H_    0.751763 0.324209 0.871413 0.108719
H98   H     H_    0.746921 0.211866 0.925878 0.184459
H99   H     H_    0.788841 0.269416 0.944824 0.169380
H100  H     H_    0.662041 0.269091 0.939152 0.149530
H101  H     H_    0.824906 0.369984 0.672577 0.137442
H102  H     H_    0.704632 0.325996 0.959537 0.144094
H103  H     H_    0.702704 0.263789 0.997299 0.139798
H104  H     H_    0.148450 0.872556 0.257324 0.163163
H105  H     H_    0.191033 0.829314 0.294889 0.102505
H106  H     H_    0.065142 0.816504 0.280433 0.171495
H107  H     H_    0.107277 0.774265 0.321849 0.148076
H108  H     H_    0.132835 0.856211 0.374538 0.137928
H109  H     H_    0.059551 0.845665 0.372831 0.146144
H110  H     H_    0.089974 0.898885 0.333662 0.147602
H111  H     H_    0.698009 0.718364 0.898973 0.140596
H112  H     H_    0.900531 0.707570 0.789959 0.151322
H113  H     H_    0.212113 0.592133 0.272207 0.148293
H114  H     H_    0.645677 0.758409 0.869062 0.100297
H115  H     H_    0.730509 0.797446 0.950457 0.176033
H116  H     H_    0.681756 0.841819 0.919208 0.158873
H117  H     H_    0.604241 0.785655 0.954623 0.144656
H118  H     H_    0.647296 0.813327 0.004973 0.150230
H119  H     H_    0.653414 0.741917 0.987362 0.139261
H120  H     H_    0.130618 0.157447 0.274647 0.163551
H121  H     H_    0.178897 0.202019 0.303713 0.101887
H122  H     H_    0.185629 0.074973 0.300717 0.171046
H123  H     H_    0.234731 0.119034 0.332359 0.150505
H124  H     H_    0.369811 0.172669 0.670601 0.156079
H125  H     H_    0.161643 0.154885 0.391035 0.138069
H126  H     H_    0.168562 0.081396 0.395734 0.146498
H127  H     H_    0.111922 0.110440 0.360012 0.147181
H128  H     H_    0.285415 0.727431 0.841076 0.122715
H129  H     H_    0.237592 0.687514 0.879904 0.110050
H130  H     H_    0.264444 0.809479 0.895972 0.189177
H131  H     H_    0.224633 0.766262 0.938364 0.157101
H132  H     H_    0.348224 0.755305 0.912649 0.146176
H133  H     H_    0.309841 0.706788 0.951352 0.144284
H134  H     H_    0.318310 0.776565 0.973424 0.143435
H135  H     H_    0.588550 0.786996 0.265236 0.148795
H136  H     H_    0.846005 0.139738 0.318228 0.160114
H137  H     H_    0.793601 0.188722 0.328426 0.102553
H138  H     H_    0.918332 0.206478 0.346322 0.168974
H139  H     H_    0.865970 0.257059 0.359045 0.144685
H140  H     H_    0.822309 0.195466 0.424095 0.139333
H141  H     H_    0.893121 0.209467 0.439689 0.143842
H142  H     H_    0.874599 0.144120 0.412042 0.145953
H143  H     H_    0.257689 0.284388 0.840110 0.125862
H144  H     H_    0.304700 0.242006 0.877048 0.110802
H145  H     H_    0.180695 0.247705 0.898720 0.198141
H146  H     H_    0.171101 0.631718 0.669498 0.153610
H147  H     H_    0.234119 0.221328 0.940104 0.156372
H148  H     H_    0.215946 0.342068 0.907662 0.147663
H149  H     H_    0.273843 0.317879 0.945162 0.143516
H150  H     H_    0.204978 0.312576 0.970888 0.148523
H151  H     H_    0.870165 0.843337 0.254772 0.165142
H152  H     H_    0.822883 0.806360 0.293469 0.104827
H153  H     H_    0.816382 0.931274 0.271178 0.176972
H154  H     H_    0.773879 0.893636 0.316117 0.142647
H155  H     H_    0.857541 0.869163 0.368092 0.139789
H156  H     H_    0.847469 0.942263 0.362882 0.144848
H157  H     H_    0.786093 0.408844 0.243419 0.142502
H158  H     H_    0.899263 0.909060 0.323921 0.148962
H159  H     H_    0.790589 0.779494 0.657718 0.115313
H160  H     H_    0.739413 0.823581 0.628059 0.089872
H161  H     H_    0.721668 0.751572 0.561284 0.157253
H162  H     H_    0.791401 0.776065 0.561274 0.102086
H163  H     H_    0.750873 0.667896 0.610545 0.215796
H164  H     H_    0.820687 0.693232 0.612493 0.140164
H165  H     H_    0.789560 0.675245 0.551335 0.119279
H166  H     H_    0.353110 0.370133 0.227241 0.164409
H167  H     H_    0.327697 0.316138 0.187995 0.100354
H168  H     H_    0.372489 0.822891 0.327135 0.155229
H169  H     H_    0.445732 0.320345 0.232892 0.182701
H170  H     H_    0.420239 0.272769 0.185086 0.144848
H171  H     H_    0.404613 0.350683 0.123313 0.139859
H172  H     H_    0.475211 0.345970 0.143752 0.145854
H173  H     H_    0.431261 0.397975 0.171168 0.148348
H174  H     H_    0.721104 0.240027 0.613318 0.157118
H175  H     H_    0.774283 0.218980 0.655755 0.100698
H176  H     H_    0.783306 0.303095 0.566274 0.163905
H177  H     H_    0.838956 0.285797 0.609412 0.149247
H178  H     H_    0.834572 0.188306 0.580259 0.142483
H179  H     H_    0.591136 0.211740 0.726248 0.147946
H180  H     H_    0.844932 0.234326 0.526383 0.144376
H181  H     H_    0.778039 0.204906 0.537512 0.142504
H182  H     H_    0.371115 0.648616 0.239128 0.164028
H183  H     H_    0.327136 0.693029 0.204362 0.102196
H184  H     H_    0.313656 0.566982 0.215325 0.171546
H185  H     H_    0.269369 0.610764 0.177508 0.144128
H186  H     H_    0.348323 0.638289 0.121762 0.137866
H187  H     H_    0.337703 0.565084 0.121453 0.145371
H188  H     H_    0.393188 0.593869 0.158895 0.147221
H189  H     H_    0.244696 0.264528 0.596655 0.153804
H190  H     H_    0.185640 0.381171 0.320483 0.146551
H191  H     H_    0.211746 0.233899 0.650233 0.109850
H192  H     H_    0.293444 0.178843 0.573898 0.169778
H193  H     H_    0.264307 0.144312 0.629269 0.153127
H194  H     H_    0.170566 0.156913 0.594930 0.138298
H195  H     H_    0.213568 0.122732 0.548009 0.147994
H196  H     H_    0.196948 0.194304 0.539852 0.145105
H197  H     H_    0.641756 0.627826 0.226471 0.164629
H198  H     H_    0.690310 0.670541 0.195482 0.105140
H199  H     H_    0.564303 0.689704 0.199566 0.170565
H200  H     H_    0.612442 0.732478 0.165076 0.147044
H201  H     H_    0.790168 0.593432 0.716676 0.147127
H202  H     H_    0.639655 0.653317 0.109388 0.135744
H203  H     H_    0.567118 0.667627 0.105314 0.144821
H204  H     H_    0.590833 0.610128 0.143211 0.147986
H205  H     H_    0.263093 0.759617 0.598997 0.164118
H206  H     H_    0.224545 0.787880 0.650684 0.104556
H207  H     H_    0.183619 0.699850 0.572819 0.175054
H208  H     H_    0.142481 0.730888 0.623096 0.148970
H209  H     H_    0.154915 0.822830 0.582416 0.140857
H210  H     H_    0.125016 0.774447 0.537692 0.147315
H211  H     H_    0.196563 0.792449 0.531876 0.139285
H212  H     H_    0.610282 0.195025 0.311742 0.151748
H213  H     H_    0.639310 0.335160 0.189759 0.160274
H214  H     H_    0.692367 0.287336 0.177306 0.102973
H215  H     H_    0.699106 0.413191 0.160941 0.170577
H216  H     H_    0.753350 0.365291 0.146063 0.152310
H217  H     H_    0.692752 0.317587 0.082470 0.138471
H218  H     H_    0.701533 0.389162 0.066936 0.148065
H219  H     H_    0.638357 0.366147 0.096287 0.145241
H220  H     H_    0.219937 0.767686 0.354083 0.114781
H221  H     H_    0.272955 0.808518 0.384795 0.098838
H222  H     H_    0.299116 0.726731 0.438482 0.173521
H223  H     H_    0.322356 0.873020 0.174330 0.144005
H224  H     H_    0.404482 0.790336 0.717629 0.153901
H225  H     H_    0.229552 0.749132 0.448710 0.101319
H226  H     H_    0.265748 0.651304 0.380692 0.221561
H227  H     H_    0.195799 0.675090 0.388507 0.141538
H228  H     H_    0.233059 0.648157 0.443326 0.122709
H229  H     H_    0.645914 0.373449 0.751615 0.161536
H230  H     H_    0.688292 0.332083 0.791148 0.103077
H231  H     H_    0.562691 0.318466 0.775699 0.170677
H232  H     H_    0.604253 0.276863 0.818167 0.149108
H233  H     H_    0.629707 0.359568 0.869736 0.139692
H234  H     H_    0.556376 0.349531 0.867488 0.146698
H235  H     H_    0.816543 0.623324 0.322479 0.153601
H236  H     H_    0.587630 0.401800 0.827741 0.144382
H237  H     H_    0.245739 0.234470 0.358332 0.124450
H238  H     H_    0.203075 0.290350 0.382034 0.105525
H239  H     H_    0.324771 0.267630 0.407011 0.183415
H240  H     H_    0.288248 0.328202 0.427011 0.171504
H241  H     H_    0.256471 0.209305 0.455218 0.149220
H242  H     H_    0.221104 0.270969 0.476022 0.134467
H243  H     H_    0.290447 0.257912 0.497082 0.155519
H244  H     H_    0.627360 0.652883 0.752649 0.155054
H245  H     H_    0.679844 0.665926 0.799117 0.114230
H246  H     H_    0.211809 0.405719 0.725701 0.144958
H247  H     H_    0.663602 0.557505 0.738117 0.175078
H248  H     H_    0.715638 0.569543 0.786455 0.155330
H249  H     H_    0.642878 0.585870 0.853293 0.141665
H250  H     H_    0.636643 0.519061 0.823785 0.142878
H251  H     H_    0.590476 0.573359 0.804900 0.144724
H252  H     H_    0.755020 0.267840 0.361140 0.126781
H253  H     H_    0.702681 0.219481 0.382012 0.105382
H254  H     H_    0.705265 0.344502 0.398956 0.174818
H255  H     H_    0.647362 0.301712 0.414228 0.174029
H256  H     H_    0.764127 0.287944 0.459238 0.144602
H257  H     H_    0.096294 0.435797 0.405128 0.148701
H258  H     H_    0.704785 0.246668 0.475276 0.138965
H259  H     H_    0.706096 0.318433 0.491974 0.147457
H260  H     H_    0.350176 0.629463 0.737628 0.164482
H261  H     H_    0.305939 0.667234 0.778447 0.104492
H262  H     H_    0.431414 0.685424 0.765253 0.170249
H263  H     H_    0.388209 0.723390 0.809335 0.143861
H264  H     H_    0.364523 0.637412 0.856464 0.138848
H265  H     H_    0.437552 0.649591 0.855441 0.143837
H266  H     H_    0.408270 0.598685 0.812912 0.147034
H267  H     H_    0.707228 0.741786 0.386263 0.159795
H268  H     H_    0.899252 0.441560 0.594133 0.150430
H269  H     H_    0.754246 0.774164 0.343770 0.102582
H270  H     H_    0.782610 0.680540 0.420685 0.174388
H271  H     H_    0.831209 0.717053 0.380714 0.147952
H272  H     H_    0.807080 0.804695 0.425739 0.141456
H273  H     H_    0.830946 0.753133 0.470581 0.147061
H274  H     H_    0.758514 0.768146 0.465997 0.137537
H275  H     H_    0.370943 0.345847 0.747170 0.164040
H276  H     H_    0.328766 0.303568 0.785999 0.102620
H277  H     H_    0.316949 0.429535 0.772183 0.169877
H278  H     H_    0.274836 0.388044 0.814289 0.144821
H279  H     H_    0.564845 0.904729 0.405504 0.155179
H280  H     H_    0.357184 0.360659 0.865351 0.138882
H281  H     H_    0.348166 0.434079 0.863974 0.144629
H282  H     H_    0.400055 0.402636 0.823814 0.146693
H283  H     H_    0.562236 0.097602 0.593896 0.155530
H284  H     H_    0.901232 0.438902 0.405496 0.148663
H285  H     H_    0.095975 0.436096 0.594019 0.154723
H286  H     H_    0.562888 0.097278 0.405057 0.150433
H287  H     H_    0.710645 0.094773 0.779442 0.147085
H288  H     H_    0.566392 0.904854 0.594728 0.145641
H289  H     H_    0.605748 0.949770 0.907275 0.157062
H290  H     H_    0.405715 0.933305 0.094664 0.144624
H291  H     H_    0.060157 0.400817 0.906131 0.155929
H292  H     H_    0.062657 0.596535 0.093870 0.155540
H293  H     H_    0.405445 0.934755 0.905365 0.146837
H294  H     H_    0.602722 0.944142 0.094106 0.153840
H295  H     H_    0.066237 0.594902 0.905111 0.144666
H296  H     H_    0.058718 0.399576 0.094246 0.151603
H297  H     H_    0.747360 0.488635 0.473815 0.153165
H298  H     H_    0.874797 0.677618 0.173296 0.155719
H299  H     H_    0.783918 0.509723 0.416190 0.165586
H300  H     H_    0.726328 0.463562 0.411255 0.145021
H301  H     H_    0.812709 0.413254 0.400286 0.143277
H302  H     H_    0.779039 0.390163 0.456701 0.130862
H303  H     H_    0.184889 0.462646 0.626894 0.172419
H304  H     H_    0.167873 0.389960 0.630728 0.155062
H305  H     H_    0.238294 0.411715 0.630507 0.171328
H306  H     H_    0.209489 0.373309 0.545689 0.135975
H307  H     H_    0.232500 0.443528 0.542146 0.155653
H308  H     H_    0.516538 0.186640 0.381901 0.170946
H309  H     H_    0.090154 0.288263 0.772811 0.141575
H310  H     H_    0.500170 0.231060 0.436087 0.157791
H311  H     H_    0.545980 0.254250 0.385593 0.149643
H312  H     H_    0.599728 0.229737 0.461817 0.137322
H313  H     H_    0.614556 0.183150 0.411002 0.131434
H314  H     H_    0.534636 0.815841 0.622965 0.169755
H315  H     H_    0.513916 0.770316 0.571050 0.159165
H316  H     H_    0.565719 0.749219 0.616943 0.160219
H317  H     H_    0.610406 0.773768 0.536190 0.139416
H318  H     H_    0.628849 0.822358 0.583767 0.136371
H319  H     H_    0.184965 0.479527 0.380660 0.169372
H320  H     H_    0.697626 0.108323 0.191448 0.149145
H321  H     H_    0.229224 0.497836 0.434355 0.155026
H322  H     H_    0.252933 0.450870 0.385054 0.155489
H323  H     H_    0.229168 0.399020 0.462480 0.137059
H324  H     H_    0.182343 0.382413 0.412528 0.131468
H325  H     H_    0.815541 0.492164 0.618917 0.169696
H326  H     H_    0.775674 0.516689 0.564437 0.151423
H327  H     H_    0.744690 0.472551 0.612386 0.147859
H328  H     H_    0.763678 0.418133 0.535756 0.148359
H329  H     H_    0.807975 0.396397 0.586153 0.134343
H330  H     H_    0.543599 0.815121 0.372282 0.176891
H331  H     H_    0.289687 0.906733 0.780772 0.150383
H332  H     H_    0.615359 0.835880 0.368031 0.150572
H333  H     H_    0.597285 0.764583 0.368252 0.165500
H334  H     H_    0.634514 0.795269 0.453092 0.126710
H335  H     H_    0.565635 0.768429 0.456912 0.157312
H336  H     H_    0.535753 0.186458 0.626754 0.172795
H337  H     H_    0.608551 0.169505 0.630456 0.151603
H338  H     H_    0.586681 0.239809 0.630096 0.169421
H339  H     H_    0.624903 0.210726 0.545191 0.132834
H340  H     H_    0.554621 0.233749 0.541751 0.155946
H341  H     H_    0.249916 0.971380 0.977854 0.154204
H342  H     H_    0.868196 0.328214 0.829408 0.154918
H343  H     H_    0.284059 0.997586 0.920755 0.165101
H344  H     H_    0.229362 0.948216 0.914457 0.149607
H345  H     H_    0.318482 0.903905 0.900189 0.141661
H346  H     H_    0.287190 0.876272 0.956141 0.126612
H347  H     H_    0.723662 0.039496 0.058236 0.148108
H348  H     H_    0.682358 0.019884 0.113643 0.172617
H349  H     H_    0.754432 0.003209 0.111844 0.144080
H350  H     H_    0.697771 0.920974 0.092447 0.139564
H351  H     H_    0.740330 0.939219 0.039369 0.135625
H352  H     H_    0.028410 0.681745 0.875965 0.171377
O1    O     O_3   1.000000 0.500000 0.250000 -0.422911
O2    O     O_R   1.000000 0.454520 0.865790 -0.554003
O3    O     O_R   0.545480 1.000000 0.134210 -0.555511
O4    O     O_R   0.454520 0.000000 0.865790 -0.548877
O5    O     O_R   0.500000 0.954520 0.634210 -0.549029
O6    O     O_R   0.500000 0.045480 0.365790 -0.552120
O7    O     O_R   0.954520 0.500000 0.634210 -0.554771
O8    O     O_R   0.045480 0.500000 0.365790 -0.552131
O9    O     O_R   0.500000 0.045480 0.634210 -0.553731
O10   O     O_R   0.500000 0.954520 0.365790 -0.551805
O11   O     O_R   0.045480 0.500000 0.634210 -0.552152
O12   O     O_3   1.000000 0.500000 0.750000 -0.421065
O13   O     O_R   0.954520 0.500000 0.365790 -0.552050
O14   O     O_R   0.063990 0.609460 0.219650 -0.559408
O15   O     O_R   0.936010 0.390540 0.780350 -0.542975
O16   O     O_R   0.609460 0.936010 0.219650 -0.553681
O17   O     O_R   0.390540 0.063990 0.780350 -0.539244
O18   O     O_R   0.936010 0.390540 0.219650 -0.537749
O19   O     O_R   0.063990 0.609460 0.780350 -0.558319
O20   O     O_R   0.390540 0.063990 0.219650 -0.538892
O21   O     O_R   0.609460 0.936010 0.780350 -0.559302
O22   O     O_R   0.936010 0.609460 0.780350 -0.539838
O23   O     O_3   0.500000 0.000000 0.250000 -0.422124
O24   O     O_R   0.063990 0.390540 0.219650 -0.556503
O25   O     O_R   0.390540 0.936010 0.780350 -0.555470
O26   O     O_R   0.609460 0.063990 0.219650 -0.546491
O27   O     O_R   0.063990 0.390540 0.780350 -0.559380
O28   O     O_R   0.936010 0.609460 0.219650 -0.543008
O29   O     O_R   0.609460 0.063990 0.780350 -0.542265
O30   O     O_R   0.390540 0.936010 0.219650 -0.558878
O31   O     O_R   0.563990 0.109460 0.719650 -0.559255
O32   O     O_R   0.436010 0.890540 0.280350 -0.540829
O33   O     O_R   0.109460 0.436010 0.719650 -0.557994
O34   O     O_3   0.500000 0.000000 0.750000 -0.422231
O35   O     O_R   0.890540 0.563990 0.280350 -0.540189
O36   O     O_R   0.436010 0.890540 0.719650 -0.539701
O37   O     O_R   0.563990 0.109460 0.280350 -0.558562
O38   O     O_R   0.890540 0.563990 0.719650 -0.544460
O39   O     O_R   0.109460 0.436010 0.280350 -0.558360
O40   O     O_R   0.436010 0.109460 0.280350 -0.540755
O41   O     O_R   0.563990 0.890540 0.719650 -0.555990
O42   O     O_R   0.890540 0.436010 0.280350 -0.550972
O43   O     O_R   0.109460 0.563990 0.719650 -0.541929
O44   O     O_R   0.563990 0.890540 0.280350 -0.558534
O45   O     O_R   1.000000 0.454520 0.134210 -0.553672
O46   O     O_R   0.436010 0.109460 0.719650 -0.541985
O47   O     O_R   0.109460 0.563990 0.280350 -0.540266
O48   O     O_R   0.890540 0.436010 0.719650 -0.556138
O49   O     O_3   0.194699 0.241508 0.164579 -0.529816
O50   O     O_3   0.830600 0.787052 0.799276 -0.527457
O51   O     O_3   0.245975 0.800670 0.162698 -0.529753
O52   O     O_3   0.792081 0.161990 0.785475 -0.524558
O53   O     O_3   0.800707 0.752234 0.159326 -0.515371
O54   O     O_3   0.155161 0.204128 0.775809 -0.528454
O55   O     O_3   0.779935 0.175989 0.186251 -0.523885
O56   O     O_R   0.000000 0.545480 0.865790 -0.549385
O57   O     O_3   0.205812 0.842467 0.782076 -0.526545
O58   O     O_3   0.792920 0.254832 0.842684 -0.522558
O59   O     O_3   0.156738 0.795684 0.227149 -0.530502
O60   O     O_3   0.729054 0.776197 0.849272 -0.529718
O61   O     O_3   0.204175 0.159598 0.236692 -0.525001
O62   O     O_3   0.203196 0.751005 0.836917 -0.525632
O63   O     O_3   0.847804 0.202933 0.266338 -0.522934
O64   O     O_3   0.244599 0.200074 0.835336 -0.521988
O65   O     O_3   0.793758 0.838874 0.222893 -0.530686
O66   O     O_3   0.709800 0.752349 0.663347 -0.522821
O67   O     O_R   0.454520 1.000000 0.134210 -0.550106
O68   O     O_3   0.347570 0.297418 0.265788 -0.519027
O69   O     O_3   0.745105 0.300503 0.663255 -0.528627
O70   O     O_3   0.295519 0.657236 0.272321 -0.533206
O71   O     O_3   0.296643 0.247497 0.656655 -0.526958
O72   O     O_3   0.651393 0.702017 0.261856 -0.527558
O73   O     O_3   0.246741 0.704571 0.656486 -0.523109
O74   O     O_3   0.703905 0.341713 0.239801 -0.524218
O75   O     O_3   0.300675 0.744971 0.337464 -0.515779
O76   O     O_3   0.655397 0.295557 0.724123 -0.530171
O77   O     O_3   0.265358 0.311676 0.330004 -0.519743
O78   O     O_R   0.545480 0.000000 0.865790 -0.557287
O79   O     O_3   0.704018 0.656062 0.720412 -0.537930
O80   O     O_3   0.680869 0.273618 0.322209 -0.525523
O81   O     O_3   0.338350 0.708294 0.713655 -0.522204
O82   O     O_3   0.735268 0.691081 0.329203 -0.525349
O83   O     O_3   0.293005 0.338013 0.719252 -0.530847
O84   O     O_R   1.000000 0.545480 0.134210 -0.553351
Zn1   Zn    Zn3+2 0.064970 0.500000 0.293390 0.908120
Zn2   Zn    Zn3+2 0.435030 0.000000 0.206610 0.918406
Zn3   Zn    Zn3+2 1.000000 0.435030 0.793390 0.905920
Zn4   Zn    Zn3+2 1.000000 0.564970 0.206610 0.914039
Zn5   Zn    Zn3+2 0.435030 0.000000 0.793390 0.923421
Zn6   Zn    Zn3+2 0.564970 0.000000 0.206610 0.906698
Zn7   Zn    Zn3+2 1.000000 0.564970 0.793390 0.918527
Zn8   Zn    Zn3+2 1.000000 0.435030 0.206610 0.909707
Zn9   Zn    Zn3+2 0.935030 0.500000 0.706610 0.914184
Zn10  Zn    Zn3+2 0.500000 0.935030 0.293390 0.909479
Zn11  Zn    Zn3+2 0.500000 0.064970 0.706610 0.914972
Zn12  Zn    Zn3+2 0.935030 0.500000 0.293390 0.922607
Zn13  Zn    Zn3+2 0.064970 0.500000 0.706610 0.907723
Zn14  Zn    Zn3+2 0.500000 0.064970 0.293390 0.916932
Zn15  Zn    Zn3+2 0.500000 0.935030 0.706610 0.911700
Zn16  Zn    Zn3+2 0.564970 0.000000 0.793390 0.902945

loop_
_geom_bond_atom_site_label_1
_geom_bond_atom_site_label_2
_ccdc_geom_bond_type
C177  H162  S    
C183  O69   S    
C19   O51   S    
C196  H206  S    
C18   O50   S    
C280  C298  A    
C270  C274  A    
C17   O49   S    
C64   C201  A    
C46   C272  S    
C195  H204  S    
C93   H311  S    
C81   H190  S    
C120  H25   S    
C142  H77   S    
C110  H3    S    
O23   Zn2   S    
C129  H48   S    
C100  H334  S    
C132  H56   S    
C26   O58   S    
C292  O8    A    
C204  H225  S    
C13   C112  S    
C259  C263  A    
C98   C251  S    
C117  C259  S    
C151  H98   S    
C94   C257  S    
C217  H255  S    
C153  H105  S    
C143  C144  S    
O1    Zn12  S    
C227  H275  S    
C198  H210  S    
C188  H186  S    
C149  H95   S    
O20   Zn2   S    
C39   C74   A    
O45   Zn8   S    
C134  H60   S    
C108  H349  S    
C53   H112  S    
C209  H238  S    
C34   O66   S    
C121  H32   S    
C160  O61   S    
C277  C299  A    
C33   O65   S    
O23   Zn10  S    
C278  C300  A    
C248  C269  A    
C88   H300  S    
C12   C135  S    
C61   H342  S    
C288  O78   A    
C208  H234  S    
C25   C60   A    
C240  C257  A    
C32   O64   S    
C166  H136  S    
C158  H115  S    
O39   Zn1   S    
C86   H246  S    
C36   C71   A    
C33   C69   A    
C56   H298  S    
C119  C260  S    
C29   C64   A    
C137  H65   S    
C199  C200  S    
O16   Zn6   S    
C78   C101  A    
C192  H196  S    
C114  H9    S    
C32   C57   A    
C115  H16   S    
C3    C230  S    
C228  C229  S    
C116  H15   S    
C161  C162  S    
C202  H217  S    
C45   C81   A    
C23   C272  A    
O9    Zn11  S    
C191  C192  S    
C161  H123  S    
C147  O57   S    
C142  H80   S    
C140  C141  S    
C85   H235  S    
O14   Zn4   S    
C108  H348  S    
C206  C207  S    
C196  C197  S    
C48   O80   S    
C285  O84   A    
C213  C214  S    
C140  H73   S    
C114  H7    S    
C84   C157  A    
C43   C78   A    
C228  H278  S    
C183  C184  S    
C170  O64   S    
C95   H314  S    
C108  H347  S    
C166  H137  S    
C118  H20   S    
C227  C228  S    
C105  C263  S    
O23   Zn14  S    
C75   H135  S    
C131  H53   S    
C290  O6    A    
C162  H125  S    
C219  O81   S    
C156  H111  S    
C205  H228  S    
C154  C155  S    
C8    O22   A    
O42   Zn12  S    
C139  H72   S    
C292  O13   A    
C183  H175  S    
C106  H343  S    
C304  O44   A    
C229  H282  S    
C219  H261  S    
C158  C159  S    
C144  H84   S    
C27   O59   S    
C237  C276  A    
C260  C266  A    
C195  H202  S    
C5    O19   A    
C117  H22   S    
C70   C190  A    
O34   Zn15  S    
C136  H63   S    
C16   O30   A    
C145  H86   S    
C247  C270  A    
C5    C212  S    
C267  C273  A    
C116  H14   S    
C10   O36   A    
C203  H221  S    
C31   C66   A    
C94   H318  S    
C7    O41   A    
C9    O24   A    
C258  C264  A    
C144  C145  S    
C188  H188  S    
C22   C58   A    
C41   O73   S    
C160  H121  S    
C203  O75   S    
C125  H38   S    
C163  O62   S    
C25   O57   S    
C222  C225  S    
C158  H116  S    
C89   H306  S    
C61   C168  A    
C213  H245  S    
C242  C271  A    
C156  C158  S    
C130  C131  S    
C45   O77   S    
C244  H292  S    
C221  H266  S    
C41   C76   A    
C210  H239  S    
C116  H12   S    
O3    Zn6   S    
C184  H177  S    
C163  H128  S    
C87   H301  S    
C176  O66   S    
C130  H51   S    
C208  H236  S    
C71   H90   S    
C243  C260  A    
C290  O10   A    
C192  H194  S    
O12   Zn13  S    
C84   H224  S    
C91   H303  S    
C191  H193  S    
C28   C63   A    
O6    Zn14  S    
C240  H288  S    
C200  C202  S    
C193  C194  S    
C78   H168  S    
C213  H244  S    
C292  C299  S    
C194  H200  S    
C186  H183  S    
C186  C187  S    
C167  H138  S    
C122  H31   S    
C20   O52   S    
C209  O77   S    
C275  C297  A    
C99   H326  S    
C189  H191  S    
C218  H256  S    
C54   C101  A    
C286  O56   A    
C147  C148  S    
C142  H78   S    
C128  C129  S    
C115  H17   S    
C29   O61   S    
C172  H149  S    
C167  C169  S    
C138  H69   S    
C237  H285  S    
O26   Zn6   S    
C226  H274  S    
C24   C36   A    
O25   Zn5   S    
C114  H8    S    
C187  H184  S    
C49   C84   A    
C194  H199  S    
C42   C46   A    
C118  H18   S    
C155  H109  S    
C170  C171  S    
C115  C116  S    
C184  C185  S    
C184  H176  S    
O4    Zn5   S    
C152  H100  S    
C4    O42   A    
C189  C191  S    
C174  C175  S    
C139  H70   S    
C151  H99   S    
C106  H341  S    
C227  O83   S    
C169  H140  S    
C65   C212  A    
C31   C46   A    
C199  H213  S    
C107  C108  S    
C15   C113  S    
C7    C190  S    
C232  C281  A    
C25   C283  A    
C52   C79   A    
C185  H181  S    
C103  H340  S    
C50   C250  A    
O24   Zn8   S    
C137  H66   S    
O1    Zn8   S    
C242  H290  S    
C7    O21   A    
C241  H289  S    
C289  O5    A    
C96   C97   S    
C244  C274  A    
C72   C168  A    
C38   O70   S    
C102  H332  S    
C37   O69   S    
C220  C221  S    
C178  H163  S    
C209  C210  S    
C12   O27   A    
O2    Zn3   S    
C141  H75   S    
O27   Zn3   S    
C284  C301  A    
C154  H106  S    
C14   C124  S    
C241  C258  A    
C15   O29   A    
C225  H271  S    
C60   C157  A    
C197  H207  S    
C6    C201  S    
C226  H272  S    
C130  O51   S    
C21   C250  A    
O21   Zn16  S    
C165  H132  S    
O78   Zn16  S    
C251  C254  A    
C80   C113  A    
C175  H158  S    
C206  O76   S    
C217  C218  S    
C105  H345  S    
C119  H28   S    
C287  C293  S    
C6    O40   A    
C207  H232  S    
C204  H222  S    
C64   H24   S    
C43   C223  A    
C216  O80   S    
C69   H68   S    
C31   O63   S    
C9    O39   A    
C27   C62   A    
C121  C262  S    
C55   H287  S    
C2    C38   A    
O13   Zn12  S    
C104  H336  S    
C126  H41   S    
C302  O47   A    
O47   Zn1   S    
C189  H189  S    
C59   H320  S    
C229  H280  S    
C13   C28   A    
C58   H309  S    
C11   O26   A    
C91   H305  S    
C304  O16   A    
C122  H29   S    
C2    C27   A    
C95   H315  S    
C32   C67   A    
C176  H159  S    
C211  H242  S    
C291  O11   A    
C98   C99   S    
C234  C284  A    
C133  H58   S    
C289  O9    A    
C65   H35   S    
C244  C262  A    
C166  O63   S    
C150  O58   S    
C245  C263  A    
C170  H144  S    
C103  C104  S    
C246  C264  A    
O37   Zn14  S    
C19   C54   A    
O8    Zn1   S    
O36   Zn15  S    
C177  H161  S    
C47   O79   S    
C43   O75   S    
O46   Zn11  S    
C127  H42   S    
C137  O53   S    
C42   O74   S    
C195  H203  S    
C93   H310  S    
C253  C256  A    
C276  C298  A    
C159  H118  S    
C11   C146  S    
C136  H62   S    
C58   C135  A    
C248  H296  S    
C63   C190  A    
C120  H26   S    
C94   H317  S    
C1    C17   A    
C48   C83   A    
C110  H4    S    
C129  H47   S    
C96   H323  S    
O18   Zn8   S    
C117  C118  S    
C173  H152  S    
C215  H250  S    
O12   Zn3   S    
C1    C45   A    
C217  H254  S    
C153  H104  S    
C148  H91   S    
C198  H211  S    
C35   C283  S    
C149  H94   S    
C194  C195  S    
C240  C278  A    
C197  C198  S    
C35   C41   A    
C134  H61   S    
C30   C65   A    
C209  H237  S    
C167  H139  S    
C92   H312  S    
C99   H327  S    
C247  C265  A    
C16   C101  S    
C120  H23   S    
C117  H21   S    
C204  C205  S    
C48   C272  A    
C1    C24   S    
C277  C280  A    
C5    O43   A    
C150  C151  S    
C67   H57   S    
C220  H262  S    
C232  C249  A    
C236  C254  A    
C102  H330  S    
C174  H153  S    
C33   C68   A    
C153  O59   S    
C302  O14   A    
O32   Zn10  S    
C87   C88   S    
C218  H258  S    
C145  H87   S    
C243  C275  A    
O23   Zn6   S    
C242  C259  A    
C128  H44   S    
C44   O76   S    
O56   Zn7   S    
C203  C204  S    
C215  H251  S    
C262  C265  A    
C54   H223  S    
O28   Zn4   S    
C246  H294  S    
C239  C294  S    
C181  C182  S    
C10   O25   A    
C245  H293  S    
C51   C261  A    
C57   C261  S    
C37   C294  A    
C164  H131  S    
C161  H122  S    
C96   C249  S    
C164  C165  S    
C26   C61   A    
C18   C112  A    
C69   C231  A    
C172  H148  S    
C126  H39   S    
C222  O82   S    
O12   Zn7   S    
C68   C250  S    
C30   O62   S    
C23   O55   S    
C303  O48   A    
C140  H74   S    
C17   C52   A    
C273  C295  A    
C241  C273  A    
C267  C293  A    
C291  C298  S    
C274  C296  A    
C24   C29   A    
C271  C293  A    
C182  H173  S    
C50   C85   A    
C147  H88   S    
C180  H167  S    
C181  H170  S    
C232  H257  S    
C109  H6    S    
C151  C152  S    
C286  C297  S    
C107  C264  S    
C162  H126  S    
C152  H103  S    
C205  H227  S    
C14   O35   A    
C150  H97   S    
O43   Zn13  S    
C139  H71   S    
C106  H344  S    
C12   O33   A    
C229  H281  S    
C129  H49   S    
C183  H174  S    
C185  H178  S    
C51   C86   A    
C252  C257  A    
O34   Zn16  S    
C222  H267  S    
C136  H64   S    
C145  H85   S    
C214  H247  S    
C290  C301  S    
C207  C208  S    
C132  H55   S    
C44   C80   A    
C287  O67   A    
C235  C253  A    
C238  H286  S    
C72   H101  S    
C127  O50   S    
C219  C220  S    
C111  H10   S    
C125  H37   S    
C227  H276  S    
C49   C283  A    
C198  H209  S    
C226  H273  S    
C28   O60   S    
C128  H45   S    
C179  C302  S    
C23   C59   A    
O35   Zn12  S    
C216  H252  S    
C121  H33   S    
C99   H325  S    
C83   C146  A    
C210  H240  S    
C82   H201  S    
C88   H299  S    
O5    Zn15  S    
C40   O72   S    
C19   C223  A    
C208  H233  S    
C107  H350  S    
C98   H328  S    
C121  C122  S    
C270  C297  A    
O11   Zn13  S    
C14   O28   A    
O1    Zn4   S    
C125  C126  S    
C103  C253  S    
C221  H264  S    
C200  H216  S    
C49   O81   S    
C127  C128  S    
C215  H249  S    
C30   C35   A    
O84   Zn4   S    
C180  C181  S    
C233  C251  A    
C193  O72   S    
C137  C138  S    
C233  C280  A    
C211  H243  S    
C73   H113  S    
C63   H13   S    
C74   H124  S    
C237  C255  A    
C173  O65   S    
C21   C56   A    
C119  C120  S    
C172  H150  S    
C243  H291  S    
O12   Zn9   S    
C143  O55   S    
C105  C106  S    
C82   C90   A    
C40   C75   A    
C66   H46   S    
C104  H337  S    
C287  O3    A    
C228  H277  S    
C222  H269  S    
C127  H43   S    
C187  C188  S    
C196  O73   S    
C109  C110  S    
C182  H171  S    
C118  H19   S    
C156  H114  S    
O29   Zn16  S    
O48   Zn9   S    
C291  O7    A    
O38   Zn9   S    
C186  O70   S    
C285  C296  S    
C92   C93   S    
C200  H215  S    
C111  C114  S    
C94   C95   S    
C110  H352  S    
C138  C139  S    
O17   Zn5   S    
C171  H147  S    
C177  C178  S    
C40   C68   A    
C37   C72   A    
C53   C90   A    
C155  H108  S    
C144  H83   S    
O40   Zn14  S    
C97   H322  S    
C185  H180  S    
C103  H339  S    
C196  H205  S    
C216  H253  S    
C221  H265  S    
C155  H110  S    
C62   H2    S    
C98   H329  S    
O33   Zn13  S    
C171  C172  S    
C247  H295  S    
C34   C70   A    
C279  C301  A    
O67   Zn2   S    
C60   H331  S    
C100  H335  S    
C213  O79   S    
C163  C164  S    
C11   O37   A    
C74   C230  A    
C102  H333  S    
C281  C299  A    
C178  H164  S    
C83   H212  S    
O41   Zn15  S    
C173  C174  S    
C16   O32   A    
C182  H172  S    
C154  H107  S    
C187  H185  S    
C188  H187  S    
C76   H146  S    
C180  O68   S    
C89   H307  S    
C169  H142  S    
C225  H270  S    
C181  H169  S    
C97   H319  S    
C285  O45   A    
C279  C282  A    
C248  C266  A    
C276  C281  A    
C282  C300  A    
C22   C261  A    
C47   C112  A    
C39   C57   A    
C87   H302  S    
C119  H27   S    
C130  H50   S    
C85   C124  A    
C207  H231  S    
C47   C82   A    
C191  H192  S    
C164  H130  S    
C140  O54   S    
C269  C296  A    
C13   C34   A    
C77   C224  A    
C123  C125  S    
C193  H197  S    
C105  H346  S    
C18   C53   A    
C138  H67   S    
C67   C230  A    
C168  C303  S    
C216  C217  S    
C186  H182  S    
C189  O71   S    
C122  H30   S    
C56   C124  A    
C147  H89   S    
C123  H36   S    
C176  H160  S    
C180  H166  S    
C91   H304  S    
C104  H338  S    
C202  H218  S    
C199  O74   S    
C152  H102  S    
C20   C55   A    
C9    C79   S    
C231  C304  S    
C159  H119  S    
C87   C254  S    
C80   H179  S    
O7    Zn9   S    
C235  C282  A    
C269  C275  A    
O34   Zn11  S    
C236  C277  A    
C214  H248  S    
C148  C149  S    
C15   O31   A    
C66   C224  A    
C238  C279  A    
C3    O46   A    
C234  C252  A    
C79   C81   A    
O44   Zn10  S    
C214  C215  S    
C134  C136  S    
C55   C113  A    
C4    C224  S    
C123  O49   S    
C131  H52   S    
C220  H263  S    
C238  C256  A    
C234  H279  S    
C132  H54   S    
C70   H79   S    
C123  H34   S    
C235  H283  S    
C173  H151  S    
C86   C135  A    
C160  H120  S    
C111  H11   S    
C62   C179  A    
C268  C271  A    
C169  H141  S    
C171  H145  S    
C219  H260  S    
C148  H92   S    
C199  H214  S    
C100  C102  S    
C225  C226  S    
C149  H93   S    
C303  O15   A    
C88   H297  S    
C75   C231  A    
O30   Zn2   S    
C93   H308  S    
C143  H82   S    
C36   O68   S    
C288  O4    A    
C165  H134  S    
C233  H268  S    
C176  C177  S    
C109  C265  S    
C6    O20   A    
C175  H156  S    
C210  C211  S    
C203  H220  S    
C51   O83   S    
C166  C167  S    
C133  H59   S    
C4    O18   A    
C50   O82   S    
C245  C268  A    
C8    C90   S    
C107  H351  S    
C246  C267  A    
C44   C239  A    
C92   C256  S    
C174  H154  S    
C206  H230  S    
C8    O38   A    
O22   Zn7   S    
C71   C201  A    
C141  H76   S    
O1    Zn1   S    
C218  H259  S    
O15   Zn3   S    
C52   H1    S    
C289  C300  S    
C22   O54   S    
C26   C294  A    
C197  H208  S    
C21   O53   S    
C100  C252  S    
C115  C258  S    
C143  H81   S    
C163  H129  S    
O34   Zn5   S    
C193  H198  S    
C249  C255  A    
C20   C239  A    
C202  H219  S    
O10   Zn10  S    
C39   O71   S    
C111  C266  S    
C150  H96   S    
C160  C161  S    
C268  C295  A    
C165  H133  S    
C236  H284  S    
C192  H195  S    
C141  C142  S    
C178  H165  S    
C76   C212  A    
C77   H157  S    
C133  C134  S    
C126  H40   S    
C288  C295  S    
C133  O52   S    
O31   Zn11  S    
C205  H226  S    
C2    C223  S    
C286  O2    A    
C211  H241  S    
O19   Zn7   S    
C95   H316  S    
C3    O17   A    
C175  H155  S    
C73   C179  A    
C59   C146  A    
C159  H117  S    
C92   H313  S    
C206  H229  S    
C89   C91   S    
C89   C255  S    
C109  H5    S    
C42   C77   A    
C96   H324  S    
C278  C284  A    
C162  H127  S    
C153  C154  S    
C10   C157  S    
C97   H321  S    
C170  H143  S    
C131  C132  S    
C38   C73   A    
C156  O60   S    
