data_mof_unit_37904.cif
_audit_creation_date              2012-10-26T19:18:48-0400
_audit_creation_method            fapswitch 2.2
_symmetry_space_group_name_H-M    P1
_symmetry_Int_Tables_number       1
_space_group_crystal_system       triclinic
_cell_length_a                    9.694604
_cell_length_b                    10.936243
_cell_length_c                    15.515446
_cell_angle_alpha                 89.894816
_cell_angle_beta                  73.6508
_cell_angle_gamma                 90.008148
_cell_volume                      1578.46722772

loop_
_atom_site_label
_atom_site_type_symbol
_atom_type_description
_atom_site_fract_x
_atom_site_fract_y
_atom_site_fract_z
_atom_type_partial_charge
C1    C     C_R   0.999492 0.265357 0.501248 0.555595
C2    C     C_R   0.236403 0.585569 0.048696 -0.001881
C3    C     C_R   0.333011 0.541239 0.094928 0.018870
C4    C     C_R   0.916684 0.499978 0.672239 0.544480
C5    C     C_R   0.089407 0.597179 0.093305 -0.144579
C6    C     C_R   0.036818 0.565132 0.183564 -0.134235
C7    C     C_R   0.276071 0.504047 0.184742 -0.120596
C8    C     C_2   0.885362 0.932985 0.503420 -0.162018
C9    C     C_2   0.004701 0.866647 0.494698 -0.116040
C10   C     C_2   0.886976 0.066940 0.499458 -0.161959
C11   C     C_2   0.999686 0.133388 0.506047 -0.118563
C12   C     C_R   0.677486 0.531953 0.909541 0.031186
C13   C     C_2   0.397433 0.433528 0.554632 -0.010996
C14   C     C_2   0.554078 0.430360 0.552479 -0.007588
C15   C     C_R   0.000543 0.734651 0.499000 0.559580
C16   C     C_R   0.083401 0.502445 0.327810 0.546619
C17   C     C_R   0.870989 0.503357 0.770846 -0.019393
C18   C     C_R   0.130564 0.519856 0.230002 0.000377
C19   C     C_R   0.923096 0.487851 0.913913 -0.141766
C20   C     C_R   0.970179 0.488849 0.820505 -0.136333
C21   C     C_R   0.725536 0.521230 0.815641 -0.114716
C22   C     C_3   0.525044 0.783648 0.835704 -0.123281
C23   C     C_R   0.777485 0.507257 0.958702 0.040720
C24   C     C_R   0.531384 0.558705 0.956057 0.024622
C25   C     C_R   0.482661 0.534971 0.050045 -0.007880
C26   C     C_R   0.585747 0.509869 0.096716 -0.135570
C27   C     C_R   0.730707 0.499360 0.051846 -0.138807
C28   C     C_R   0.433215 0.612480 0.913482 0.251831
C29   C     C_R   0.287687 0.621819 0.959380 -0.111841
Cu1   Cu    Cu3+1 0.138640 0.500020 0.499980 0.940301
Cu2   Cu    Cu3+1 0.861360 0.499980 0.500020 0.939931
H1    H     H_    0.805964 0.480669 0.090274 0.109598
H2    H     H_    0.624032 0.561484 0.459982 0.201118
H3    H     H_    0.342802 0.462081 0.221421 0.120478
H4    H     H_    0.924067 0.579306 0.217578 0.124365
H5    H     H_    0.214838 0.660634 0.924931 0.128389
H6    H     H_    0.000314 0.470099 0.951063 0.113283
H7    H     H_    0.083147 0.474190 0.787312 0.136962
H8    H     H_    0.650080 0.520728 0.776310 0.194816
H9    H     H_    0.558637 0.502350 0.168780 0.106948
H10   H     H_    0.618408 0.785087 0.864172 0.122694
H11   H     H_    0.436487 0.841796 0.876686 0.117577
H12   H     H_    0.015701 0.634323 0.058951 0.107168
H13   H     H_    0.561111 0.824121 0.767401 0.146271
H14   H     H_    0.782233 0.888227 0.512342 0.150200
H15   H     H_    0.109989 0.907700 0.482341 0.102966
H16   H     H_    0.790777 0.111579 0.492149 0.148786
H17   H     H_    0.094861 0.092434 0.517082 0.101053
H18   H     H_    0.323810 0.376380 0.603981 0.132516
H19   H     H_    0.415533 0.550086 0.452148 0.203468
H20   H     H_    0.584928 0.367308 0.597823 0.134735
N1    N     N_2   0.346430 0.498660 0.500980 -0.345836
N2    N     N_2   0.652550 0.498630 0.501000 -0.345995
O1    O     O_R   0.117050 0.321960 0.499980 -0.495908
O2    O     O_R   0.882890 0.321920 0.500020 -0.494246
O3    O     O_R   0.052910 0.500040 0.629810 -0.494342
O4    O     O_R   0.818750 0.499990 0.629840 -0.497497
O5    O     O_R   0.117110 0.678080 0.499980 -0.491663
O6    O     O_R   0.882950 0.678040 0.500020 -0.493508
O7    O     O_R   0.181250 0.500010 0.370160 -0.503581
O8    O     O_R   0.947090 0.499960 0.370190 -0.497823
O9    O     O_3   0.477253 0.663288 0.828504 -0.589061

loop_
_geom_bond_atom_site_label_1
_geom_bond_atom_site_label_2
_ccdc_geom_bond_type
C4    O4    A    
C26   C27   A    
C19   C23   A    
C1    O1    A    
C28   O9    S    
C15   O6    A    
C23   C27   A    
C22   O9    S    
C13   N1    D    
C20   H7    S    
C6    H4    S    
Cu2   O8    S    
H19   N1    S    
C14   H20   S    
C1    C11   S    
Cu1   Cu2   S    
C7    C18   A    
Cu2   O4    S    
C19   C20   A    
C2    C3    A    
C5    H12   S    
C4    O3    A    
C9    H15   S    
C25   C26   A    
C13   C14   S    
Cu2   N2    S    
Cu1   O1    S    
C29   H5    S    
C26   H9    S    
C11   H17   S    
C22   H11   S    
Cu1   N1    S    
C2    C29   A    
C13   H18   S    
C4    C17   S    
Cu1   O5    S    
C8    C10   S    
C28   C29   A    
C15   O5    A    
C1    O2    A    
C3    C7    A    
H2    N2    S    
C5    C6    A    
C6    C18   A    
C7    H3    S    
C22   H13   S    
C2    C5    A    
C10   C11   D    
C14   N2    D    
C22   H10   S    
C3    C25   A    
C17   C20   A    
C24   C25   A    
C16   C18   S    
C16   O8    A    
Cu2   O6    S    
C10   H16   S    
C12   C24   A    
C8    H14   S    
C12   C23   A    
C19   H6    S    
Cu2   O2    S    
C27   H1    S    
C9    C15   S    
C16   O7    A    
Cu1   O3    S    
C12   C21   A    
C17   C21   A    
C24   C28   A    
Cu1   O7    S    
C8    C9    D    
C21   H8    S    
