data_mof_unit_13434.cif
_audit_creation_date              2013-03-05T15:54:26-0500
_audit_creation_method            fapswitch 2.2
_symmetry_space_group_name_H-M    P1
_symmetry_Int_Tables_number       1
_space_group_crystal_system       triclinic
_cell_length_a                    15.710878
_cell_length_b                    10.727213
_cell_length_c                    9.90504
_cell_angle_alpha                 88.875661
_cell_angle_beta                  90.222334
_cell_angle_gamma                 91.951087
_cell_volume                      1668.03774219

loop_
_atom_site_label
_atom_site_type_symbol
_atom_site_description
_atom_site_fract_x
_atom_site_fract_y
_atom_site_fract_z
_atom_type_partial_charge
O1    O     O_R   0.500000 0.316780 0.614690 -0.659054
O2    O     O_R   0.499990 0.316750 0.385360 -0.639431
C1    C     C_R   0.503872 0.259610 0.502497 0.870999
O3    O     O_R   0.376780 0.500000 0.614650 -0.639721
O4    O     O_R   0.376770 0.499980 0.385310 -0.633501
C2    C     C_R   0.337961 0.499377 0.499791 0.888826
Zn1   Zn    Zn3+2 0.500010 0.500020 0.653130 0.985747
Zn2   Zn    Zn3+2 0.499990 0.499980 0.346870 0.946860
O5    O     O_R   0.500010 0.683250 0.614640 -0.589261
O6    O     O_R   0.500000 0.683220 0.385310 -0.623640
O7    O     O_R   0.623230 0.500020 0.614690 -0.562789
O8    O     O_R   0.623220 0.500000 0.385350 -0.617851
C3    C     C_R   0.491287 0.738615 0.498995 0.888316
C4    C     C_R   0.662049 0.500304 0.500262 0.926016
C5    C     C_3   0.969173 0.383265 0.536219 -0.148687
C6    C     C_3   0.025657 0.413897 0.411529 -0.151829
H1    H     H_    0.048865 0.345506 0.338673 0.152769
H2    H     H_    0.941769 0.289863 0.565310 0.152952
H3    H     H_    0.947051 0.553843 0.274949 0.153561
C7    C     C_1   0.248939 0.498338 0.499491 -0.143156
C8    C     C_1   0.751076 0.499524 0.500877 -0.134446
C9    C     C_3   0.027953 0.466672 0.624920 -0.139578
C10   C     C_3   0.082604 0.497308 0.500233 0.183716
C11   C     C_3   0.974373 0.581309 0.589842 -0.147561
C12   C     C_3   0.917402 0.497922 0.501129 0.179262
C13   C     C_3   0.030817 0.611927 0.465164 -0.164883
C14   C     C_3   0.972087 0.528535 0.376466 -0.161305
C15   C     C_1   0.173552 0.497597 0.499693 -0.044360
C16   C     C_1   0.826452 0.498715 0.501211 -0.044235
H4    H     H_    0.058215 0.705339 0.436081 0.153279
H5    H     H_    0.951203 0.649711 0.662715 0.163331
H6    H     H_    0.053061 0.441339 0.726388 0.159208
C17   C     C_R   0.498249 0.103271 0.763038 -0.148264
H7    H     H_    0.534591 0.187632 0.784417 0.170404
C18   C     C_R   0.464932 0.037340 0.874760 -0.111426
H8    H     H_    0.471638 0.075462 0.974802 0.132614
C19   C     C_R   0.421350 0.924033 0.857089 -0.038929
H9    H     H_    0.392163 0.875162 0.942576 0.133952
C20   C     C_R   0.419477 0.870549 0.730145 -0.089009
H10   H     H_    0.386362 0.781083 0.719945 0.139701
C21   C     C_R   0.460785 0.931428 0.619027 0.113796
C22   C     C_R   0.488402 0.055983 0.630690 0.121197
C23   C     C_R   0.505382 0.125313 0.508881 -0.113291
C24   C     C_R   0.511491 0.064982 0.385581 -0.210381
H11   H     H_    0.513685 0.892690 0.286573 0.177238
C25   C     C_R   0.501633 0.938000 0.381120 -0.200532
C26   C     C_R   0.479176 0.870570 0.498040 -0.127046
C27   C     C_R   0.386054 0.339222 0.142279 -0.201418
H12   H     H_    0.382925 0.332357 0.249411 0.225263
C28   C     C_R   0.329132 0.261054 0.073533 -0.294647
H13   H     H_    0.285968 0.200063 0.131183 0.199989
C29   C     C_R   0.328296 0.260425 0.932903 0.322050
C30   C     C_R   0.385989 0.339590 0.862349 -0.232323
H14   H     H_    0.385636 0.333150 0.755584 0.241518
C31   C     C_R   0.443654 0.421043 0.929010 0.023567
C32   C     C_R   0.443716 0.420969 0.073417 0.167070
N1    N     N_R   0.499210 0.498800 0.142780 -0.134336
C33   C     C_R   0.553722 0.575699 0.070794 -0.184440
C34   C     C_R   0.554211 0.575713 0.927614 0.350938
N2    N     N_R   0.499180 0.498720 0.857170 -0.175173
H15   H     H_    0.597600 0.637234 0.124371 0.174831
N3    N     N_R   0.270339 0.177753 0.861678 0.212054
O9    O     O_R   0.218424 0.101803 0.927645 -0.398209
O10   O     O_R   0.269343 0.176814 0.730271 -0.415803
N4    N     N_R   0.613918 0.656070 0.857382 0.227836
O11   O     O_R   0.691171 0.619424 0.840793 -0.390528
O12   O     O_R   0.599396 0.774444 0.846655 -0.403577
H16   H     H_    0.525835 0.115553 0.292167 0.175761

loop_
_geom_bond_atom_site_label_1
_geom_bond_atom_site_label_2
_geom_bond_distance
_ccdc_geom_bond_type
C5    H2    1.110200 S    
C28   C29   1.393100 A    
C23   C24   1.398485 A    
C30   H14   1.061094 S    
C19   H9    1.082271 S    
Zn2   N1    2.021794 S    
O4    Zn2   1.974430 S    
C2    C7    1.398275 S    
C21   C22   1.397501 A    
N3    O10   1.301852 A    
C18   H8    1.082789 S    
N4    O12   1.300016 A    
Zn2   O8    1.971756 S    
Zn1   O5    1.994821 S    
C6    C14   1.546835 S    
C27   C28   1.390389 A    
C28   H13   1.082654 S    
C21   C26   1.411402 A    
C11   H5    1.110391 S    
C34   N2    1.373254 A    
C20   C21   1.416877 A    
C29   N3    1.441494 S    
C10   C15   1.428801 S    
C11   C12   1.530894 S    
C29   C30   1.400117 A    
Zn1   O7    1.974431 S    
C1    C23   1.441775 S    
C13   C14   1.546556 S    
N3    O9    1.301526 A    
C9    H6    1.110444 S    
C33   H15   1.082823 S    
O3    Zn1   1.971756 S    
C17   C22   1.420889 A    
C4    C8    1.398987 S    
O3    C2    1.288780 A    
C27   H12   1.063462 S    
C17   C18   1.395475 A    
O8    C4    1.289305 A    
C13   H4    1.110234 S    
C6    C10   1.530767 S    
N1    C33   1.362317 A    
C30   C31   1.408664 A    
C12   C16   1.429229 S    
O4    C2    1.289357 A    
C19   C20   1.392092 A    
O7    C4    1.289065 A    
C9    C11   1.546927 S    
C31   C32   1.430343 A    
C24   H16   1.083882 S    
C12   C14   1.530942 S    
C22   C23   1.426106 A    
C5    C6    1.547118 S    
H11   C25   1.083795 S    
Zn1   N2    2.020889 S    
C24   C25   1.367258 A    
C17   H7    1.077579 S    
C32   N1    1.377512 A    
C5    C12   1.531101 S    
Zn2   O6    2.009506 S    
N4    O11   1.300459 A    
C5    C9    1.547110 S    
C10   C13   1.530875 S    
O2    Zn2   1.994822 S    
C20   H10   1.082281 S    
C27   C32   1.407882 A    
O5    C3    1.288889 A    
C25   C26   1.393479 A    
O1    Zn1   2.009507 S    
O2    C1    1.303720 A    
C7    C15   1.184158 T    
C18   C19   1.388377 A    
C33   C34   1.418252 A    
C31   N2    1.376122 A    
C8    C16   1.184540 T    
C9    C10   1.530884 S    
C34   N4    1.425964 S    
C3    C26   1.434487 S    
C11   C13   1.546632 S    
C6    H1    1.110401 S    
O1    C1    1.282403 A    
O6    C3    1.293388 A    
H3    C14   1.110400 S    
