data_mof_unit_18294.cif
_audit_creation_date              2012-12-10T17:35:36-0500
_audit_creation_method            fapswitch 2.2
_symmetry_space_group_name_H-M    P1
_symmetry_Int_Tables_number       1
_space_group_crystal_system       triclinic
_cell_length_a                    10.719631
_cell_length_b                    12.323882
_cell_length_c                    13.168854
_cell_angle_alpha                 116.637863
_cell_angle_beta                  77.597192
_cell_angle_gamma                 101.66416
_cell_volume                      1507.5455751

loop_
_atom_site_label
_atom_site_type_symbol
_atom_type_description
_atom_site_fract_x
_atom_site_fract_y
_atom_site_fract_z
_atom_type_partial_charge
C1    C     C_R   0.508711 0.854941 0.286749 0.828750
C2    C     C_3   0.120618 0.006003 0.510496 0.146992
C3    C     C_3   0.082634 0.139061 0.575376 0.025861
C4    C     C_3   0.034360 0.920869 0.565533 0.009601
C5    C     C_R   0.325739 0.272792 0.020263 -0.179649
C6    C     C_R   0.454332 0.227292 0.834736 -0.045542
C7    C     C_R   0.588698 0.815802 0.085505 -0.212883
C8    C     C_R   0.614849 0.736931 0.970880 -0.147876
C9    C     C_R   0.570898 0.613247 0.933683 -0.170460
C10   C     C_R   0.493471 0.566276 0.010300 0.031676
C11   C     C_R   0.451159 0.650063 0.123908 0.080369
C12   C     C_R   0.739521 0.001560 0.502622 0.765927
C13   C     C_R   0.454638 0.439040 0.976754 0.070597
C14   C     C_R   0.365693 0.398065 0.052556 0.138540
C15   C     C_R   0.312099 0.482443 0.157254 -0.294972
C16   C     C_R   0.349348 0.607495 0.191536 0.150218
C17   C     C_R   0.501533 0.350773 0.869675 -0.241591
C18   C     C_R   0.368933 0.187706 0.911267 -0.189675
C19   C     C_R   0.511066 0.773365 0.163855 -0.092320
C20   C     C_R   0.705723 0.348527 0.329583 -0.306563
C21   C     C_R   0.326086 0.758618 0.645523 0.062685
C22   C     C_R   0.288231 0.661478 0.676710 -0.259072
C23   C     C_R   0.481333 0.145038 0.713489 0.803273
C24   C     C_R   0.353281 0.558290 0.621657 -0.197891
C25   C     C_R   0.458034 0.551000 0.534239 -0.005486
C26   C     C_R   0.493306 0.653113 0.505094 0.288397
C27   C     C_R   0.529325 0.446992 0.475086 -0.039510
C28   C     C_R   0.633860 0.447807 0.388700 0.184035
C29   C     C_R   0.666598 0.547741 0.361724 -0.297025
C30   C     C_R   0.598202 0.647786 0.418504 -0.196214
C31   C     C_R   0.502317 0.341457 0.497451 0.011968
C32   C     C_R   0.674414 0.248149 0.355847 0.064640
C33   C     C_R   0.259626 0.003556 0.505509 0.806905
C34   C     C_3   0.951801 0.963781 0.383603 -0.422528
C35   C     C_3   0.093062 0.956239 0.385027 -0.499290
C36   C     C_3   0.934876 0.134377 0.584523 -0.408986
C37   C     C_3   0.892541 0.913691 0.554627 -0.353950
C38   C     C_3   0.876875 0.003619 0.506408 0.110566
Cu1   Cu    Cu3+1 0.529690 0.098270 0.475420 0.930321
Cu2   Cu    Cu3+1 0.470310 0.901730 0.524580 0.914169
H1    H     H_    0.947887 0.030667 0.349385 0.178439
H2    H     H_    0.886502 0.159518 0.674375 0.160566
H3    H     H_    0.331164 0.092128 0.885193 0.143148
H4    H     H_    0.236792 0.451624 0.211451 0.140143
H5    H     H_    0.257203 0.241109 0.077723 0.128464
H6    H     H_    0.573498 0.375308 0.810183 0.141425
H7    H     H_    0.632908 0.909848 0.113416 0.152152
H8    H     H_    0.596834 0.557624 0.843654 0.128636
H9    H     H_    0.674040 0.771029 0.911120 0.138235
H10   H     H_    0.907343 0.873068 0.325137 0.158231
H11   H     H_    0.729538 0.171291 0.310475 0.116649
H12   H     H_    0.746661 0.548955 0.295820 0.146826
H13   H     H_    0.785801 0.348654 0.263448 0.132282
H14   H     H_    0.424464 0.332855 0.561442 0.130988
H15   H     H_    0.275506 0.838382 0.689394 0.113941
H16   H     H_    0.319901 0.485988 0.649413 0.133968
H17   H     H_    0.208235 0.666308 0.744053 0.140364
H18   H     H_    0.632019 0.719259 0.391448 0.204233
H19   H     H_    0.112634 0.859742 0.336223 0.182865
H20   H     H_    0.157289 0.009020 0.339906 0.181461
H21   H     H_    0.916290 0.203008 0.558072 0.159176
H22   H     H_    0.130001 0.189175 0.521851 0.143773
H23   H     H_    0.830981 0.934755 0.639388 0.183811
H24   H     H_    0.858513 0.818320 0.496359 0.148603
H25   H     H_    0.062711 0.826536 0.517112 0.133098
N1    N     N_R   0.574690 0.246280 0.438200 -0.178884
N2    N     N_R   0.426100 0.754320 0.561190 -0.207762
O1    O     O_R   0.537340 0.972510 0.318130 -0.589320
O2    O     O_R   0.487200 0.806530 0.359650 -0.580314
O3    O     O_R   0.707380 0.082980 0.479220 -0.588638
O4    O     O_R   0.657240 0.917000 0.520740 -0.608350
O5    O     O_R   0.512800 0.193470 0.640350 -0.582143
O6    O     O_R   0.462660 0.027490 0.681870 -0.591536
O7    O     O_R   0.342760 0.083000 0.479260 -0.583205
O8    O     O_R   0.292620 0.917020 0.520780 -0.604949
N3    N     N_3   0.046695 0.963338 0.686915 -0.605876
H26   H     H_    0.142977 0.975861 0.697507 0.228307
H27   H     H_    0.001325 0.894514 0.712884 0.203142
N4    N     N_3   0.128618 0.206687 0.687494 -0.603402
H28   H     H_    0.129826 0.300160 0.711886 0.203391
H29   H     H_    0.064864 0.186878 0.750694 0.256660
N5    N     N_3   0.272038 0.689773 0.287445 -0.584230
H30   H     H_    0.177889 0.668838 0.268465 0.187413
H31   H     H_    0.269956 0.671627 0.358206 0.244211

loop_
_geom_bond_atom_site_label_1
_geom_bond_atom_site_label_2
_ccdc_geom_bond_type
C2    C35   S    
C31   N1    A    
Cu2   O4    S    
Cu1   O1    S    
C36   H2    S    
C3    N4    S    
C22   H17   S    
C21   H15   S    
C7    C8    A    
C11   C19   A    
C29   C30   A    
C26   N2    A    
C28   C29   A    
N3    H27   S    
C15   H4    S    
C4    H25   S    
C15   C16   A    
C1    O1    A    
Cu2   O6    S    
C35   H19   S    
C34   C35   S    
Cu1   O7    S    
C33   O8    A    
C8    C9    A    
Cu2   N2    S    
Cu1   O5    S    
C9    C10   A    
C13   C14   A    
C21   N2    A    
C34   H1    S    
C23   O6    A    
C37   H23   S    
N3    H26   S    
C6    C18   A    
C34   H10   S    
C1    C19   S    
Cu2   O2    S    
C27   C31   A    
C24   C25   A    
Cu1   Cu2   S    
N4    H29   S    
C5    C18   A    
C20   C28   A    
C25   C26   A    
C5    H5    S    
C1    O2    A    
C35   H20   S    
C7    H7    S    
C2    C4    S    
C32   H11   S    
C37   C38   S    
C11   C16   A    
C16   N5    S    
C17   H6    S    
C5    C14   A    
C2    C33   S    
C12   O4    A    
C26   C30   A    
C7    C19   A    
Cu1   N1    S    
C22   C24   A    
C24   H16   S    
C36   H21   S    
C37   H24   S    
C32   N1    A    
C20   C32   A    
C3    H22   S    
C6    C17   A    
C12   O3    A    
C34   C38   S    
C23   O5    A    
C20   H13   S    
C10   C13   A    
C25   C27   A    
N5    H31   S    
Cu2   O8    S    
C13   C17   A    
C36   C38   S    
C2    C3    S    
C18   H3    S    
C3    C36   S    
C6    C23   S    
C30   H18   S    
Cu1   O3    S    
C31   H14   S    
C12   C38   S    
C4    N3    S    
C10   C11   A    
N4    H28   S    
C33   O7    A    
C4    C37   S    
C9    H8    S    
N5    H30   S    
C27   C28   A    
C14   C15   A    
C21   C22   A    
C8    H9    S    
C29   H12   S    
