data_mof_unit_25324.cif
_audit_creation_date              2012-12-11T16:50:53-0500
_audit_creation_method            fapswitch 2.2
_symmetry_space_group_name_H-M    P1
_symmetry_Int_Tables_number       1
_space_group_crystal_system       triclinic
_cell_length_a                    6.919206
_cell_length_b                    28.832247
_cell_length_c                    32.163934
_cell_angle_alpha                 100.831433
_cell_angle_beta                  89.622399
_cell_angle_gamma                 90.459411
_cell_volume                      6301.98149664

loop_
_atom_site_label
_atom_site_type_symbol
_atom_type_description
_atom_site_fract_x
_atom_site_fract_y
_atom_site_fract_z
_atom_type_partial_charge
O1    O     O_R   0.494350 0.453170 0.452520 -0.540130
O2    O     O_R   0.820980 0.455850 0.538220 -0.542345
O3    O     O_R   0.994300 0.546830 0.547480 -0.540222
C1    C     C_R   0.651465 0.445659 0.551643 0.702648
O4    O     O_R   0.823860 0.447590 0.452270 -0.543181
O5    O     O_R   0.997200 0.538510 0.460920 -0.539928
C2    C     C_R   0.654920 0.434763 0.436537 0.696242
O6    O     O_R   0.491440 0.461490 0.539080 -0.539314
O7    O     O_3   0.661790 0.529840 0.502940 -0.360489
V1    V     V_3+5 0.935470 0.494460 0.499450 1.412493
O8    O     O_R   0.327090 0.544150 0.461780 -0.516473
C3    C     C_R   0.159299 0.553873 0.447817 0.727962
O9    O     O_R   0.324210 0.552410 0.547730 -0.543684
C4    C     C_R   0.155119 0.565293 0.563424 0.689673
V2    V     V_3+5 0.435840 0.505540 0.500550 1.432900
O10   O     O_3   0.159650 0.470160 0.497060 -0.371498
C5    C     C_R   0.225710 0.883246 0.878964 -0.152479
H1    H     H_    0.357803 0.900940 0.891218 0.120939
C6    C     C_R   0.237047 0.847591 0.842926 -0.137554
H2    H     H_    0.377064 0.839296 0.828314 0.100895
C7    C     C_R   0.069753 0.823707 0.825482 0.094907
C8    C     C_R   0.890579 0.836553 0.845158 -0.134739
H3    H     H_    0.759011 0.818518 0.833028 0.100161
C9    C     C_R   0.879107 0.872362 0.881181 -0.156335
H4    H     H_    0.738783 0.881227 0.895444 0.120495
C10   C     C_R   0.046614 0.896205 0.898586 -0.055586
C11   C     C_R   0.938573 0.780805 0.755600 -0.146528
H5    H     H_    0.817425 0.804769 0.758782 0.112496
C12   C     C_R   0.951303 0.745496 0.719282 -0.145841
H6    H     H_    0.839399 0.743303 0.695609 0.111689
C13   C     C_R   0.108211 0.714115 0.713186 0.081101
C14   C     C_R   0.252074 0.719102 0.744463 -0.146578
H7    H     H_    0.373223 0.695137 0.741281 0.112385
C15   C     C_R   0.239344 0.754411 0.780781 -0.145963
H8    H     H_    0.351249 0.756604 0.804453 0.111527
C16   C     C_R   0.082437 0.785792 0.786876 0.081015
C17   C     C_R   0.300083 0.663359 0.654903 -0.134828
H9    H     H_    0.431649 0.681392 0.667037 0.100285
C18   C     C_R   0.311561 0.627557 0.618876 -0.155934
H10   H     H_    0.451886 0.618695 0.604612 0.120471
C19   C     C_R   0.144054 0.603719 0.601464 -0.054249
C20   C     C_R   0.964954 0.616675 0.621085 -0.152198
H11   H     H_    0.832862 0.598985 0.608826 0.120621
C21   C     C_R   0.953612 0.652322 0.657128 -0.137693
H12   H     H_    0.813591 0.660616 0.671739 0.100867
C22   C     C_R   0.120904 0.676202 0.674578 0.094839
C23   C     C_R   0.145871 0.657754 0.282591 0.570089
N1    N     N_R   0.109955 0.675992 0.324545 -0.551178
C24   C     C_R   0.062477 0.722735 0.337240 0.576821
C25   C     C_R   0.049362 0.752822 0.307491 -0.031226
C26   C     C_R   0.088735 0.734643 0.264543 -0.016440
C27   C     C_R   0.137900 0.686766 0.251905 -0.027790
C28   C     C_R   0.999242 0.800655 0.319694 -0.140025
C29   C     C_R   0.988610 0.829955 0.289708 -0.140326
C30   C     C_R   0.028735 0.812250 0.246762 -0.028491
C31   C     C_R   0.079243 0.764426 0.234169 -0.015746
C32   C     C_R   0.120616 0.746335 0.191279 -0.029220
C33   C     C_R   0.169736 0.698461 0.179040 -0.140983
C34   C     C_R   0.177772 0.669031 0.208943 -0.141099
C35   C     C_R   0.020500 0.841216 0.216029 0.572213
N2    N     N_R   0.062059 0.823192 0.174360 -0.559826
C36   C     C_R   0.111533 0.776652 0.161679 0.572946
O11   O     O_2   0.187549 0.611543 0.270422 -0.525625
O12   O     O_2   0.030441 0.740329 0.378592 -0.520422
H13   H     H_    0.967949 0.815648 0.352479 0.172314
H14   H     H_    0.949440 0.866575 0.300344 0.171650
O13   O     O_2   0.973048 0.887119 0.227804 -0.520690
O14   O     O_2   0.150510 0.759626 0.120514 -0.519567
H15   H     H_    0.202027 0.683529 0.146289 0.171942
H16   H     H_    0.216073 0.632360 0.198269 0.171445
C37   C     C_R   0.224489 0.866829 0.124604 -0.087831
H17   H     H_    0.362817 0.854189 0.133199 0.117004
C38   C     C_R   0.217352 0.896610 0.094869 -0.196352
H18   H     H_    0.351447 0.906214 0.081037 0.130681
C39   C     C_R   0.039340 0.913625 0.083116 -0.058885
C40   C     C_R   0.868879 0.900033 0.102005 -0.195758
H19   H     H_    0.729398 0.912492 0.093915 0.127958
C41   C     C_R   0.876510 0.870490 0.131938 -0.085195
H20   H     H_    0.743869 0.860574 0.146148 0.118449
C42   C     C_R   0.054273 0.853645 0.143454 0.381718
C43   C     C_R   0.965203 0.638907 0.381157 -0.100102
H21   H     H_    0.829756 0.656356 0.377770 0.141509
C44   C     C_R   0.978966 0.609463 0.410993 -0.254215
H22   H     H_    0.853647 0.605554 0.430414 0.173026
C45   C     C_R   0.151488 0.585489 0.415933 -0.076739
C46   C     C_R   0.312216 0.591690 0.389764 0.170622
C47   C     C_R   0.297344 0.622245 0.360453 -0.121939
H23   H     H_    0.420443 0.627461 0.340818 0.128189
C48   C     C_R   0.124260 0.645715 0.355671 0.341127
C49   C     C_R   0.729376 0.207204 0.825222 0.582112
N3    N     N_R   0.576030 0.176602 0.825449 -0.554971
C50   C     C_R   0.430228 0.174534 0.796276 0.578503
C51   C     C_R   0.433995 0.204063 0.765978 -0.029817
C52   C     C_R   0.591382 0.235128 0.765214 -0.020859
C53   C     C_R   0.741051 0.236610 0.794877 -0.027574
C54   C     C_R   0.284770 0.203062 0.736331 -0.147623
C55   C     C_R   0.292387 0.232308 0.706256 -0.145579
C56   C     C_R   0.449463 0.263299 0.705041 -0.027629
C57   C     C_R   0.599127 0.264782 0.734705 -0.020862
C58   C     C_R   0.756509 0.295847 0.733942 -0.029752
C59   C     C_R   0.905734 0.296849 0.763589 -0.147735
C60   C     C_R   0.898125 0.267600 0.793663 -0.145706
C61   C     C_R   0.461140 0.292704 0.674696 0.582209
N4    N     N_R   0.614480 0.323308 0.674470 -0.554947
C62   C     C_R   0.760273 0.325378 0.703645 0.578408
O15   O     O_2   0.869279 0.209749 0.854603 -0.528791
O16   O     O_2   0.282898 0.143559 0.796107 -0.527339
H24   H     H_    0.161204 0.179757 0.736308 0.170629
H25   H     H_    0.174451 0.230595 0.684031 0.169651
O17   O     O_2   0.321245 0.290156 0.645312 -0.528738
O18   O     O_2   0.907588 0.356358 0.703820 -0.527432
H26   H     H_    0.029296 0.320155 0.763613 0.170579
H27   H     H_    0.016065 0.269313 0.815887 0.169595
C63   C     C_R   0.785453 0.353631 0.616835 -0.086225
H28   H     H_    0.905286 0.330356 0.619194 0.162863
C64   C     C_R   0.795195 0.383602 0.587295 -0.205943
H29   H     H_    0.923318 0.382936 0.567675 0.138880
C65   C     C_R   0.640433 0.413592 0.582778 -0.057210
C66   C     C_R   0.476217 0.413074 0.608718 -0.206393
H30   H     H_    0.355107 0.435948 0.606246 0.133411
C67   C     C_R   0.468317 0.383814 0.638887 -0.087806
H31   H     H_    0.342078 0.384866 0.659110 0.158463
C68   C     C_R   0.622619 0.353646 0.643231 0.354752
C69   C     C_R   0.405087 0.146299 0.883098 -0.086142
H32   H     H_    0.285270 0.169583 0.880745 0.162795
C70   C     C_R   0.395363 0.116337 0.912646 -0.205970
H33   H     H_    0.267271 0.117021 0.932281 0.139077
C71   C     C_R   0.550115 0.086338 0.917155 -0.058360
C72   C     C_R   0.714297 0.086835 0.891198 -0.205990
H34   H     H_    0.835395 0.063951 0.893664 0.133872
C73   C     C_R   0.722178 0.116087 0.861023 -0.087669
H35   H     H_    0.848393 0.115022 0.840790 0.158479
C74   C     C_R   0.567893 0.146266 0.856688 0.354760
C75   C     C_R   0.725484 0.116768 0.121090 -0.152377
H36   H     H_    0.857149 0.098997 0.108942 0.121451
C76   C     C_R   0.736764 0.152469 0.157100 -0.136461
H37   H     H_    0.876280 0.160726 0.171800 0.101628
C77   C     C_R   0.569947 0.176446 0.174405 0.094812
C78   C     C_R   0.391328 0.163650 0.154617 -0.134859
H38   H     H_    0.260204 0.181758 0.166630 0.099783
C79   C     C_R   0.379900 0.127795 0.118631 -0.155967
H39   H     H_    0.240000 0.118973 0.104281 0.120127
C80   C     C_R   0.546913 0.103855 0.101367 -0.055344
C81   C     C_R   0.436447 0.219521 0.244134 -0.144913
H40   H     H_    0.313659 0.195626 0.240877 0.113402
C82   C     C_R   0.448991 0.254871 0.280427 -0.146658
C83   C     C_R   0.607911 0.286154 0.286628 0.080740
C84   C     C_R   0.753941 0.281045 0.255478 -0.145501
H41   H     H_    0.876753 0.304934 0.258747 0.112797
C85   C     C_R   0.741382 0.245700 0.219180 -0.146693
H42   H     H_    0.855056 0.243411 0.195605 0.110646
C86   C     C_R   0.582491 0.214404 0.212984 0.081123
C87   C     C_R   0.799174 0.336724 0.345081 -0.134808
H43   H     H_    0.930209 0.318580 0.333057 0.099869
C88   C     C_R   0.810665 0.372469 0.381149 -0.156624
H44   H     H_    0.950533 0.381178 0.395553 0.119432
C89   C     C_R   0.643734 0.396429 0.398434 -0.057470
C90   C     C_R   0.465213 0.383692 0.378622 -0.157256
H45   H     H_    0.333641 0.401512 0.390766 0.119392
C91   C     C_R   0.453865 0.348091 0.342539 -0.136441
H46   H     H_    0.314389 0.339937 0.327789 0.101266
C92   C     C_R   0.620572 0.324062 0.325238 0.095071
O19   O     O_R   0.699170 0.038480 0.960880 -0.537678
O20   O     O_R   0.366800 0.052460 0.047690 -0.542586
O21   O     O_R   0.193520 0.961530 0.039110 -0.538355
C93   C     C_R   0.535751 0.065371 0.063372 0.693695
O22   O     O_R   0.369630 0.044100 0.961740 -0.541262
O23   O     O_R   0.196370 0.953120 0.952550 -0.538951
C94   C     C_R   0.539126 0.054290 0.948307 0.707532
O24   O     O_R   0.696320 0.046890 0.047450 -0.539404
O25   O     O_3   0.528890 0.970170 0.997080 -0.367794
V3    V     V_3+5 0.255190 0.005530 0.000540 1.406952
O26   O     O_R   0.866460 0.947530 0.952310 -0.542713
C95   C     C_R   0.035549 0.934647 0.936614 0.694015
O27   O     O_R   0.863630 0.955880 0.038270 -0.541457
C96   C     C_R   0.031734 0.945692 0.051785 0.709072
V4    V     V_3+5 0.754830 0.994440 0.999470 1.406501
O28   O     O_3   0.031000 0.029830 0.002920 -0.366894
N5    N     N_3   0.488119 0.566114 0.392071 -0.649838
H47   H     H_    0.458332 0.530402 0.380614 0.222122
H48   H     H_    0.593255 0.576035 0.371885 0.223035
H49   H     H_    0.335324 0.257163 0.304005 0.110988

loop_
_geom_bond_atom_site_label_1
_geom_bond_atom_site_label_2
_ccdc_geom_bond_type
C47   H23   S    
C70   H33   S    
C88   C89   A    
C38   H18   S    
C83   C84   A    
C1    O6    A    
C71   C72   A    
C63   H28   S    
C32   C33   A    
C32   C36   A    
O22   C94   A    
C7    C16   S    
O26   C95   A    
C31   C32   A    
C59   H26   S    
O23   C95   A    
C58   C62   A    
C59   C60   A    
C3    C45   S    
C61   O17   S    
C5    C10   A    
C6    C7    A    
C17   H9    S    
C40   C41   A    
C26   C31   A    
C79   C80   A    
C23   O11   S    
C41   C42   A    
C11   C12   A    
C10   C95   S    
N2    C42   S    
C56   C61   A    
C56   C57   A    
C64   H29   S    
C72   C73   A    
C15   H8    S    
C19   C20   A    
C65   C66   A    
C37   C42   A    
C46   N5    S    
C75   C80   A    
O8    V2    S    
C89   C90   A    
O27   C96   A    
C35   O13   S    
N4    C68   S    
C13   C22   S    
O19   V4    S    
O1    V2    S    
O9    C4    A    
C87   C88   A    
C28   H13   S    
O7    V1    S    
C15   C16   A    
C53   C60   A    
C43   C48   A    
O21   V3    S    
C62   O18   S    
C81   C86   A    
C71   C94   S    
C87   H43   S    
C24   O12   S    
O1    C2    A    
C7    C8    A    
C90   C91   A    
C38   C39   A    
C1    C65   S    
N2    C36   A    
C20   C21   A    
O4    V1    S    
N4    C62   A    
C43   C44   A    
C21   C22   A    
C55   C56   A    
C66   C67   A    
C25   C28   A    
C82   H49   S    
O24   V4    S    
C26   C27   A    
C49   C53   A    
C40   H19   S    
C49   O15   S    
O27   V4    S    
N3    C50   A    
O4    C2    A    
C41   H20   S    
C76   H37   S    
C75   C76   A    
C77   C86   S    
C33   C34   A    
C28   C29   A    
C84   C85   A    
C43   H21   S    
C82   C83   A    
C35   N2    A    
O21   C96   A    
C14   C15   A    
C23   C27   A    
O2    C1    A    
C39   C40   A    
C80   C93   S    
C12   H6    S    
C27   C34   A    
C81   C82   A    
C55   H25   S    
C50   O16   S    
C23   N1    A    
N3    C74   S    
O26   V4    S    
C78   H38   S    
C54   C55   A    
C30   C31   A    
C5    H1    S    
C67   H31   S    
C25   C26   A    
C51   C52   A    
C9    H4    S    
O25   V3    S    
C45   C46   A    
C75   H36   S    
O3    C4    A    
C4    C19   S    
C29   H14   S    
C63   C68   A    
C69   C74   A    
C76   C77   A    
N1    C24   A    
C44   C45   A    
V4    O28   S    
O6    V2    S    
N1    C48   S    
O9    V2    S    
C90   H45   S    
C85   C86   A    
C44   H22   S    
C20   H11   S    
C73   H35   S    
O2    V1    S    
C88   H44   S    
C21   H12   S    
C69   C70   A    
C72   H34   S    
V3    O28   S    
C29   C30   A    
C70   C71   A    
C39   C96   S    
C46   C47   A    
C13   C14   A    
C8    H3    S    
C9    C10   A    
C81   H40   S    
C73   C74   A    
C83   C92   S    
O5    V1    S    
C63   C64   A    
C66   H30   S    
C33   H15   S    
C93   O24   A    
O22   V3    S    
C2    C89   S    
C11   C16   A    
C51   C54   A    
C57   C58   A    
C36   O14   S    
C87   C92   A    
C91   H46   S    
C6    H2    S    
C47   C48   A    
O7    V2    S    
C37   H17   S    
C17   C18   A    
O3    V1    S    
V1    O10   S    
C79   H39   S    
C14   H7    S    
O5    C3    A    
C78   C79   A    
C49   N3    A    
C52   C57   A    
O20   C93   A    
C50   C51   A    
C5    C6    A    
C64   C65   A    
C8    C9    A    
C84   H41   S    
C54   H24   S    
C52   C53   A    
O19   C94   A    
C67   C68   A    
O20   V3    S    
C77   C78   A    
C34   H16   S    
N5    H47   S    
C18   H10   S    
O23   V3    S    
C18   C19   A    
C12   C13   A    
C24   C25   A    
C37   C38   A    
C61   N4    A    
C60   H27   S    
C85   H42   S    
O25   V4    S    
C58   C59   A    
N5    H48   S    
C17   C22   A    
C30   C35   A    
V2    O10   S    
O8    C3    A    
C91   C92   A    
C69   H32   S    
C11   H5    S    
