data_mof_unit_13896.cif
_audit_creation_date              2012-10-26T19:02:11-0400
_audit_creation_method            fapswitch 2.2
_symmetry_space_group_name_H-M    P1
_symmetry_Int_Tables_number       1
_space_group_crystal_system       triclinic
_cell_length_a                    23.522718
_cell_length_b                    10.830243
_cell_length_c                    22.248948
_cell_angle_alpha                 90.925358
_cell_angle_beta                  90.296948
_cell_angle_gamma                 90.124822
_cell_volume                      5667.2398934

loop_
_atom_site_label
_atom_site_type_symbol
_atom_type_description
_atom_site_fract_x
_atom_site_fract_y
_atom_site_fract_z
_atom_type_partial_charge
C1    C     C_R   0.498951 0.261830 0.499587 0.557151
C2    C     C_R   0.701781 0.496807 0.445878 -0.118410
C3    C     C_R   0.238918 0.510746 0.553570 -0.039410
C4    C     C_R   0.761019 0.497617 0.446082 -0.036252
C5    C     C_R   0.209078 0.504625 0.499018 0.240819
C6    C     C_R   0.790923 0.501534 0.500611 0.241812
C7    C     C_R   0.353941 0.214673 0.365398 -0.090779
C8    C     C_R   0.650106 0.782598 0.629758 -0.095247
C9    C     C_R   0.384934 0.168862 0.413910 0.084247
C10   C     C_R   0.618925 0.836085 0.583263 0.072994
C11   C     C_R   0.438664 0.114868 0.404021 0.053927
C12   C     C_R   0.501309 0.737880 0.500525 0.565280
C13   C     C_R   0.563954 0.882261 0.594618 0.062125
C14   C     C_R   0.460268 0.104853 0.344892 0.274994
C15   C     C_R   0.541469 0.877594 0.653064 0.270743
C16   C     C_R   0.390760 0.501508 0.499866 0.570101
C17   C     C_R   0.609249 0.499623 0.500121 0.565015
C18   C     C_R   0.427757 0.148429 0.296848 -0.084343
C19   C     C_R   0.573269 0.822935 0.699154 -0.090364
C20   C     C_R   0.375162 0.203888 0.307126 -0.151338
C21   C     C_R   0.627241 0.775396 0.687376 -0.148285
C22   C     C_R   0.472143 0.930549 0.455614 -0.090125
C23   C     C_R   0.238741 0.498403 0.444681 -0.042059
C24   C     C_R   0.527861 0.068354 0.545212 -0.115643
C25   C     C_R   0.501615 0.871323 0.501354 0.016456
C26   C     C_R   0.498378 0.127849 0.499302 -0.009816
C27   C     C_R   0.530249 0.940326 0.546441 0.031066
C28   C     C_R   0.470109 0.058261 0.454065 0.000070
C29   C     C_R   0.552313 0.534163 0.872141 0.453790
C30   C     C_R   0.450805 0.578176 0.124231 0.440402
C31   C     C_R   0.452346 0.504390 0.870705 0.455056
C32   C     C_R   0.548152 0.550559 0.128516 0.451226
C33   C     C_R   0.449416 0.524662 0.933957 0.008802
C34   C     C_R   0.761353 0.504417 0.555038 -0.048873
C35   C     C_R   0.551828 0.537262 0.064535 -0.010393
C36   C     C_R   0.501216 0.528302 0.967058 -0.083548
C37   C     C_R   0.500475 0.536869 0.030918 -0.089097
C38   C     C_R   0.553725 0.526523 0.936048 0.013419
C39   C     C_R   0.448543 0.554729 0.061371 0.003515
C40   C     C_R   0.880253 0.608504 0.513340 0.413008
C41   C     C_R   0.119710 0.397851 0.486191 0.412758
C42   C     C_R   0.397032 0.540900 0.964957 0.108986
C43   C     C_R   0.604317 0.522476 0.033527 0.104677
C44   C     C_R   0.396766 0.555172 0.028337 0.121284
C45   C     C_R   0.298003 0.498432 0.444851 -0.133038
C46   C     C_R   0.605240 0.517557 0.969648 0.122557
C47   C     C_R   0.540099 0.453141 0.253317 0.265107
C48   C     C_R   0.474607 0.602913 0.742530 0.252928
C49   C     C_R   0.543034 0.453300 0.316880 0.038624
C50   C     C_R   0.474107 0.595014 0.678918 0.019348
C51   C     C_R   0.452213 0.541413 0.323213 0.032198
C52   C     C_R   0.527068 0.409834 0.680185 0.015300
C53   C     C_R   0.445917 0.538193 0.260475 0.072440
C54   C     C_R   0.528830 0.412732 0.743375 0.048634
C55   C     C_R   0.494020 0.513596 0.223081 0.174973
C56   C     C_R   0.702087 0.502941 0.554980 -0.137406
C57   C     C_R   0.502815 0.510854 0.775324 0.248493
C58   C     C_R   0.879850 0.393618 0.487596 0.419583
C59   C     C_R   0.120136 0.612779 0.511844 0.419855
C60   C     C_R   0.939946 0.390456 0.486709 0.034201
C61   C     C_R   0.060033 0.615959 0.512723 0.034305
C62   C     C_R   0.969894 0.501872 0.499822 -0.054899
C63   C     C_R   0.030080 0.504550 0.499615 -0.054862
C64   C     C_R   0.939749 0.611019 0.513180 0.006870
C65   C     C_R   0.060219 0.395391 0.486283 0.006954
C66   C     C_R   0.971425 0.281588 0.473417 0.109735
C67   C     C_R   0.328233 0.503800 0.499513 0.018580
C68   C     C_R   0.028549 0.724829 0.526012 0.109630
C69   C     C_R   0.030652 0.285707 0.473456 -0.084377
C70   C     C_R   0.969318 0.720705 0.525995 -0.084649
C71   C     C_3   0.557461 0.106083 0.345507 -0.011724
C72   C     C_3   0.609609 0.031319 0.328050 -0.332789
C73   C     C_3   0.488432 0.025665 0.700422 -0.014368
C74   C     C_3   0.432972 0.096057 0.693502 -0.345798
C75   C     C_3   0.558152 0.283629 0.193764 -0.014856
C76   C     C_3   0.605722 0.199270 0.172309 -0.329851
C77   C     C_3   0.397967 0.733956 0.755674 -0.005854
C78   C     C_R   0.671780 0.499494 0.500360 0.015607
C79   C     C_3   0.372495 0.823218 0.801540 -0.326016
C80   C     C_R   0.298159 0.510170 0.553896 -0.118826
Cu1   Cu    Cu3+1 0.500000 0.499970 0.559570 0.963705
Cu2   Cu    Cu3+1 0.500000 0.500030 0.440430 0.960956
H1    H     H_    0.442558 0.136047 0.251195 0.135653
H2    H     H_    0.946263 0.804870 0.536230 0.199521
H3    H     H_    0.215807 0.493861 0.402377 0.146895
H4    H     H_    0.784364 0.507163 0.597316 0.141273
H5    H     H_    0.320067 0.493473 0.402288 0.137123
H6    H     H_    0.680063 0.504911 0.597608 0.140007
H7    H     H_    0.320342 0.514504 0.596659 0.135696
H8    H     H_    0.679550 0.494092 0.403128 0.142328
H9    H     H_    0.216101 0.515502 0.595687 0.141241
H10   H     H_    0.783780 0.495354 0.403901 0.145413
H11   H     H_    0.349886 0.234740 0.269553 0.169926
H12   H     H_    0.555979 0.816353 0.743955 0.174216
H13   H     H_    0.651486 0.733241 0.723042 0.172169
H14   H     H_    0.312349 0.254641 0.372557 0.160076
H15   H     H_    0.692347 0.747164 0.621326 0.159574
H16   H     H_    0.561017 0.129076 0.394137 0.152824
H17   H     H_    0.557730 0.193098 0.319982 0.123366
H18   H     H_    0.607370 0.004634 0.279701 0.170433
H19   H     H_    0.648629 0.087091 0.336300 0.126494
H20   H     H_    0.611810 0.946377 0.355280 0.199294
H21   H     H_    0.523623 0.089324 0.687883 0.141200
H22   H     H_    0.493449 0.999213 0.748246 0.174416
H23   H     H_    0.449880 0.877031 0.421157 0.158034
H24   H     H_    0.396470 0.036397 0.705589 0.164586
H25   H     H_    0.433378 0.179083 0.723465 0.138763
H26   H     H_    0.427819 0.125913 0.646243 0.187855
H27   H     H_    0.532281 0.309454 0.154032 0.144677
H28   H     H_    0.530707 0.230554 0.224604 0.111051
H29   H     H_    0.633801 0.175323 0.210624 0.165054
H30   H     H_    0.587474 0.113102 0.152461 0.123750
H31   H     H_    0.631341 0.246121 0.137659 0.197108
H32   H     H_    0.370632 0.649751 0.753240 0.169770
H33   H     H_    0.397768 0.780458 0.711546 0.153463
H34   H     H_    0.550463 0.121830 0.579391 0.122366
H35   H     H_    0.397629 0.910132 0.803346 0.159264
H36   H     H_    0.327974 0.844999 0.788797 0.127323
H37   H     H_    0.372911 0.781494 0.846759 0.200787
H38   H     H_    0.579299 0.412089 0.338829 0.132232
H39   H     H_    0.454403 0.666599 0.652947 0.158911
H40   H     H_    0.416261 0.569186 0.350000 0.162062
H41   H     H_    0.547823 0.335453 0.655924 0.143946
H42   H     H_    0.053705 0.201533 0.463235 0.199971
I1    I     I_    0.937147 0.103326 0.452114 -0.177394
I2    I     I_    0.657661 0.849044 0.497653 -0.346728
I3    I     I_    0.062831 0.903074 0.547334 -0.180441
I4    I     I_    0.317181 0.562530 0.917872 -0.206784
I5    I     I_    0.683085 0.492603 0.081452 -0.163744
I6    I     I_    0.316277 0.559204 0.073994 -0.118197
I7    I     I_    0.684805 0.476515 0.925627 -0.126689
I8    I     I_    0.358595 0.508858 0.237827 -0.302991
I9    I     I_    0.570329 0.266506 0.788012 -0.348908
I10   I     I_    0.345407 0.168672 0.499529 -0.327171
N1    N     N_R   0.851838 0.501219 0.500643 -0.406007
N2    N     N_R   0.148149 0.505130 0.498871 -0.406082
N3    N     N_R   0.502723 0.515547 0.840896 -0.360904
N4    N     N_R   0.496756 0.541458 0.157587 -0.393036
N5    N     N_R   0.500010 0.500010 0.350920 -0.274944
N6    N     N_R   0.499990 0.499990 0.649080 -0.271272
O1    O     O_R   0.500000 0.319610 0.550310 -0.504414
O2    O     O_2   0.149113 0.293605 0.473919 -0.454879
O3    O     O_2   0.849091 0.290991 0.475962 -0.432493
O4    O     O_2   0.150893 0.715443 0.523392 -0.431850
O5    O     O_2   0.599288 0.563586 0.841178 -0.443261
O6    O     O_2   0.413457 0.657745 0.148512 -0.405796
O7    O     O_2   0.405899 0.470727 0.838894 -0.462610
O8    O     O_2   0.594252 0.584603 0.160728 -0.389900
O9    O     O_3   0.508285 0.035531 0.332418 -0.555625
O10   O     O_3   0.486669 0.918869 0.663270 -0.571325
O11   O     O_3   0.582079 0.389171 0.222526 -0.518141
O12   O     O_R   0.500000 0.680390 0.449690 -0.486698
O13   O     O_3   0.454038 0.705523 0.773641 -0.555066
O14   O     O_R   0.499990 0.319670 0.449690 -0.511354
O15   O     O_R   0.500010 0.680330 0.550310 -0.498881
O16   O     O_R   0.417880 0.499930 0.550320 -0.495451
O17   O     O_R   0.582120 0.500070 0.449680 -0.503092
O18   O     O_R   0.417880 0.499990 0.449700 -0.516644
O19   O     O_R   0.582120 0.500010 0.550300 -0.496995
O20   O     O_2   0.850825 0.712659 0.525727 -0.455355

loop_
_geom_bond_atom_site_label_1
_geom_bond_atom_site_label_2
_ccdc_geom_bond_type
C5    N2    S    
C48   O13   S    
C63   C65   A    
C75   C76   S    
C34   C56   A    
C16   O16   A    
C23   C45   A    
C73   O10   S    
Cu1   N6    S    
C73   C74   S    
C14   C18   A    
C53   C55   A    
C24   C27   A    
C20   H11   S    
C41   O2    S    
C66   C69   A    
Cu1   Cu2   S    
C48   C57   A    
C47   C49   A    
C15   C19   A    
C7    H14   S    
Cu2   N5    S    
C55   N4    S    
C30   N4    A    
C33   C42   A    
C3    H9    S    
C36   C37   A    
C35   C37   A    
C24   C26   A    
C29   O5    S    
Cu2   O18   S    
C52   H41   S    
C50   N6    A    
C56   H6    S    
C49   H38   S    
C72   H19   S    
C44   I6    S    
C79   H36   S    
C59   N2    A    
C33   C36   A    
C56   C78   A    
C60   C62   A    
C34   H4    S    
C80   H7    S    
C2    H8    S    
C12   O12   A    
C62   C64   A    
C77   O13   S    
C74   H25   S    
C58   O3    S    
C73   H22   S    
C75   O11   S    
C22   C25   A    
C79   H37   S    
C29   C38   A    
C45   C67   A    
C31   C33   A    
C64   C70   A    
C31   N3    A    
C70   H2    S    
C42   I4    S    
C31   O7    S    
C9    I10   S    
Cu1   O1    S    
C60   C66   A    
C22   C28   A    
C45   H5    S    
C50   H39   S    
C42   C44   A    
C3    C80   A    
C40   N1    A    
C52   C54   A    
C30   O6    S    
C77   C79   S    
C71   H16   S    
C75   H27   S    
C59   C61   A    
C16   O18   A    
C32   C35   A    
C43   I5    S    
C4    C6    A    
C46   I7    S    
C53   I8    S    
Cu2   O17   S    
C41   C65   A    
C21   H13   S    
C69   H42   S    
C54   I9    S    
C71   H17   S    
C6    C34   A    
C51   C53   A    
C2    C4    A    
C8    H15   S    
C32   N4    A    
C62   C63   A    
C2    C78   A    
C74   H24   S    
C5    C23   A    
C13   C15   A    
C76   H30   S    
C17   O17   A    
C61   C63   A    
C18   H1    S    
C57   N3    S    
C16   C67   S    
C48   C50   A    
C9    C11   A    
C68   I3    S    
C19   H12   S    
C68   C70   A    
C47   O11   S    
C59   O4    S    
C24   H34   S    
C49   N5    A    
C1    C26   S    
C6    N1    S    
C12   O15   A    
C77   H32   S    
C35   C43   A    
C47   C55   A    
C72   H18   S    
C7    C9    A    
C75   H28   S    
C19   C21   A    
C40   O20   S    
C67   C80   A    
C3    C5    A    
C10   C13   A    
C8    C21   A    
Cu1   O19   S    
C39   C44   A    
C32   O8    S    
C58   N1    A    
C25   C27   A    
C22   H23   S    
C29   N3    A    
C26   C28   A    
Cu1   O15   S    
C66   I1    S    
C12   C25   S    
C76   H31   S    
C71   C72   S    
C37   C39   A    
C10   I2    S    
C61   C68   A    
C71   O9    S    
C72   H20   S    
C11   C28   S    
C76   H29   S    
C65   C69   A    
C40   C64   A    
C79   H35   S    
C14   O9    S    
C36   C38   A    
C17   C78   S    
C52   N6    A    
C30   C39   A    
C18   C20   A    
C15   O10   S    
C1    O14   A    
C17   O19   A    
C43   C46   A    
C38   C46   A    
C1    O1    A    
C74   H26   S    
Cu2   O14   S    
C73   H21   S    
C8    C10   A    
C7    C20   A    
C23   H3    S    
Cu1   O16   S    
C51   H40   S    
C13   C27   S    
C77   H33   S    
C58   C60   A    
C11   C14   A    
C41   N2    A    
Cu2   O12   S    
C4    H10   S    
C54   C57   A    
C51   N5    A    
