data_mof_unit_6204.cif
_audit_creation_date              2012-12-10T17:29:14-0500
_audit_creation_method            fapswitch 2.2
_symmetry_space_group_name_H-M    P1
_symmetry_Int_Tables_number       1
_space_group_crystal_system       triclinic
_cell_length_a                    12.116752
_cell_length_b                    12.772373
_cell_length_c                    13.108026
_cell_angle_alpha                 86.05866
_cell_angle_beta                  113.850509
_cell_angle_gamma                 93.055168
_cell_volume                      1850.2479294

loop_
_atom_site_label
_atom_site_type_symbol
_atom_type_description
_atom_site_fract_x
_atom_site_fract_y
_atom_site_fract_z
_atom_type_partial_charge
Br1   Br    Br    0.796305 0.029409 0.488141 -0.516183
Br2   Br    Br    0.821827 0.304793 0.677111 -0.491841
Br3   Br    Br    0.181773 0.677200 0.308358 -0.544319
Br4   Br    Br    0.543822 0.725829 0.774648 -0.480793
Br5   Br    Br    0.319081 0.831096 0.546967 -0.484399
C1    C     C_R   0.472086 0.301414 0.483166 0.922281
C2    C     C_R   0.613541 0.483414 0.830895 -0.085986
C3    C     C_R   0.529169 0.815892 0.491122 -0.160710
C4    C     C_R   0.567689 0.495568 0.709053 0.929923
C5    C     C_R   0.444077 0.194593 0.443907 -0.160214
C6    C     C_R   0.318726 0.036745 0.401880 0.224412
C7    C     C_R   0.328824 0.144768 0.417915 0.129041
C8    C     C_R   0.532926 0.141717 0.424666 0.141213
C9    C     C_R   0.533381 0.031995 0.439288 -0.001675
C10   C     C_R   0.426092 0.980297 0.437480 -0.053441
C11   C     C_R   0.429937 0.876119 0.477915 0.305981
C12   C     C_R   0.553898 0.473260 0.986540 0.074085
C13   C     C_R   0.632067 0.864915 0.484681 -0.283944
C14   C     C_R   0.637768 0.972648 0.464279 0.318908
C15   C     C_R   0.026345 0.626676 0.424449 0.058433
C16   C     C_R   0.521895 0.701640 0.502179 0.989290
C17   C     C_R   0.134428 0.600906 0.416509 0.433068
C18   C     C_R   0.156558 0.453497 0.541347 -0.095031
C19   C     C_R   0.038206 0.464958 0.536038 -0.046645
C20   C     C_R   0.968845 0.550853 0.474625 0.011875
C21   C     C_R   0.845141 0.554588 0.463576 0.249428
C22   C     C_R   0.872062 0.403013 0.586748 0.368020
C23   C     C_R   0.548870 0.523892 0.886348 -0.033880
C24   C     C_R   0.989775 0.393186 0.593413 -0.295734
C25   C     C_R   0.431813 0.498427 0.290795 0.863026
C26   C     C_R   0.262508 0.555730 0.979848 0.192976
C27   C     C_R   0.389087 0.492465 0.168823 -0.116357
C28   C     C_R   0.704856 0.411691 0.887575 -0.162458
C29   C     C_R   0.721365 0.370846 0.993532 -0.133450
C30   C     C_R   0.643025 0.397149 0.040837 -0.147500
C31   C     C_3   0.160343 0.502319 0.111239 -0.809452
C32   C     C_3   0.196914 0.984307 0.338992 -0.812350
C33   C     C_3   0.218451 0.205094 0.404381 -0.802241
C34   C     C_R   0.465774 0.497753 0.025014 0.007287
C35   C     C_3   0.606969 0.200415 0.368499 -0.751984
C36   C     C_3   0.764784 0.635704 0.381691 -0.797620
C37   C     C_3   0.990607 0.740530 0.397937 -0.795554
C38   C     C_3   0.316814 0.733229 0.836033 -0.749919
C39   C     C_3   0.139194 0.575272 0.887110 -0.884416
C40   C     C_R   0.368067 0.561697 0.957322 0.040299
C41   C     C_R   0.385087 0.632321 0.876196 0.079665
C42   C     C_R   0.480788 0.614939 0.845144 0.260343
C43   C     C_R   0.476018 0.466408 0.131615 -0.289862
C44   C     C_R   0.272866 0.519266 0.088186 0.191390
H1    H     H_    0.711271 0.820078 0.501532 0.200820
H2    H     H_    0.096474 0.447822 0.051083 0.224419
H3    H     H_    0.147584 0.030016 0.259518 0.233717
H4    H     H_    0.206434 0.904861 0.315159 0.278497
H5    H     H_    0.142586 0.978688 0.390093 0.267028
H6    H     H_    0.132685 0.158746 0.372873 0.239549
H7    H     H_    0.228305 0.231478 0.486588 0.252271
H8    H     H_    0.206808 0.273254 0.343905 0.234553
H9    H     H_    0.557236 0.268797 0.316412 0.201518
H10   H     H_    0.694532 0.229034 0.431157 0.296556
H11   H     H_    0.622378 0.149818 0.310192 0.240787
H12   H     H_    0.043968 0.329254 0.644698 0.193582
H13   H     H_    0.769253 0.631085 0.299223 0.219972
H14   H     H_    0.670166 0.629538 0.363976 0.283324
H15   H     H_    0.788881 0.714644 0.414127 0.217788
H16   H     H_    0.065211 0.792766 0.395343 0.281855
H17   H     H_    0.914810 0.751587 0.315211 0.250592
H18   H     H_    0.972018 0.770608 0.466626 0.250585
H19   H     H_    0.380550 0.801674 0.850101 0.278120
H20   H     H_    0.258368 0.730963 0.745566 0.272601
H21   H     H_    0.261286 0.748384 0.882617 0.233366
H22   H     H_    0.097385 0.642681 0.905653 0.255948
H23   H     H_    0.211675 0.390140 0.592585 0.150747
H24   H     H_    0.143125 0.590128 0.804316 0.252976
H25   H     H_    0.079504 0.504543 0.878234 0.253515
H26   H     H_    0.558366 0.432393 0.190986 0.172884
H27   H     H_    0.757852 0.381739 0.847283 0.198239
H28   H     H_    0.651799 0.354189 0.117367 0.132269
H29   H     H_    0.789237 0.312769 0.035512 0.155458
H30   H     H_    0.176658 0.464210 0.194023 0.256551
H31   H     H_    0.115466 0.578004 0.101277 0.277716
N1    N     N_R   0.798200 0.480260 0.519790 -0.125687
N2    N     N_R   0.201820 0.519740 0.480210 -0.131854
O1    O     O_R   0.579910 0.341070 0.505280 -0.570597
O2    O     O_R   0.388440 0.353740 0.492580 -0.635754
O3    O     O_R   0.643280 0.490550 0.663120 -0.579502
O4    O     O_R   0.451810 0.503220 0.650420 -0.596545
O5    O     O_R   0.611560 0.646260 0.507420 -0.639387
O6    O     O_R   0.420090 0.658930 0.494720 -0.523882
O7    O     O_R   0.548190 0.496780 0.349580 -0.647106
O8    O     O_R   0.356720 0.509450 0.336880 -0.585685
Zn1   Zn    Zn3+2 0.627850 0.491540 0.508480 0.975523
Zn2   Zn    Zn3+2 0.372150 0.508460 0.491520 0.999683

loop_
_geom_bond_atom_site_label_1
_geom_bond_atom_site_label_2
_ccdc_geom_bond_type
C16   O5    A    
C23   C42   A    
C35   H11   S    
C18   N2    A    
O5    Zn1   S    
C22   C24   A    
C2    C28   A    
C25   O8    A    
O3    Zn1   S    
C40   C41   A    
O2    Zn2   S    
C17   N2    A    
C13   C14   A    
C15   C20   A    
C10   C11   A    
N2    Zn2   S    
C39   H22   S    
C29   C30   A    
C12   C34   A    
C6    C32   S    
C19   C24   A    
C8    C35   S    
C4    O3    A    
C6    C10   A    
C33   H6    S    
O6    Zn2   S    
C38   H19   S    
Br5   C11   S    
C37   H16   S    
C18   C19   A    
C5    C8    A    
Br2   C22   S    
O7    Zn1   S    
C34   C40   A    
C32   H4    S    
C16   O6    A    
C3    C11   A    
C35   H10   S    
C8    C9    A    
C27   C43   A    
C43   H26   S    
C36   H13   S    
C26   C44   A    
C25   O7    A    
C18   H23   S    
C3    C16   S    
C24   H12   S    
Br1   C14   S    
C35   H9    S    
C26   C39   S    
C22   N1    A    
C1    O2    A    
C19   C20   A    
C31   H31   S    
C32   H3    S    
C20   C21   A    
C30   H28   S    
C3    C13   A    
C2    C23   A    
C4    O4    A    
C33   H8    S    
C28   H27   S    
O8    Zn2   S    
C28   C29   A    
C39   H25   S    
C31   H2    S    
C5    C7    A    
C32   H5    S    
C15   C17   A    
C38   H21   S    
C37   H18   S    
C36   H14   S    
C13   H1    S    
C2    C4    S    
C41   C42   A    
C1    O1    A    
C12   C23   A    
C9    C14   A    
C31   H30   S    
C1    C5    S    
C15   C37   S    
C6    C7    A    
C21   N1    A    
O1    Zn1   S    
O4    Zn2   S    
C29   H29   S    
C25   C27   S    
C7    C33   S    
C39   H24   S    
C38   C41   S    
C27   C44   A    
N1    Zn1   S    
C33   H7    S    
C38   H20   S    
C26   C40   A    
C37   H17   S    
C9    C10   A    
Br3   C17   S    
C12   C30   A    
C36   H15   S    
C31   C44   S    
C21   C36   S    
C34   C43   A    
Br4   C42   S    
