data_mof_unit_39103.cif
_audit_creation_date              2012-12-10T19:07:06-0500
_audit_creation_method            fapswitch 2.2
_symmetry_space_group_name_H-M    P1
_symmetry_Int_Tables_number       1
_space_group_crystal_system       triclinic
_cell_length_a                    27.791181
_cell_length_b                    10.821902
_cell_length_c                    9.529436
_cell_angle_alpha                 89.938769
_cell_angle_beta                  89.935164
_cell_angle_gamma                 89.763305
_cell_volume                      2865.982719

loop_
_atom_site_label
_atom_site_type_symbol
_atom_type_description
_atom_site_fract_x
_atom_site_fract_y
_atom_site_fract_z
_atom_type_partial_charge
C1    C     C_R   0.498971 0.262317 0.499909 0.811111
C2    C     C_R   0.279108 0.478265 0.627845 -0.091407
C3    C     C_R   0.253457 0.492774 0.502380 0.340895
C4    C     C_R   0.101448 0.487274 0.507719 -0.043795
C5    C     C_R   0.127450 0.395796 0.434603 -0.023217
C6    C     C_R   0.102627 0.302648 0.364304 -0.138664
C7    C     C_R   0.126734 0.580736 0.578644 -0.021585
C8    C     C_R   0.354467 0.497550 0.500683 -0.045362
C9    C     C_R   0.645085 0.499730 0.501043 -0.219886
C10   C     C_R   0.974182 0.395267 0.429493 0.040360
C11   C     C_R   0.973674 0.570776 0.595106 0.040171
C12   C     C_R   0.407437 0.499525 0.500099 0.805838
C13   C     C_R   0.948661 0.482505 0.512797 0.075723
C14   C     C_R   0.947416 0.313881 0.343748 -0.195919
C15   C     C_R   0.897430 0.315572 0.343359 -0.116761
C16   C     C_R   0.872051 0.398314 0.428200 -0.037842
C17   C     C_R   0.897497 0.481827 0.513384 -0.043602
C18   C     C_R   0.871649 0.565270 0.598442 -0.033527
C19   C     C_R   0.821171 0.563756 0.596652 0.613543
C20   C     C_R   0.821530 0.400623 0.428670 0.625212
C21   C     C_R   0.718154 0.405149 0.593475 0.499470
C22   C     C_R   0.668012 0.412746 0.587648 -0.340220
C23   C     C_R   0.499385 0.737690 0.499741 0.865574
C24   C     C_R   0.672879 0.582505 0.420006 0.366530
C25   C     C_R   0.723029 0.572743 0.423834 -0.243082
C26   C     C_R   0.745752 0.485167 0.509487 0.169448
C27   C     C_R   0.025325 0.393042 0.433319 0.041813
C28   C     C_R   0.050286 0.485380 0.509808 0.069859
C29   C     C_R   0.024713 0.575982 0.588192 0.041814
C30   C     C_R   0.052650 0.301007 0.363588 -0.200362
C31   C     C_R   0.101228 0.671934 0.651139 -0.139490
C32   C     C_R   0.946523 0.650752 0.682338 -0.196796
C33   C     C_R   0.896578 0.648034 0.683513 -0.121430
C34   C     C_R   0.592369 0.501938 0.499983 0.901159
C35   C     C_R   0.051300 0.669896 0.655910 -0.201599
C36   C     C_R   0.478187 0.063422 0.614158 0.104847
C37   C     C_R   0.494505 0.129290 0.497278 -0.158432
C38   C     C_R   0.504288 0.064524 0.372516 -0.164033
C39   C     C_R   0.504451 0.935912 0.372161 -0.116722
C40   C     C_R   0.495592 0.870828 0.497178 -0.085266
C41   C     C_R   0.479804 0.936201 0.614665 0.030602
C42   C     C_3   0.494818 0.929860 0.764904 -0.486223
C43   C     C_3   0.491662 0.070582 0.765765 0.299976
C44   C     C_R   0.520513 0.406235 0.073720 0.272451
C45   C     C_R   0.177968 0.398936 0.434595 0.542435
C46   C     C_R   0.475369 0.589077 0.074456 -0.043783
C47   C     C_R   0.475206 0.588708 0.925394 -0.046334
C48   C     C_R   0.520952 0.406985 0.926412 0.334544
C49   C     C_3   0.572407 0.367604 0.921132 -0.479935
C50   C     C_3   0.571659 0.364375 0.080372 -0.454367
C51   C     C_R   0.177227 0.581497 0.574435 0.538846
C52   C     C_R   0.278431 0.509479 0.375976 -0.089194
C53   C     C_R   0.328610 0.511525 0.374947 -0.205139
C54   C     C_R   0.329245 0.480953 0.627200 -0.175758
Cu1   Cu    Cu3+1 0.500000 0.499980 0.640670 1.001927
Cu2   Cu    Cu3+1 0.500000 0.500020 0.359330 0.999247
H1    H     H_    0.348205 0.469323 0.725599 0.184015
H2    H     H_    0.258895 0.521347 0.278601 0.151735
H3    H     H_    0.962720 0.715585 0.753468 0.144171
H4    H     H_    0.877536 0.711685 0.751710 0.195492
H5    H     H_    0.744988 0.634862 0.362117 0.199179
H6    H     H_    0.034654 0.745399 0.711411 0.143661
H7    H     H_    0.514600 0.112575 0.277484 0.196306
H8    H     H_    0.514346 0.888185 0.276435 0.194666
H9    H     H_    0.467714 0.882563 0.831470 0.228515
H10   H     H_    0.260115 0.464694 0.725910 0.153505
H11   H     H_    0.532214 0.894618 0.777446 0.193192
H12   H     H_    0.526647 0.116867 0.784270 0.075583
H13   H     H_    0.456100 0.660823 0.130308 0.142689
H14   H     H_    0.455592 0.659654 0.869384 0.139109
H15   H     H_    0.577230 0.274927 0.873241 0.203241
H16   H     H_    0.575008 0.269418 0.123987 0.205835
H17   H     H_    0.595967 0.433376 0.128458 0.258717
H18   H     H_    0.121777 0.230098 0.309024 0.190896
H19   H     H_    0.646501 0.350124 0.650195 0.205893
H20   H     H_    0.878711 0.251455 0.275576 0.196325
H21   H     H_    0.963934 0.249066 0.272717 0.144082
H22   H     H_    0.036596 0.224399 0.309288 0.143577
H23   H     H_    0.347095 0.524688 0.275974 0.165867
N1    N     N_R   0.201783 0.491108 0.503602 -0.467413
N2    N     N_R   0.797297 0.481813 0.513075 -0.445062
N3    N     N_R   0.500300 0.500930 0.147930 -0.190955
N4    N     N_R   0.500310 0.500890 0.852020 -0.187138
O1    O     O_R   0.500000 0.319640 0.618810 -0.561985
O2    O     O_2   0.796780 0.322944 0.345094 -0.487617
O3    O     O_2   0.201608 0.672404 0.639742 -0.529118
O4    O     O_2   0.796058 0.643456 0.677649 -0.497476
O5    O     O_R   0.500010 0.319680 0.381230 -0.591994
O6    O     O_R   0.430260 0.500000 0.618780 -0.563735
O7    O     O_R   0.430270 0.500040 0.381190 -0.593488
O8    O     O_R   0.499990 0.680320 0.618770 -0.589734
O9    O     O_R   0.500000 0.680360 0.381190 -0.574774
O10   O     O_R   0.569730 0.499960 0.618810 -0.592494
O11   O     O_R   0.569740 0.500000 0.381220 -0.544148
O12   O     O_2   0.203104 0.309991 0.367199 -0.525856
H24   H     H_    0.119797 0.745881 0.704894 0.190897
S1    S     S_3+6 0.646779 0.705246 0.322766 0.034871
O13   O     O_2   0.624154 0.655142 0.191721 -0.250749
O14   O     O_2   0.608695 0.768509 0.409020 -0.324993
O15   O     O_3   0.688798 0.809216 0.276835 -0.480575
H25   H     H_    0.697999 0.850133 0.365744 0.362982
S2    S     S_3+6 0.443128 0.128390 0.871653 -0.001385
O16   O     O_2   0.431164 0.258640 0.829090 -0.295178
O17   O     O_2   0.399220 0.049241 0.853807 -0.261795
O18   O     O_3   0.460247 0.126165 0.040711 -0.566204
H26   H     H_    0.435108 0.173603 0.091338 0.374045
H27   H     H_    0.596426 0.440452 0.878419 0.238926
S3    S     S_3+6 0.745411 0.295729 0.706398 0.042978
O19   O     O_2   0.768892 0.196438 0.619699 -0.251190
O20   O     O_2   0.782960 0.357983 0.794622 -0.262267
O21   O     O_3   0.703911 0.231430 0.812040 -0.533053
H28   H     H_    0.722067 0.171879 0.870848 0.395764

loop_
_geom_bond_atom_site_label_1
_geom_bond_atom_site_label_2
_ccdc_geom_bond_type
C10   C27   A    
Cu1   Cu2   S    
C40   C41   A    
C41   C42   S    
O21   H28   S    
C34   O10   A    
Cu1   O10   S    
S1    O13   D    
C49   H27   S    
C1    O1    A    
Cu2   O11   S    
C39   H8    S    
C12   O7    A    
C36   C37   A    
C53   H23   S    
C44   N3    A    
C38   C39   A    
C9    C22   A    
Cu2   O5    S    
C42   H11   S    
C15   C16   A    
S3    O19   D    
S2    O18   S    
C18   C19   A    
C14   H21   S    
C50   H16   S    
C51   N1    A    
C46   H13   S    
Cu1   O8    S    
C4    C28   A    
C46   N3    A    
C43   H12   S    
C23   C40   S    
C42   H9    S    
C47   N4    A    
C35   H6    S    
C16   C20   A    
C1    O5    A    
Cu2   O7    S    
C15   H20   S    
C21   C22   A    
C27   C30   A    
C36   C41   A    
C22   H19   S    
C4    C7    A    
C3    N1    S    
C51   O3    S    
S1    O14   D    
C21   C26   A    
C6    H18   S    
C7    C31   A    
C24   S1    S    
C12   O6    A    
C24   C25   A    
C10   C14   A    
C50   H17   S    
C8    C54   A    
C39   C40   A    
C16   C17   A    
C25   C26   A    
C5    C45   A    
C47   H14   S    
C37   C38   A    
C8    C12   S    
C20   O2    S    
C17   C18   A    
C25   H5    S    
S2    O17   D    
C52   H2    S    
C48   C49   S    
C6    C30   A    
C11   C32   A    
C26   N2    S    
C2    C54   A    
C9    C34   S    
C31   C35   A    
C42   C43   S    
Cu1   N4    S    
C45   O12   S    
S1    O15   S    
C52   C53   A    
C38   H7    S    
C44   C50   S    
C46   C47   A    
C28   C29   A    
C14   C15   A    
C34   O11   A    
C4    C5    A    
C2    H10   S    
C10   C13   A    
C8    C53   A    
C3    C52   A    
C48   N4    A    
C9    C24   A    
Cu2   N3    S    
C1    C37   S    
C33   H4    S    
O18   H26   S    
C29   C35   A    
C19   O4    S    
S3    O21   S    
C13   C17   A    
C32   C33   A    
C2    C3    A    
C43   S2    S    
C7    C51   A    
Cu1   O6    S    
C11   C13   A    
C5    C6    A    
O15   H25   S    
S3    O20   D    
C45   N1    A    
C23   O8    A    
S2    O16   D    
C18   C33   A    
C21   S3    S    
C30   H22   S    
C44   C48   A    
Cu2   O9    S    
C11   C29   A    
C49   C50   S    
C49   H15   S    
C27   C28   A    
C23   O9    A    
C36   C43   S    
C32   H3    S    
Cu1   O1    S    
C19   N2    A    
C54   H1    S    
C31   H24   S    
C20   N2    A    
