data_mof_unit_33342.cif
_audit_creation_date              2012-12-11T15:22:36-0500
_audit_creation_method            fapswitch 2.2
_symmetry_space_group_name_H-M    P1
_symmetry_Int_Tables_number       1
_space_group_crystal_system       monoclinic
_cell_length_a                    22.426441
_cell_length_b                    7.302437
_cell_length_c                    21.203113
_cell_angle_alpha                 90.0
_cell_angle_beta                  93.674132
_cell_angle_gamma                 90.0
_cell_volume                      3465.24750712

loop_
_atom_site_label
_atom_site_type_symbol
_atom_type_description
_atom_site_fract_x
_atom_site_fract_y
_atom_site_fract_z
_atom_type_partial_charge
O1    O     O_R   0.438030 0.494310 0.439340 -0.532848
O2    O     O_R   0.561970 0.994310 0.560660 -0.532848
O3    O     O_R   0.556900 0.822900 0.435960 -0.542952
O4    O     O_R   0.443100 0.322900 0.564040 -0.542952
C1    C     C_R   0.576551 0.655914 0.422461 0.722890
C2    C     C_R   0.423449 0.155914 0.577539 0.722890
O5    O     O_R   0.438170 0.823950 0.431660 -0.534142
O6    O     O_R   0.561830 0.323950 0.568340 -0.534142
O7    O     O_R   0.442390 0.995390 0.556340 -0.531837
O8    O     O_R   0.557610 0.495390 0.443660 -0.531837
C3    C     C_R   0.418290 0.655673 0.416585 0.688685
C4    C     C_R   0.581710 0.155673 0.583415 0.688685
O9    O     O_3   0.501520 0.661170 0.540910 -0.379746
O10   O     O_3   0.498480 0.161170 0.459090 -0.379746
V1    V     V_3+5 0.499720 0.935580 0.492410 1.387309
V2    V     V_3+5 0.500280 0.435580 0.507590 1.387309
C5    C     C_R   0.806132 0.067858 0.888287 0.344796
C6    C     C_R   0.193868 0.567858 0.111713 0.344796
C7    C     C_R   0.866252 0.079208 0.869700 -0.140202
C8    C     C_R   0.133748 0.579208 0.130300 -0.140202
C9    C     C_R   0.877345 0.097636 0.805989 -0.267483
C10   C     C_R   0.122655 0.597636 0.194011 -0.267483
C11   C     C_R   0.830476 0.112242 0.759657 0.114710
C12   C     C_R   0.169524 0.612242 0.240343 0.114710
C13   C     C_R   0.770627 0.101594 0.776587 -0.038912
C14   C     C_R   0.229373 0.601594 0.223413 -0.038912
C15   C     C_R   0.757502 0.072736 0.840852 0.005679
C16   C     C_R   0.242497 0.572736 0.159148 0.005679
C17   C     C_R   0.842957 0.137898 0.696185 -0.165385
C18   C     C_R   0.157043 0.637898 0.303815 -0.165385
C19   C     C_R   0.796759 0.153837 0.649168 -0.191870
C20   C     C_R   0.203241 0.653837 0.350832 -0.191870
C21   C     C_R   0.737102 0.144490 0.664660 0.116293
C22   C     C_R   0.262897 0.644489 0.335340 0.116293
C23   C     C_R   0.723915 0.118839 0.728469 0.068408
C24   C     C_R   0.276085 0.618839 0.271531 0.068408
C25   C     C_R   0.663954 0.109327 0.743758 0.079377
C26   C     C_R   0.336046 0.609327 0.256242 0.079377
C27   C     C_R   0.650678 0.077604 0.805954 -0.231861
C28   C     C_R   0.349322 0.577605 0.194046 -0.231861
C29   C     C_R   0.695800 0.051095 0.854329 0.102086
C30   C     C_R   0.304200 0.551095 0.145670 0.102086
C31   C     C_R   0.690366 0.158412 0.617327 -0.224649
C32   C     C_R   0.309634 0.658411 0.382673 -0.224649
C33   C     C_R   0.630651 0.146774 0.632958 -0.046241
C34   C     C_R   0.369349 0.646774 0.367042 -0.046240
C35   C     C_R   0.617662 0.123359 0.696092 -0.202075
C36   C     C_R   0.382338 0.623359 0.303908 -0.202075
H1    H     H_    0.923193 0.105369 0.792629 0.119609
H2    H     H_    0.076807 0.605369 0.207370 0.119609
H3    H     H_    0.888731 0.145889 0.682834 0.118434
H4    H     H_    0.111269 0.645888 0.317166 0.118434
H5    H     H_    0.807735 0.173225 0.600584 0.120172
H6    H     H_    0.192264 0.673224 0.399416 0.120172
H7    H     H_    0.700321 0.176491 0.568350 0.102042
H8    H     H_    0.299679 0.676491 0.431650 0.102042
H9    H     H_    0.571394 0.113681 0.707865 0.099785
H10   H     H_    0.428606 0.613681 0.292135 0.099785
H11   H     H_    0.604139 0.061824 0.816110 0.124079
H12   H     H_    0.395861 0.561825 0.183890 0.124079
C37   C     C_3   0.260756 0.219443 0.815633 -0.366129
C38   C     C_3   0.739244 0.719443 0.184366 -0.366130
C39   C     C_3   0.235733 0.889721 0.779648 0.189348
C40   C     C_3   0.764267 0.389721 0.220352 0.189348
C41   C     C_3   0.285166 0.908037 0.727780 -0.032222
C42   C     C_3   0.714834 0.408037 0.272220 -0.032222
H13   H     H_    0.277925 0.182478 0.863368 0.151731
H14   H     H_    0.722075 0.682478 0.136632 0.151731
H15   H     H_    0.328623 0.873372 0.751192 0.114062
H16   H     H_    0.671377 0.373371 0.248808 0.114061
C43   C     C_1   0.376327 0.147799 0.621108 -0.195165
C44   C     C_1   0.623672 0.647799 0.378891 -0.195165
C45   C     C_3   0.209062 0.089465 0.791892 0.241846
C46   C     C_3   0.790938 0.589465 0.208107 0.241847
C47   C     C_3   0.308944 0.239688 0.765244 -0.060673
C48   C     C_3   0.691056 0.739687 0.234756 -0.060673
C49   C     C_3   0.291883 0.114879 0.706276 0.195389
C50   C     C_3   0.708117 0.614879 0.293724 0.195389
C51   C     C_3   0.230402 0.184744 0.678444 -0.388012
C52   C     C_3   0.769598 0.684744 0.321556 -0.388012
C53   C     C_3   0.183905 0.182383 0.729408 -0.375102
C54   C     C_3   0.816095 0.682383 0.270591 -0.375103
C55   C     C_1   0.337410 0.135792 0.658216 -0.077107
C56   C     C_1   0.662590 0.635792 0.341783 -0.077107
C57   C     C_1   0.160774 0.086018 0.838028 -0.101939
C58   C     C_1   0.839226 0.586018 0.161972 -0.101939
C59   C     C_1   0.121679 0.081326 0.875540 -0.190222
C60   C     C_1   0.878321 0.581326 0.124460 -0.190222
H17   H     H_    0.172208 0.325221 0.740437 0.155170
H18   H     H_    0.827792 0.825221 0.259563 0.155170
H19   H     H_    0.140710 0.129592 0.710064 0.144239
H20   H     H_    0.859289 0.629592 0.289936 0.144239
H21   H     H_    0.235046 0.327086 0.660813 0.144439
H22   H     H_    0.764953 0.827086 0.339187 0.144439
H23   H     H_    0.241755 0.357068 0.823177 0.122076
H24   H     H_    0.758245 0.857068 0.176822 0.122077
H25   H     H_    0.305411 0.384046 0.748421 0.128702
H26   H     H_    0.694589 0.884046 0.251579 0.128702
H27   H     H_    0.213835 0.104474 0.636644 0.143580
H28   H     H_    0.786165 0.604474 0.363356 0.143580
O11   O     O_R   0.942420 0.735670 0.056390 -0.541849
O12   O     O_R   0.057580 0.235670 0.943610 -0.541849
O13   O     O_R   0.061840 0.404850 0.068350 -0.550345
O14   O     O_R   0.938160 0.904850 0.931650 -0.550345
C61   C     C_R   0.081337 0.573389 0.084144 0.686328
C62   C     C_R   0.918663 0.073389 0.915856 0.686329
O15   O     O_R   0.943100 0.406010 0.064050 -0.532926
O16   O     O_R   0.056900 0.906010 0.935950 -0.532925
O17   O     O_R   0.938020 0.234710 0.939330 -0.523990
O18   O     O_R   0.061980 0.734710 0.060670 -0.523990
C63   C     C_R   0.924290 0.574264 0.078770 0.718000
C64   C     C_R   0.075710 0.074263 0.921230 0.717999
O19   O     O_3   0.998500 0.567790 0.959120 -0.379723
O20   O     O_3   0.001500 0.067790 0.040880 -0.379723
V3    V     V_3+5 0.000280 0.293330 0.007580 1.397895
V4    V     V_3+5 0.999720 0.793330 0.992420 1.397895
O21   O     O_3   0.793556 0.091109 0.951149 -0.575025
C65   C     C_3   0.822428 0.960626 0.991849 0.120808
H29   H     H_    0.864801 0.019551 0.012649 0.155932
H30   H     H_    0.830585 0.827229 0.968259 0.114072
C66   C     C_3   0.785187 0.925967 0.047520 -0.828101
H31   H     H_    0.749476 0.825310 0.035389 0.220601
H32   H     H_    0.814209 0.873960 0.087474 0.204674
H33   H     H_    0.765612 0.055718 0.062517 0.245062
O22   O     O_3   0.206444 0.591109 0.048851 -0.575025
C67   C     C_3   0.177572 0.460626 0.008151 0.120808
H34   H     H_    0.135199 0.519551 0.987351 0.155932
H35   H     H_    0.169415 0.327228 0.031740 0.114072
C68   C     C_3   0.214813 0.425967 0.952480 -0.828101
H36   H     H_    0.250524 0.325311 0.964611 0.220601
H37   H     H_    0.185791 0.373960 0.912526 0.204674
H38   H     H_    0.234387 0.555718 0.937483 0.245062
C69   C     C_3   0.182819 0.749464 0.761344 -0.361811
C70   C     C_3   0.139029 0.784766 0.703443 -0.305779
C71   C     C_3   0.111185 0.608813 0.676228 -0.815180
H39   H     H_    0.145602 0.524231 0.654740 0.226691
H40   H     H_    0.089995 0.529964 0.713614 0.233872
H41   H     H_    0.076266 0.643273 0.638593 0.222293
H42   H     H_    0.101228 0.868894 0.718488 0.193153
H43   H     H_    0.161006 0.854098 0.664989 0.200987
H44   H     H_    0.201920 0.611027 0.757018 0.157201
H45   H     H_    0.154655 0.734681 0.802408 0.170205
C72   C     C_3   0.817181 0.249464 0.238656 -0.361810
C73   C     C_3   0.860971 0.284766 0.296557 -0.305779
C74   C     C_3   0.888815 0.108813 0.323772 -0.815179
H46   H     H_    0.854398 0.024230 0.345260 0.226691
H47   H     H_    0.910005 0.029964 0.286386 0.233872
H48   H     H_    0.923734 0.143273 0.361407 0.222293
H49   H     H_    0.898772 0.368894 0.281511 0.193153
H50   H     H_    0.838994 0.354098 0.335011 0.200987
H51   H     H_    0.798080 0.111027 0.242982 0.157201
H52   H     H_    0.845345 0.234681 0.197592 0.170205
C75   C     C_3   0.264390 0.802963 0.844389 -0.407552
C76   C     C_3   0.329296 0.839259 0.871773 -0.332925
C77   C     C_3   0.341434 0.744976 0.935596 -0.816760
H53   H     H_    0.309410 0.794068 0.969652 0.249404
H54   H     H_    0.337399 0.594461 0.930672 0.230341
H55   H     H_    0.387510 0.776944 0.954790 0.224682
H56   H     H_    0.362687 0.785700 0.840383 0.178241
H57   H     H_    0.339147 0.983383 0.881024 0.214714
H58   H     H_    0.234053 0.833333 0.882418 0.194976
H59   H     H_    0.263947 0.652171 0.839323 0.169203
C78   C     C_3   0.735610 0.302963 0.155611 -0.407552
C79   C     C_3   0.670703 0.339259 0.128227 -0.332926
C80   C     C_3   0.658566 0.244976 0.064404 -0.816760
H60   H     H_    0.690590 0.294068 0.030347 0.249405
H61   H     H_    0.662600 0.094461 0.069328 0.230341
H62   H     H_    0.612490 0.276944 0.045210 0.224681
H63   H     H_    0.637312 0.285699 0.159617 0.178242
H64   H     H_    0.660853 0.483383 0.118976 0.214714
H65   H     H_    0.765946 0.333333 0.117581 0.194976
H66   H     H_    0.736053 0.152171 0.160676 0.169203
C81   C     C_3   0.280079 0.771260 0.670332 -0.375919
C82   C     C_3   0.340911 0.699391 0.650375 -0.327934
C83   C     C_3   0.337528 0.647400 0.580490 -0.708688
H67   H     H_    0.306155 0.531195 0.571539 0.208914
H68   H     H_    0.322527 0.766176 0.550826 0.208112
H69   H     H_    0.382388 0.607506 0.566538 0.243767
H70   H     H_    0.377142 0.800771 0.659072 0.205594
H71   H     H_    0.354391 0.577140 0.679006 0.179372
H72   H     H_    0.254656 0.647028 0.680101 0.177954
H73   H     H_    0.255742 0.836768 0.629255 0.188260
C84   C     C_3   0.719921 0.271260 0.329668 -0.375921
C85   C     C_3   0.659089 0.199391 0.349625 -0.327935
C86   C     C_3   0.662472 0.147400 0.419510 -0.708688
H74   H     H_    0.693845 0.031195 0.428461 0.208914
H75   H     H_    0.677473 0.266176 0.449173 0.208112
H76   H     H_    0.617612 0.107506 0.433462 0.243768
H77   H     H_    0.622858 0.300771 0.340927 0.205595
H78   H     H_    0.645609 0.077140 0.320994 0.179372
H79   H     H_    0.745344 0.147028 0.319899 0.177955
H80   H     H_    0.744258 0.336768 0.370745 0.188260
C87   C     C_3   0.674228 0.967024 0.914356 -0.323136
C88   C     C_3   0.681961 0.757932 0.912931 -0.293238
C89   C     C_3   0.643275 0.661993 0.959549 -0.783446
H81   H     H_    0.655999 0.704815 0.008690 0.221659
H82   H     H_    0.595319 0.693958 0.948471 0.227992
H83   H     H_    0.649237 0.511781 0.955579 0.228087
H84   H     H_    0.668633 0.704947 0.864877 0.201690
H85   H     H_    0.729593 0.721706 0.923754 0.200557
H86   H     H_    0.694845 0.027788 0.957834 0.228135
H87   H     H_    0.625959 0.998079 0.917835 0.157460
C90   C     C_3   0.325772 0.467024 0.085644 -0.323136
C91   C     C_3   0.318039 0.257932 0.087069 -0.293238
C92   C     C_3   0.356725 0.161993 0.040451 -0.783445
H88   H     H_    0.344001 0.204816 0.991310 0.221659
H89   H     H_    0.404681 0.193958 0.051529 0.227991
H90   H     H_    0.350764 0.011782 0.044421 0.228087
H91   H     H_    0.331367 0.204947 0.135123 0.201690
H92   H     H_    0.270407 0.221706 0.076246 0.200557
H93   H     H_    0.305155 0.527788 0.042166 0.228135
H94   H     H_    0.374041 0.498079 0.082165 0.157460
C93   C     C_3   0.375495 0.220398 0.790409 -0.373988
C94   C     C_3   0.392721 0.343743 0.847079 -0.316270
C95   C     C_3   0.458999 0.326129 0.867467 -0.776705
H95   H     H_    0.469673 0.183057 0.882008 0.226609
H96   H     H_    0.486851 0.365607 0.828168 0.226893
H97   H     H_    0.470035 0.418153 0.908260 0.220679
H98   H     H_    0.383217 0.487482 0.833531 0.202488
H99   H     H_    0.366748 0.307972 0.887950 0.189771
H100  H     H_    0.387937 0.077348 0.801224 0.170476
H101  H     H_    0.404250 0.262572 0.752170 0.179321
C96   C     C_3   0.624504 0.720398 0.209591 -0.373988
C97   C     C_3   0.607279 0.843743 0.152921 -0.316269
C98   C     C_3   0.541001 0.826128 0.132533 -0.776705
H102  H     H_    0.530327 0.683055 0.117991 0.226609
H103  H     H_    0.513149 0.865605 0.171832 0.226893
H104  H     H_    0.529965 0.918152 0.091740 0.220679
H105  H     H_    0.616782 0.987482 0.166469 0.202487
H106  H     H_    0.633252 0.807972 0.112050 0.189771
H107  H     H_    0.612063 0.577348 0.198776 0.170477
H108  H     H_    0.595750 0.762571 0.247830 0.179321

loop_
_geom_bond_atom_site_label_1
_geom_bond_atom_site_label_2
_ccdc_geom_bond_type
C71   H41   S    
C18   C20   A    
C42   C84   S    
C39   C41   S    
C80   H60   S    
C28   H12   S    
C38   H24   S    
C77   H54   S    
O12   C64   A    
C96   C97   S    
O1    C3    A    
C90   C91   S    
O2    C4    A    
C97   C98   S    
C2    O7    A    
O14   C62   A    
O20   V3    S    
C79   H63   S    
C87   H86   S    
C71   H39   S    
C27   C29   A    
C92   H88   S    
C37   C47   S    
O5    C3    A    
C89   H83   S    
C69   H45   S    
C67   H34   S    
C11   C17   A    
C51   H27   S    
C79   C80   S    
C7    C9    A    
C61   O18   A    
C48   C50   S    
C51   H21   S    
C1    C44   S    
C94   H98   S    
C95   H96   S    
C6    O22   S    
C70   H43   S    
C82   C83   S    
C58   C60   T    
C86   H75   S    
C79   H64   S    
C49   C55   S    
C48   H26   S    
C72   C73   S    
C98   H103  S    
C47   H25   S    
C98   H104  S    
C54   H20   S    
C85   C86   S    
O6    V2    S    
C45   C53   S    
C37   H13   S    
C65   H29   S    
C66   H33   S    
C29   C87   S    
O12   V3    S    
C5    C7    A    
O14   V4    S    
C60   C63   S    
C93   H100  S    
C88   H85   S    
C78   C79   S    
C96   H107  S    
C15   C29   A    
C91   H91   S    
C73   H50   S    
C19   C21   A    
C25   C35   A    
C78   H65   S    
C26   C36   A    
C5    O21   S    
C10   H2    S    
O19   V4    S    
C53   H17   S    
C28   C30   A    
C88   C89   S    
C81   H72   S    
C80   H61   S    
C81   C82   S    
C52   H28   S    
C77   H55   S    
O18   V4    S    
C84   H80   S    
C90   H93   S    
C30   C90   S    
C46   C54   S    
C40   C78   S    
C20   H6    S    
C74   H47   S    
C32   C34   A    
C74   H46   S    
C83   H69   S    
C43   C55   T    
C33   C35   A    
C48   C96   S    
C2    C43   S    
C42   C50   S    
C34   C36   A    
C41   C49   S    
C57   C59   T    
C5    C15   A    
C6    C16   A    
C39   C75   S    
C83   H68   S    
C95   H97   S    
C70   H42   S    
C51   C53   S    
C94   C95   S    
C4    C33   S    
C86   H76   S    
O5    V1    S    
C39   C45   S    
C67   C68   S    
C37   C45   S    
C93   C94   S    
C21   C31   A    
C47   C93   S    
C19   H5    S    
C87   H87   S    
O16   C64   A    
C75   H58   S    
C65   C66   S    
C40   C42   S    
O4    V2    S    
O13   V3    S    
C95   H95   S    
C7    C62   S    
C84   C85   S    
C76   H57   S    
C73   H49   S    
O2    V1    S    
C97   H106  S    
C35   H9    S    
C69   C70   S    
C47   C49   S    
C93   H101  S    
C32   H8    S    
C83   H67   S    
O6    C4    A    
C27   H11   S    
C98   H102  S    
C76   C77   S    
C49   C51   S    
C22   C32   A    
O13   C61   A    
O1    V2    S    
C46   C58   S    
C78   H66   S    
C31   C33   A    
C45   C57   S    
C66   H31   S    
C44   C56   T    
C13   C23   A    
C9    H1    S    
C65   H30   S    
C14   C24   A    
C72   H52   S    
C8    C10   A    
C81   H73   S    
C80   H62   S    
C9    C11   A    
O22   C67   S    
C10   C12   A    
C90   H94   S    
O4    C2    A    
C13   C15   A    
C52   H22   S    
C39   C69   S    
C50   C52   S    
C74   H48   S    
O3    V1    S    
C96   H108  S    
C8    C61   S    
C17   H3    S    
C92   H90   S    
C31   H7    S    
C71   H40   S    
C18   H4    S    
C85   H78   S    
C67   H35   S    
C72   H51   S    
C38   C48   S    
C23   C25   A    
O10   V1    S    
O15   C63   A    
C12   C14   A    
C73   C74   S    
O3    C1    A    
C84   H79   S    
C41   C81   S    
C37   H23   S    
C36   H10   S    
C70   C71   S    
C59   C64   S    
C40   C72   S    
O11   C63   A    
C82   H71   S    
C14   C16   A    
C54   H18   S    
C38   H14   S    
C75   H59   S    
C68   H38   S    
C24   C26   A    
C68   H36   S    
C1    O8    A    
C25   C27   A    
O8    V2    S    
C97   H105  S    
C26   C28   A    
O16   V4    S    
C86   H74   S    
C42   H16   S    
C41   H15   S    
C16   C30   A    
C21   C23   A    
C52   C54   S    
O15   V3    S    
C6    C8    A    
C11   C13   A    
O7    V1    S    
C12   C18   A    
C66   H32   S    
O17   V3    S    
C89   H81   S    
C53   H19   S    
C88   H84   S    
C50   C56   S    
C76   H56   S    
C91   C92   S    
C22   C24   A    
C17   C19   A    
C87   C88   S    
O9    V2    S    
C91   H92   S    
C77   H53   S    
O11   V4    S    
C40   C46   S    
C85   H77   S    
C38   C46   S    
C3    C34   S    
C94   H99   S    
C69   H44   S    
C68   H37   S    
C75   C76   S    
O21   C65   S    
C92   H89   S    
C82   H70   S    
C20   C22   A    
C89   H82   S    
C62   O17   A    
