data_mof_unit_62374.cif
_audit_creation_date              2013-03-05T15:51:52-0500
_audit_creation_method            fapswitch 2.2
_symmetry_space_group_name_H-M    P1
_symmetry_Int_Tables_number       1
_space_group_crystal_system       triclinic
_cell_length_a                    8.701857
_cell_length_b                    17.589392
_cell_length_c                    23.27167
_cell_angle_alpha                 98.165793
_cell_angle_beta                  90.354639
_cell_angle_gamma                 96.222328
_cell_volume                      3504.24159011

loop_
_atom_site_label
_atom_site_type_symbol
_atom_site_description
_atom_site_fract_x
_atom_site_fract_y
_atom_site_fract_z
_atom_type_partial_charge
P1    P     P_3+3 0.063260 0.435680 0.369690 0.563071
O1    O     O_2   0.894270 0.458150 0.360790 -0.348542
O2    O     O_3   0.134750 0.458940 0.431830 -0.389248
O3    O     O_3   0.663190 0.596710 0.395570 -0.415320
O4    O     O_2   0.768393 0.545043 0.292428 -0.367378
O5    O     O_3   0.066910 0.341269 0.329591 -0.637495
O6    O     O_3   0.660496 0.679430 0.300265 -0.543032
H1    H     H_    0.792056 0.728958 0.372632 0.196442
C1    C     C_3   0.691952 0.818108 0.331435 -0.162131
H2    H     H_    0.735588 0.816576 0.286657 0.170725
P2    P     P_3+3 0.650710 0.674870 0.544690 0.455284
P3    P     P_3+3 0.122576 0.736650 0.424995 0.533014
O7    O     O_2   0.827090 0.686050 0.527520 -0.392567
O8    O     O_3   0.077580 0.635890 0.424230 -0.421110
O9    O     O_2   0.007629 0.771715 0.468629 -0.255117
O10   O     O_3   0.641925 0.678089 0.621688 -0.563556
O11   O     O_3   0.067943 0.767546 0.359747 -0.502441
C2    C     C_3   0.130688 0.727087 0.309962 0.385740
H3    H     H_    0.129534 0.664779 0.314414 0.014032
C3    C     C_3   0.025890 0.735267 0.257048 0.111949
H4    H     H_    0.906074 0.727861 0.271013 0.129791
C4    C     C_3   0.108281 0.723688 0.640664 0.699653
H5    H     H_    0.986987 0.700614 0.630545 0.014793
C5    C     C_3   0.135263 0.775810 0.700370 -0.426725
H6    H     H_    0.070457 0.749018 0.733735 0.263963
H7    H     H_    0.257053 0.777958 0.713927 0.200524
Ba1   Ba    Ba6+2 0.852790 0.535910 0.472200 1.615919
C6    C     C_3   0.009640 0.272485 0.350785 0.759097
C7    C     C_3   0.022216 0.202500 0.301401 0.018420
H8    H     H_    0.000086 0.149025 0.322066 0.157333
C8    C     C_3   0.671777 0.745683 0.664329 0.785548
C9    C     C_3   0.730268 0.822773 0.641340 -0.583314
H9    H     H_    0.806956 0.811201 0.604632 0.236382
H10   H     H_    0.802657 0.859856 0.676021 0.225165
P4    P     P_3+3 0.126450 0.564380 0.630310 0.498003
O12   O     O_2   0.295430 0.541870 0.639250 -0.311424
O13   O     O_3   0.054960 0.541130 0.568170 -0.446612
O14   O     O_3   0.526510 0.403350 0.604440 -0.374924
O15   O     O_3   0.203747 0.663646 0.640291 -0.592830
P5    P     P_3+3 0.069695 0.261514 0.566798 0.596858
O16   O     O_3   0.623640 0.408350 0.471030 -0.419068
O17   O     O_3   0.112120 0.364170 0.575770 -0.306038
O18   O     O_2   0.188536 0.231553 0.522976 -0.263735
O19   O     O_3   0.142465 0.224000 0.626138 -0.520381
Ba2   Ba    Ba6+2 0.337030 0.464150 0.527810 1.682180
P6    P     P_3+3 0.632860 0.586210 0.320417 0.478739
C10   C     C_3   0.683977 0.736378 0.349863 0.192766
H11   H     H_    0.586881 0.730259 0.379903 0.036688
H12   H     H_    0.574631 0.836585 0.330813 0.131188
O20   O     O_3   0.566070 0.591710 0.528970 -0.437375
C11   C     C_3   0.492532 0.354592 0.348530 0.336796
H13   H     H_    0.368485 0.353012 0.337168 0.081878
H14   H     H_    0.527338 0.410458 0.376294 0.044711
C12   C     C_3   0.587751 0.354346 0.293057 -0.075008
H15   H     H_    0.570467 0.406272 0.273040 0.081628
H16   H     H_    0.712166 0.357937 0.303653 0.147973
P7    P     P_3+3 0.533452 0.311823 0.451247 0.607991
O21   O     O_2   0.362610 0.313970 0.472520 -0.284220
O22   O     O_3   0.513907 0.289122 0.375155 -0.439671
C13   C     C_3   0.038612 0.207751 0.670701 0.623265
C14   C     C_3   0.107728 0.142586 0.697953 0.232534
H17   H     H_    0.220164 0.169101 0.717824 0.098396
P8    P     P_3+3 0.564720 0.413127 0.681318 0.480948
C15   C     C_3   0.444843 0.349520 0.769612 0.450332
H18   H     H_    0.564453 0.366650 0.784947 0.082921
O23   O     O_2   0.509189 0.492121 0.705247 -0.383642
O24   O     O_3   0.432510 0.343476 0.708225 -0.479004
H19   H     H_    0.228991 0.381829 0.810161 0.132057
C16   C     C_3   0.344195 0.409696 0.799661 -0.082169
H20   H     H_    0.319898 0.452343 0.771096 0.200173
H21   H     H_    0.822079 0.361679 0.067889 0.187006
H22   H     H_    0.741129 0.364381 0.968100 0.186064
C17   C     C_R   0.331015 0.519040 0.333955 -0.568476
C18   C     C_R   0.149119 0.541542 0.938330 -0.076457
C19   C     C_R   0.115373 0.530443 0.877099 0.574849
O25   O     O_2   0.210816 0.557423 0.845584 -0.522119
N1    N     N_R   0.980021 0.487375 0.852778 -0.166433
C20   C     C_R   0.883099 0.450734 0.891122 0.599078
O26   O     O_2   0.754419 0.420478 0.875286 -0.562678
C21   C     C_R   0.928635 0.449041 0.949734 -0.067757
C22   C     C_R   0.059689 0.496386 0.973930 -0.031007
C23   C     C_R   0.273312 0.594607 0.964991 0.237184
C24   C     C_R   0.305973 0.599685 0.024916 -0.169156
C25   C     C_R   0.221581 0.551658 0.059857 -0.059890
C26   C     C_R   0.100357 0.498856 0.034035 -0.009712
C27   C     C_R   0.842947 0.401869 0.985259 -0.051289
C28   C     C_R   0.889528 0.400286 0.042912 -0.053809
C29   C     C_R   0.018630 0.448985 0.068336 -0.087298
C30   C     C_R   0.068382 0.448286 0.126875 0.604566
N2    N     N_R   0.186140 0.502385 0.153483 -0.158627
C31   C     C_R   0.254788 0.556737 0.120273 0.599655
C32   C     C_2   0.837631 0.421999 0.762592 -0.138396
C33   C     C_3   0.783949 0.416096 0.700187 0.041734
C34   C     C_1   0.001296 0.520374 0.689251 0.125735
C35   C     C_2   0.009505 0.537487 0.748504 0.273705
C36   C     C_2   0.940846 0.480347 0.788684 0.052531
C37   C     C_R   0.396769 0.521365 0.232649 0.278952
C38   C     C_R   0.439336 0.537523 0.292754 0.080918
C39   C     C_R   0.177977 0.492180 0.318597 0.350496
C40   C     C_R   0.129811 0.488336 0.259636 -0.281538
C41   C     C_R   0.237133 0.503449 0.215064 0.001659
O27   O     O_2   0.007691 0.398411 0.153387 -0.589642
O28   O     O_2   0.343994 0.610866 0.143219 -0.581592
C42   C     C_2   0.886291 0.467419 0.665945 -0.067122
H23   H     H_    0.399770 0.641389 0.043990 0.177611
H24   H     H_    0.807573 0.371482 0.783088 0.194069
H25   H     H_    0.009211 0.470825 0.248751 0.212437
H26   H     H_    0.369688 0.519069 0.377843 0.157008
H27   H     H_    0.480286 0.139913 0.456731 0.192462
C43   C     C_R   0.413820 0.722189 0.473686 -0.191883
C44   C     C_R   0.554751 0.745524 0.504048 0.288667
C45   C     C_R   0.619035 0.822657 0.502915 -0.240144
C46   C     C_R   0.533645 0.876784 0.480524 -0.078409
C47   C     C_R   0.382576 0.852745 0.457434 0.206399
C48   C     C_R   0.322484 0.774617 0.453958 0.107057
C49   C     C_R   0.590902 0.161784 0.477701 -0.137570
C50   C     C_R   0.639430 0.241735 0.484691 0.303811
C51   C     C_R   0.880823 0.219364 0.530575 0.232581
C52   C     C_R   0.834834 0.139260 0.521109 -0.213873
C53   C     C_R   0.688637 0.110021 0.495912 0.042989
C54   C     C_1   0.639025 0.027168 0.489515 0.101833
C55   C     C_1   0.594975 0.958364 0.485143 0.169268
C56   C     C_R   0.783731 0.269091 0.511140 -0.368205
H28   H     H_    0.911262 0.100059 0.534524 0.183889
H29   H     H_    0.734461 0.841306 0.520113 0.209968
H30   H     H_    0.825989 0.329201 0.512986 0.169554
N3    N     N_2   0.094988 0.854293 0.701403 -0.094343
H31   H     H_    0.020922 0.869884 0.734259 0.242135
C57   C     C_3   0.223318 0.914097 0.701246 -0.582541
H32   H     H_    0.182699 0.971376 0.714636 0.259111
H33   H     H_    0.270623 0.912919 0.657114 0.289032
H34   H     H_    0.315623 0.907766 0.732894 0.186772
N4    N     N_R   0.849256 0.273316 0.366571 0.176524
O29   O     O_R   0.761147 0.208309 0.365413 -0.396015
O30   O     O_R   0.814711 0.333041 0.400772 -0.404306
N5    N     N_R   0.098802 0.264433 0.402137 0.198852
O31   O     O_R   0.081941 0.311930 0.449066 -0.345376
O32   O     O_R   0.173952 0.204766 0.404538 -0.365148
N6    N     N_2   0.903899 0.195756 0.255479 -0.112722
H35   H     H_    0.876905 0.139851 0.234997 0.222387
C58   C     C_3   0.910656 0.251643 0.215157 -0.541064
H36   H     H_    0.006367 0.243157 0.184481 0.269605
H37   H     H_    0.922013 0.311506 0.238267 0.249503
H38   H     H_    0.802145 0.242717 0.188688 0.246790
N7    N     N_R   0.176633 0.203451 0.276932 0.269057
O33   O     O_R   0.231547 0.259561 0.249598 -0.340450
O34   O     O_R   0.256738 0.145727 0.279707 -0.240006
N8    N     N_R   0.789705 0.729801 0.704810 0.171275
O35   O     O_R   0.822556 0.659083 0.702640 -0.476627
O36   O     O_R   0.812929 0.775409 0.754109 -0.444805
N9    N     N_2   0.533875 0.755497 0.698878 -0.145348
H39   H     H_    0.540416 0.808955 0.724336 0.134560
C59   C     C_3   0.485272 0.695974 0.734538 -0.541283
H40   H     H_    0.415717 0.721127 0.770537 0.229366
H41   H     H_    0.581269 0.674974 0.756912 0.277048
H42   H     H_    0.420294 0.646062 0.707971 0.296924
N10   N     N_R   0.787957 0.878497 0.369340 0.287010
O37   O     O_R   0.852318 0.865274 0.416818 -0.322096
O38   O     O_R   0.801719 0.948692 0.356932 -0.280052
N11   N     N_2   0.608696 0.867325 0.625606 -0.088637
H43   H     H_    0.508012 0.862359 0.647974 0.230396
C60   C     C_3   0.658510 0.947940 0.623063 -0.745387
H44   H     H_    0.562155 0.975499 0.606108 0.245307
H45   H     H_    0.758723 0.953889 0.594174 0.276743
H46   H     H_    0.690598 0.978447 0.667225 0.286985
N12   N     N_R   0.546071 0.285598 0.250776 0.287361
O39   O     O_R   0.512131 0.292968 0.197450 -0.305264
O40   O     O_R   0.564057 0.217459 0.263581 -0.247809
N13   N     N_R   0.056477 0.813224 0.240373 0.269844
O41   O     O_R   0.035907 0.873315 0.277861 -0.261474
O42   O     O_R   0.110886 0.824201 0.189890 -0.357110
N14   N     N_R   0.042474 0.276855 0.714640 0.204991
O43   O     O_R   0.993483 0.271589 0.766808 -0.446049
O44   O     O_R   0.101172 0.343736 0.702459 -0.411533
N15   N     N_2   0.880753 0.181335 0.648841 -0.152473
H47   H     H_    0.845217 0.123279 0.638349 0.204422
C61   C     C_3   0.760157 0.232023 0.656790 -0.887512
H48   H     H_    0.742345 0.249556 0.703473 0.276195
H49   H     H_    0.650635 0.202059 0.635990 0.259053
H50   H     H_    0.792215 0.283963 0.636017 0.215013
N16   N     N_R   0.013972 0.113484 0.744061 0.243961
O45   O     O_R   0.072769 0.119705 0.796287 -0.345917
O46   O     O_R   0.875543 0.078100 0.733317 -0.390391
N17   N     N_R   0.140207 0.078933 0.653308 0.224563
O47   O     O_R   0.029938 0.028445 0.629157 -0.397551
O48   O     O_R   0.281942 0.072504 0.637411 -0.398553
N18   N     N_2   0.396216 0.274961 0.787914 -0.115134
H51   H     H_    0.369496 0.278202 0.831291 0.210893
C62   C     C_3   0.493837 0.214533 0.771009 -0.803027
H52   H     H_    0.446066 0.161016 0.787816 0.271103
H53   H     H_    0.612573 0.231789 0.789517 0.257234
H54   H     H_    0.495434 0.201271 0.723060 0.271700
N19   N     N_R   0.421465 0.449741 0.853048 0.255094
O49   O     O_R   0.516288 0.511953 0.851737 -0.307403
O50   O     O_R   0.404259 0.420614 0.901261 -0.385897
N20   N     N_R   0.514874 0.516165 0.189830 0.261123
O51   O     O_R   0.625164 0.572052 0.189077 -0.347459
O52   O     O_R   0.506654 0.457106 0.148907 -0.361386
N21   N     N_2   0.363930 0.645131 0.932544 -0.062990
H55   H     H_    0.477946 0.656944 0.946467 0.195616
C63   C     C_3   0.295229 0.714618 0.925452 -0.686096
H56   H     H_    0.288430 0.751256 0.968204 0.215863
H57   H     H_    0.177381 0.700147 0.905610 0.278571
H58   H     H_    0.367374 0.747837 0.896331 0.249345
N22   N     N_R   0.039218 0.616339 0.773853 0.263841
O53   O     O_R   0.177008 0.650758 0.770469 -0.429677
O54   O     O_R   0.947448 0.645396 0.813015 -0.337516
N23   N     N_2   0.288372 0.760816 0.302585 -0.096032
H59   H     H_    0.355438 0.762854 0.339291 0.123934
C64   C     C_3   0.366637 0.730532 0.250935 -0.707297
H60   H     H_    0.483191 0.761387 0.249069 0.252433
H61   H     H_    0.307490 0.739705 0.210895 0.297137
H62   H     H_    0.375962 0.668686 0.250831 0.238401
N24   N     N_2   0.842185 0.461653 0.607412 -0.109344
H63   H     H_    0.798974 0.406716 0.589813 0.127494
C65   C     C_3   0.747747 0.520397 0.596525 -0.429233
H64   H     H_    0.670671 0.537201 0.632280 0.238838
H65   H     H_    0.818142 0.574328 0.591089 0.230025
H66   H     H_    0.678279 0.496917 0.557642 0.269715
N25   N     N_R   0.292316 0.907130 0.436713 0.258192
O55   O     O_R   0.166451 0.924312 0.462920 -0.242488
O56   O     O_R   0.343813 0.945347 0.395566 -0.329761
N26   N     N_2   0.355811 0.644676 0.464698 -0.148934
H67   H     H_    0.431227 0.606549 0.449204 0.188014
C66   C     C_3   0.260727 0.624086 0.510855 -0.435679
H68   H     H_    0.200362 0.568291 0.494628 0.268361
H69   H     H_    0.170373 0.662876 0.520856 0.222347
H70   H     H_    0.327723 0.624599 0.550929 0.255945
N27   N     N_2   0.040486 0.674364 0.208398 -0.136761
H71   H     H_    0.039406 0.620782 0.221456 0.159467
C67   C     C_3   0.936843 0.671435 0.158820 -0.650366
H72   H     H_    0.919495 0.611720 0.134833 0.217977
H73   H     H_    0.987930 0.709375 0.128149 0.261575
H74   H     H_    0.822408 0.689115 0.172599 0.269064
N28   N     N_R   0.161391 0.770980 0.596474 0.204028
O57   O     O_R   0.072479 0.818450 0.579313 -0.375613
O58   O     O_R   0.308503 0.782722 0.587594 -0.479623

loop_
_geom_bond_atom_site_label_1
_geom_bond_atom_site_label_2
_geom_bond_distance
_ccdc_geom_bond_type
C35   N22   1.423539 S    
P5    C51   1.871525 S    
C28   C29   1.408918 A    
N10   O37   1.296984 A    
C30   O27   1.219225 D    
N28   O58   1.297006 A    
N13   O41   1.300503 A    
C35   C36   1.544390 S    
C65   H66   1.089832 S    
C15   N18   1.456363 S    
P1    C39   1.879687 S    
N25   O56   1.300938 A    
C47   C48   1.407337 A    
N2    C31   1.399966 Am   
N15   C61   1.445244 S    
O3    P6    1.747705 S    
C52   H28   1.083146 S    
N17   O47   1.300784 A    
O10   C8    1.435436 S    
C57   H33   1.107118 S    
C15   O24   1.419894 S    
N27   H71   1.029629 S    
C37   N20   1.436913 S    
P7    C50   1.867129 S    
C6    C7    1.573849 S    
P4    O13   1.552794 S    
C5    H7    1.099059 S    
C2    H3    1.114388 S    
P1    O2    1.552808 S    
C58   H37   1.106177 S    
C7    N7    1.461991 S    
C21   C22   1.401460 A    
C20   C21   1.423292 A    
P7    O22   1.762035 S    
P2    O7    1.586988 D    
N16   O45   1.301280 A    
C32   C36   1.358342 D    
C66   H70   1.095178 S    
C49   C50   1.409914 A    
C2    N23   1.455885 S    
P1    O1    1.583360 D    
C63   H56   1.111532 S    
C62   H53   1.111108 S    
C51   C52   1.407981 A    
C45   C46   1.421107 A    
O14   Ba2   2.816047 S    
C21   C27   1.412906 A    
H27   C49   1.083168 S    
C9    H10   1.108478 S    
O14   P8    1.798269 S    
C64   H60   1.101377 S    
P5    O18   1.538084 D    
O5    C6    1.413235 S    
C46   C55   1.464547 S    
P4    O12   1.583688 D    
N23   H59   1.025737 S    
N19   O50   1.300960 A    
P3    O11   1.763085 S    
C5    N3    1.457608 S    
N28   O57   1.298554 A    
O1    Ba1   2.798986 S    
C25   C31   1.421960 A    
P2    Ba1   3.421899 S    
O8    Ba1   2.829163 S    
C59   H41   1.105210 S    
C1    H2    1.109017 S    
P5    O19   1.755545 S    
C2    C3    1.559975 S    
C14   H17   1.105818 S    
Ba1   O20   3.022748 S    
C51   C56   1.396886 A    
C57   H34   1.111464 S    
Ba1   Ba2   4.751154 S    
P5    O17   1.785429 S    
C3    N13   1.474779 S    
P6    C38   1.871117 S    
P8    O23   1.550242 D    
C34   C42   1.345720 D    
N21   H55   1.031852 S    
N10   O38   1.300693 A    
C6    N5    1.452795 S    
N12   O40   1.300486 A    
C63   H57   1.110766 S    
C62   H52   1.110699 S    
C18   C23   1.425697 A    
C43   N26   1.387781 S    
C33   C42   1.510595 S    
C4    H5    1.100521 S    
N25   O55   1.300210 A    
N7    O34   1.300937 A    
N14   O44   1.300556 A    
C37   C38   1.425593 A    
C60   H45   1.109438 S    
N22   O54   1.301794 A    
C17   C38   1.395296 A    
C7    N6    1.462893 S    
P8    O24   1.771414 S    
Ba2   O21   2.801517 S    
C18   C19   1.434642 A    
P2    C44   1.919725 S    
C11   H13   1.106237 S    
C13   N14   1.470294 S    
O6    P6    1.760880 S    
C1    H12   1.105063 S    
C25   C26   1.399173 A    
N26   H67   1.019839 S    
N5    O32   1.302774 A    
C52   C53   1.410698 A    
C58   H38   1.108542 S    
C47   N25   1.433084 S    
C43   C44   1.403373 A    
C20   O26   1.217737 D    
H19   C16   1.111534 S    
C56   H30   1.075906 S    
C61   H49   1.110540 S    
N1    C20   1.406354 Am   
O2    Ba2   2.820283 S    
C6    N4    1.446444 S    
C13   C14   1.558499 S    
C11   H14   1.107928 S    
O17   Ba2   2.829705 S    
N11   C60   1.446715 S    
C62   H54   1.107555 S    
P4    O15   1.784167 S    
C19   O25   1.214014 D    
N3    C57   1.449173 S    
N2    C41   1.494550 S    
C7    H8    1.115094 S    
N15   H47   1.028498 S    
C31   O28   1.218377 D    
C60   H46   1.108787 S    
C8    N9    1.460700 S    
P2    O10   1.787083 S    
Ba1   O16   2.832532 S    
C24   C25   1.407893 A    
P3    O9    1.542861 D    
C1    N10   1.461743 S    
N9    H39   1.033497 S    
C61   H50   1.103658 S    
C37   C41   1.434528 A    
C3    H4    1.093811 S    
C16   N19   1.459535 S    
O11   C2    1.415865 S    
C45   H29   1.078400 S    
O12   Ba2   2.799524 S    
C67   H73   1.107848 S    
C15   C16   1.541001 S    
C5    H6    1.093031 S    
C59   H42   1.098439 S    
C19   N1    1.399282 Am   
C54   C55   1.218976 T    
C46   C47   1.414872 A    
C14   N17   1.467874 S    
C61   H48   1.103016 S    
H21   C28   1.083248 S    
C8    N8    1.464073 S    
N8    O36   1.304290 A    
C32   H24   1.075642 S    
P3    O8    1.770659 S    
C1    C10   1.552177 S    
C34   C35   1.368712 D    
C64   H61   1.101797 S    
N4    O29   1.302675 A    
C63   H58   1.110422 S    
C4    C5    1.553598 S    
C11   O22   1.411498 S    
C18   C22   1.408451 A    
O13   Ba2   3.021262 S    
N3    H31   1.029600 S    
P4    Ba2   3.422806 S    
N7    O33   1.298801 A    
C67   H72   1.111602 S    
O3    Ba1   2.816697 S    
N14   O43   1.301533 A    
C27   C28   1.404118 A    
N4    O30   1.288939 A    
C57   H32   1.107452 S    
N13   O42   1.301214 A    
C26   C29   1.408247 A    
C17   C39   1.390744 A    
N22   O53   1.291412 A    
C12   H15   1.106160 S    
C40   H25   1.079279 S    
C3    N27   1.460217 S    
C44   C45   1.414267 A    
C66   H68   1.078054 S    
N24   H63   1.024590 S    
C8    C9    1.563266 S    
C65   H65   1.095530 S    
N20   O51   1.299344 A    
C10   H11   1.105965 S    
H22   C27   1.083249 S    
N6    H35   1.031841 S    
N26   C66   1.423424 S    
C12   H16   1.101978 S    
C12   N12   1.457546 S    
C60   H44   1.109972 S    
C64   H62   1.099259 S    
O4    P6    1.549266 D    
P8    C33   1.948432 S    
N1    C36   1.512757 S    
C14   N16   1.468105 S    
C39   C40   1.422457 A    
C11   C12   1.538040 S    
C9    H9    1.097098 S    
P3    C48   1.879407 S    
O2    Ba1   3.020408 S    
C50   C56   1.400876 A    
H1    C10   1.105627 S    
C42   N24   1.399613 S    
C23   N21   1.424034 S    
N27   C67   1.451697 S    
P2    O20   1.557886 S    
C58   H36   1.108887 S    
N11   H43   1.023811 S    
N6    C58   1.449315 S    
C65   H64   1.099820 S    
P7    O21   1.572447 D    
N12   O39   1.301368 A    
Ba2   O20   2.831964 S    
O19   C13   1.419064 S    
C4    O15   1.411819 S    
C15   H18   1.094690 S    
C24   H23   1.083767 S    
C32   C33   1.508767 S    
C66   H69   1.100602 S    
N17   O48   1.301853 A    
C67   H74   1.110816 S    
N24   C65   1.436325 S    
N8    O35   1.300363 A    
N9    C59   1.455654 S    
C16   H20   1.106159 S    
N21   C63   1.446703 S    
N18   C62   1.444719 S    
N20   O52   1.301225 A    
O16   P7    1.787505 S    
C4    N28   1.458992 S    
C49   C53   1.415933 A    
N18   H51   1.032344 S    
C29   C30   1.429015 A    
N23   C64   1.448879 S    
N19   O49   1.301266 A    
P1    O5    1.789165 S    
P1    Ba1   3.422380 S    
C13   N15   1.465432 S    
O16   Ba2   3.022014 S    
C53   C54   1.460670 S    
O7    Ba1   2.801314 S    
C40   C41   1.433622 A    
C23   C24   1.409869 A    
C59   H40   1.105869 S    
C30   N2    1.397267 Am   
P4    C34   1.950385 S    
C43   C48   1.402684 A    
C22   C26   1.434180 A    
N5    O31   1.296748 A    
Ba1   O13   2.819485 S    
N16   O46   1.300176 A    
O6    C10   1.414784 S    
C17   H26   1.073289 S    
C9    N11   1.457300 S    
