data_mof_unit_49454.cif
_audit_creation_date              2012-12-11T17:06:30-0500
_audit_creation_method            fapswitch 2.2
_symmetry_space_group_name_H-M    P1
_symmetry_Int_Tables_number       1
_space_group_crystal_system       triclinic
_cell_length_a                    6.962055
_cell_length_b                    14.520042
_cell_length_c                    15.970162
_cell_angle_alpha                 90.478409
_cell_angle_beta                  89.991397
_cell_angle_gamma                 89.959931
_cell_volume                      1614.35630064

loop_
_atom_site_label
_atom_site_type_symbol
_atom_type_description
_atom_site_fract_x
_atom_site_fract_y
_atom_site_fract_z
_atom_type_partial_charge
O1    O     O_R   0.494400 0.415450 0.412630 -0.536977
O2    O     O_R   0.823940 0.405730 0.586760 -0.544221
O3    O     O_R   0.994240 0.584550 0.587370 -0.538504
C1    C     C_R   0.655202 0.383586 0.615294 0.694641
O4    O     O_R   0.824110 0.404430 0.413240 -0.544050
O5    O     O_R   0.994420 0.583240 0.412620 -0.539190
C2    C     C_R   0.655371 0.382194 0.384276 0.692193
O6    O     O_R   0.494230 0.416760 0.587380 -0.537303
O7    O     O_3   0.660800 0.558670 0.500000 -0.367969
V1    V     V_3+5 0.935650 0.489120 0.500000 1.382762
O8    O     O_R   0.324140 0.594270 0.413240 -0.538937
C3    C     C_R   0.155083 0.615934 0.384124 0.694812
O9    O     O_R   0.323960 0.595570 0.586760 -0.542077
C4    C     C_R   0.155101 0.617277 0.615800 0.700162
V2    V     V_3+5 0.435660 0.510880 0.500000 1.393308
O10   O     O_3   0.160640 0.441330 0.500000 -0.372738
C5    C     C_3   0.010347 0.677966 0.762760 -0.178315
C6    C     C_3   0.179541 0.707422 0.820573 -0.196786
H1    H     H_    0.218508 0.674484 0.880707 0.113983
H2    H     H_    0.907169 0.621223 0.774368 0.108449
C7    C     C_3   0.122070 0.809349 0.810014 -0.023754
C8    C     C_3   0.957574 0.780016 0.752438 0.408327
C9    C     C_3   0.086736 0.788675 0.674804 -0.234975
C10   C     C_3   0.255373 0.817637 0.733069 -0.161439
C11   C     C_3   0.313203 0.714972 0.743082 -0.080377
C12   C     C_3   0.144072 0.686769 0.685957 -0.064797
H3    H     H_    0.046029 0.821808 0.614975 0.108256
H4    H     H_    0.356482 0.875205 0.721408 0.130922
H5    H     H_    0.460765 0.686362 0.739024 0.124458
C13   C     C_R   0.272930 0.815116 0.239246 0.099274
C14   C     C_R   0.118510 0.815123 0.182942 -0.110166
C15   C     C_R   0.966834 0.753499 0.198805 -0.180128
H6    H     H_    0.844325 0.751016 0.157358 0.133916
C16   C     C_R   0.977883 0.689862 0.264840 -0.178975
H7    H     H_    0.862954 0.640584 0.272397 0.127937
C17   C     C_R   0.141283 0.685625 0.316872 -0.112247
C18   C     C_R   0.284318 0.751877 0.304340 0.101255
C19   C     C_3   0.494862 0.739156 0.292273 -0.408376
C20   C     C_3   0.482586 0.808421 0.221695 -0.399495
H8    H     H_    0.530591 0.668343 0.270365 0.166320
H9    H     H_    0.579191 0.764463 0.346887 0.174955
H10   H     H_    0.511990 0.778020 0.158875 0.170936
H11   H     H_    0.559072 0.873954 0.235656 0.166651
C21   C     C_R   0.493324 0.315881 0.741367 0.099749
C22   C     C_R   0.647637 0.317237 0.685095 -0.111714
C23   C     C_R   0.799176 0.254911 0.699085 -0.181402
H12   H     H_    0.921565 0.253505 0.657501 0.133009
C24   C     C_R   0.787923 0.189186 0.763219 -0.173705
H13   H     H_    0.902685 0.139497 0.769458 0.129501
C25   C     C_R   0.624436 0.183625 0.814983 -0.113196
C26   C     C_R   0.481793 0.250593 0.804613 0.098539
C27   C     C_3   0.271050 0.238759 0.792439 -0.408974
C28   C     C_3   0.283521 0.310335 0.723823 -0.397597
H14   H     H_    0.187159 0.262432 0.847805 0.174293
H15   H     H_    0.234666 0.168782 0.768631 0.166302
H16   H     H_    0.207643 0.375582 0.739679 0.167041
H17   H     H_    0.253530 0.282111 0.660248 0.170499
C29   C     C_R   0.493005 0.315483 0.256780 0.098997
C30   C     C_R   0.647458 0.316190 0.313049 -0.112007
C31   C     C_R   0.799109 0.254217 0.297179 -0.180451
H18   H     H_    0.921633 0.252330 0.338621 0.132853
C32   C     C_R   0.787911 0.189496 0.231142 -0.179071
H19   H     H_    0.902783 0.139976 0.223525 0.126842
C33   C     C_R   0.624411 0.184581 0.179184 -0.109035
C34   C     C_R   0.481490 0.251182 0.191659 0.101666
C35   C     C_3   0.270904 0.238890 0.203686 -0.409550
C36   C     C_3   0.283310 0.309348 0.274329 -0.397866
H20   H     H_    0.235010 0.168496 0.225521 0.165763
H21   H     H_    0.186651 0.263357 0.149090 0.174869
H22   H     H_    0.253791 0.280060 0.337114 0.169921
H23   H     H_    0.206976 0.374733 0.260427 0.167524
O11   O     O_R   0.771650 0.079500 0.908680 -0.538758
O12   O     O_R   0.441690 0.091800 0.082800 -0.541317
O13   O     O_R   0.271460 0.912980 0.083410 -0.538695
C37   C     C_R   0.610662 0.113891 0.111930 0.685893
O14   O     O_R   0.441930 0.090510 0.909280 -0.541707
O15   O     O_R   0.271690 0.911670 0.908660 -0.536934
C38   C     C_R   0.610936 0.112544 0.880644 0.707632
O16   O     O_R   0.771410 0.080810 0.083440 -0.542481
O17   O     O_3   0.605100 0.937580 0.996050 -0.362736
V3    V     V_3+5 0.330220 0.007110 0.996030 1.408766
O18   O     O_R   0.941980 0.900620 0.909250 -0.517936
C39   C     C_R   0.110835 0.878938 0.880178 0.702108
O19   O     O_R   0.941740 0.901920 0.082770 -0.546207
C40   C     C_R   0.110549 0.880104 0.111742 0.682726
V4    V     V_3+5 0.830220 0.985300 0.996000 1.433813
O20   O     O_3   0.105210 0.054870 0.996020 -0.375288
O21   O     O_3   0.770994 0.815079 0.758356 -0.651119
H24   H     H_    0.708910 0.799393 0.704268 0.267725

loop_
_geom_bond_atom_site_label_1
_geom_bond_atom_site_label_2
_ccdc_geom_bond_type
C35   H20   S    
C14   C40   S    
C6    C7    S    
C1    O6    A    
C22   C23   A    
C27   C28   S    
C32   H19   S    
C5    C12   S    
C17   C18   A    
O19   V4    S    
C16   H7    S    
O5    C3    A    
C19   C20   S    
C35   H21   S    
O15   C39   A    
V2    O10   S    
C5    H2    S    
C31   C32   A    
C6    H1    S    
C9    C12   S    
O12   V3    S    
C32   C33   A    
O8    V2    S    
C21   C28   S    
C7    C39   S    
O17   V4    S    
C9    C10   S    
O1    V2    S    
C8    O21   S    
C3    C17   S    
O7    V1    S    
C36   H23   S    
C27   H15   S    
C24   C25   A    
C35   C36   S    
C30   C31   A    
O9    C4    A    
O12   C37   A    
C6    C11   S    
C25   C38   S    
C2    C30   S    
C27   H14   S    
C25   C26   A    
C20   H10   S    
C1    C22   S    
C11   H5    S    
C23   C24   A    
C26   C27   S    
O19   C40   A    
C10   C11   S    
C19   H9    S    
O4    C2    A    
C28   H17   S    
V4    O20   S    
C20   H11   S    
C29   C30   A    
O18   V4    S    
C13   C18   A    
C31   H18   S    
C15   C16   A    
O2    C1    A    
C18   C19   S    
C29   C34   A    
C14   C15   A    
O15   V3    S    
C5    C6    S    
C4    C12   S    
V3    O20   S    
O3    C4    A    
C21   C26   A    
C24   H13   S    
O18   C39   A    
O6    V2    S    
C9    H3    S    
O9    V2    S    
O13   V3    S    
O2    V1    S    
C21   C22   A    
C28   H16   S    
C23   H12   S    
O1    C2    A    
C10   H4    S    
O14   C38   A    
O17   V3    S    
O14   V3    S    
O5    V1    S    
O11   V4    S    
O8    C3    A    
C5    C8    S    
C36   H22   S    
C15   H6    S    
C11   C12   S    
O4    V1    S    
O3    V1    S    
V1    O10   S    
C33   C34   A    
C19   H8    S    
C13   C14   A    
C33   C37   S    
C13   C20   S    
C16   C17   A    
O13   C40   A    
O7    V2    S    
C29   C36   S    
O21   H24   S    
C34   C35   S    
C7    C10   S    
O11   C38   A    
C8    C9    S    
C7    C8    S    
C37   O16   A    
O16   V4    S    
