data_mof_unit_23794.cif
_audit_creation_date              2012-12-10T16:57:50-0500
_audit_creation_method            fapswitch 2.2
_symmetry_space_group_name_H-M    P1
_symmetry_Int_Tables_number       1
_space_group_crystal_system       triclinic
_cell_length_a                    7.765783
_cell_length_b                    8.573826
_cell_length_c                    19.178669
_cell_angle_alpha                 91.278031
_cell_angle_beta                  84.848375
_cell_angle_gamma                 93.827539
_cell_volume                      1268.79729314

loop_
_atom_site_label
_atom_site_type_symbol
_atom_type_description
_atom_site_fract_x
_atom_site_fract_y
_atom_site_fract_z
_atom_type_partial_charge
C1    C     C_R   0.545954 0.794838 0.498182 0.970131
C2    C     C_R   0.656785 0.443647 0.176954 0.473406
C3    C     C_R   0.496222 0.494956 0.854572 -0.077185
C4    C     C_R   0.516525 0.497947 0.144194 -0.081237
C5    C     C_R   0.652179 0.526451 0.813710 -0.141369
C6    C     C_R   0.372583 0.552563 0.184692 -0.119850
C7    C     C_R   0.654514 0.526430 0.741494 -0.157798
C8    C     C_R   0.364498 0.550729 0.257103 -0.157507
C9    C     C_R   0.499778 0.496953 0.710010 -0.115501
C10   C     C_R   0.501681 0.496034 0.289745 -0.124597
C11   C     C_R   0.513626 0.498021 0.068602 0.362916
C12   C     C_R   0.454046 0.205161 0.501805 0.971678
C13   C     C_R   0.500940 0.495906 0.929213 0.380796
C14   C     C_2   0.570122 0.958373 0.497126 -0.367253
C15   C     C_2   0.429877 0.041626 0.502842 -0.366852
C16   C     C_R   0.500415 0.499539 0.634404 0.898490
C17   C     C_R   0.499488 0.498738 0.365544 0.897336
C18   C     C_R   0.343075 0.465324 0.751109 -0.261057
C19   C     C_R   0.646255 0.442143 0.249658 -0.251879
C20   C     C_R   0.340073 0.462197 0.823688 0.474703
H1    H     H_    0.223613 0.441302 0.726579 0.198390
H2    H     H_    0.985864 0.618057 0.552669 0.191671
H3    H     H_    0.057939 0.274278 0.964306 0.411021
H4    H     H_    0.926476 0.166820 0.080581 0.391252
H5    H     H_    0.752047 0.399251 0.275266 0.204197
H6    H     H_    0.771621 0.552668 0.837944 0.228025
H7    H     H_    0.264923 0.595274 0.160140 0.217092
H8    H     H_    0.776363 0.551821 0.710478 0.172141
H9    H     H_    0.252330 0.593589 0.287393 0.177737
H10   H     H_    0.702465 0.009715 0.491668 0.182413
H11   H     H_    0.297534 0.990285 0.508297 0.181951
H12   H     H_    0.014127 0.381923 0.447339 0.196577
N1    N     N_R   0.567714 0.376216 0.960079 -0.084122
N2    N     N_R   0.445150 0.617033 0.037447 -0.132374
N3    N     N_R   0.572430 0.376745 0.028987 -0.048765
N4    N     N_R   0.438982 0.616088 0.968546 -0.094194
N5    N     N_2   0.950330 0.457950 0.481240 -0.171541
N6    N     N_2   0.049670 0.542050 0.518760 -0.172889
O1    O     O_R   0.389250 0.738570 0.504600 -0.612267
O2    O     O_2   0.011282 0.339053 0.828456 -0.323599
O3    O     O_3   0.173083 0.291915 0.938050 -0.523329
O4    O     O_2   0.908229 0.495005 0.072338 -0.262972
O5    O     O_2   0.990964 0.378025 0.178790 -0.341236
O6    O     O_3   0.810716 0.203261 0.096263 -0.526167
O7    O     O_R   0.610750 0.261430 0.495400 -0.611621
O8    O     O_R   0.678400 0.711620 0.492580 -0.628032
O9    O     O_R   0.321600 0.288380 0.507420 -0.627308
O10   O     O_R   0.355380 0.513500 0.607880 -0.618285
O11   O     O_R   0.644620 0.486500 0.392120 -0.618232
O12   O     O_R   0.644530 0.486550 0.595850 -0.626688
O13   O     O_R   0.355470 0.513450 0.404150 -0.626450
O14   O     O_2   0.073690 0.562725 0.906318 -0.273107
S1    S     S_3+6 0.141603 0.415101 0.874065 0.031195
S2    S     S_3+6 0.849732 0.383263 0.130332 0.017466
Zn1   Zn    Zn3+2 0.306930 0.517990 0.508030 0.956818
Zn2   Zn    Zn3+2 0.693070 0.482010 0.491970 0.957862

loop_
_geom_bond_atom_site_label_1
_geom_bond_atom_site_label_2
_ccdc_geom_bond_type
O10   Zn1   S    
C2    C4    A    
C8    C10   A    
C13   N1    A    
N5    N6    D    
O11   Zn2   S    
C5    C7    A    
O5    S2    D    
N2    N4    A    
C6    H7    S    
C3    C13   S    
C12   C15   S    
C10   C19   A    
C17   O13   A    
C11   N3    A    
C3    C20   A    
H12   N5    S    
O4    S2    D    
C4    C11   S    
C15   H11   S    
O3    S1    S    
C14   H10   S    
C12   O9    A    
C19   H5    S    
C8    H9    S    
C4    C6    A    
N1    N3    A    
C9    C16   S    
C16   O12   A    
C7    H8    S    
C18   C20   A    
C16   O10   A    
H4    O6    S    
O1    Zn1   S    
C1    O8    A    
C1    O1    A    
C10   C17   S    
O8    Zn2   S    
C5    H6    S    
H2    N6    S    
O6    S2    S    
C9    C18   A    
O14   S1    D    
C13   N4    A    
O9    Zn1   S    
O2    S1    D    
C2    S2    S    
C17   O11   A    
C7    C9    A    
C18   H1    S    
C14   C15   D    
C12   O7    A    
C6    C8    A    
C1    C14   S    
O13   Zn1   S    
C2    C19   A    
N5    Zn2   S    
C11   N2    A    
O12   Zn2   S    
N6    Zn1   S    
O7    Zn2   S    
C20   S1    S    
C3    C5    A    
H3    O3    S    
