data_mof_unit_30928.cif
_audit_creation_date              2012-12-10T19:44:25-0500
_audit_creation_method            fapswitch 2.2
_symmetry_space_group_name_H-M    P1
_symmetry_Int_Tables_number       1
_space_group_crystal_system       triclinic
_cell_length_a                    10.793513
_cell_length_b                    12.320465
_cell_length_c                    13.2331
_cell_angle_alpha                 116.766906
_cell_angle_beta                  76.989388
_cell_angle_gamma                 101.478398
_cell_volume                      1521.18615111

loop_
_atom_site_label
_atom_site_type_symbol
_atom_type_description
_atom_site_fract_x
_atom_site_fract_y
_atom_site_fract_z
_atom_type_partial_charge
C1    C     C_R   0.515568 0.854724 0.286633 0.814871
C2    C     C_R   0.630587 0.852013 0.807840 -0.178306
C3    C     C_R   0.038226 0.960438 0.570218 -0.218908
C4    C     C_R   0.129600 0.996737 0.494821 -0.126728
C5    C     C_R   0.092711 0.032307 0.419478 -0.039232
C6    C     C_R   0.963326 0.033502 0.423049 0.614494
C7    C     C_R   0.871531 0.999926 0.500900 -0.198878
C8    C     C_R   0.909110 0.962489 0.574961 -0.052540
C9    C     C_R   0.223149 0.184774 0.344493 -0.063199
C10   C     C_R   0.318772 0.206339 0.261162 0.559018
C11   C     C_R   0.377065 0.109541 0.168809 -0.203036
C12   C     C_R   0.737428 0.000092 0.500424 0.857797
C13   C     C_R   0.341083 0.990062 0.157457 -0.213192
C14   C     C_R   0.247232 0.966670 0.238959 -0.144747
C15   C     C_R   0.187790 0.062720 0.332932 0.049683
C16   C     C_R   0.330146 0.279179 0.019983 -0.135172
C17   C     C_R   0.461134 0.227094 0.834705 -0.083320
C18   C     C_R   0.645489 0.807535 0.097365 -0.272996
C19   C     C_R   0.704069 0.720613 0.997114 -0.177729
C20   C     C_R   0.659017 0.597113 0.961614 0.648852
C21   C     C_R   0.543498 0.559253 0.019984 -0.028424
C22   C     C_R   0.485181 0.648589 0.123647 -0.002942
C23   C     C_R   0.482277 0.144974 0.713241 0.784948
C24   C     C_R   0.485614 0.435913 0.981657 0.093235
C25   C     C_R   0.382578 0.401748 0.053671 0.170583
C26   C     C_R   0.327009 0.491097 0.154578 -0.120114
C27   C     C_R   0.372938 0.613166 0.185563 -0.173811
C28   C     C_R   0.519069 0.347434 0.870302 -0.163937
C29   C     C_R   0.371367 0.191469 0.911555 -0.229559
C30   C     C_R   0.542096 0.771428 0.165093 -0.115736
C31   C     C_R   0.700097 0.341931 0.322547 -0.300932
C32   C     C_R   0.328195 0.760382 0.647108 0.088750
C33   C     C_R   0.290641 0.663619 0.678485 -0.232985
C34   C     C_R   0.262989 0.998823 0.498049 0.816137
C35   C     C_R   0.354353 0.559166 0.621480 -0.096275
C36   C     C_R   0.457340 0.550141 0.531840 0.056998
C37   C     C_R   0.492717 0.652096 0.503483 0.260068
C38   C     C_R   0.527525 0.445260 0.470898 0.015943
C39   C     C_R   0.628541 0.442648 0.379840 0.047644
C40   C     C_R   0.659054 0.542412 0.350532 -0.028107
C41   C     C_R   0.595308 0.645991 0.415348 -0.225306
C42   C     C_R   0.502584 0.342368 0.497071 -0.080924
C43   C     C_R   0.670539 0.244526 0.352450 0.813965
C44   C     C_R   0.649124 0.973980 0.824077 -0.125639
C45   C     C_R   0.741596 0.010991 0.749800 -0.092879
C46   C     C_R   0.816441 0.925854 0.658488 0.118908
C47   C     C_R   0.799353 0.803859 0.643603 -0.183795
C48   C     C_R   0.705846 0.765781 0.717531 0.009873
Cu1   Cu    Cu3+1 0.529370 0.098270 0.475420 1.027069
Cu2   Cu    Cu3+1 0.470630 0.901730 0.524580 0.946526
H1    H     H_    0.557732 0.825281 0.866066 0.160078
H2    H     H_    0.451109 0.127394 0.106081 0.168814
H3    H     H_    0.386934 0.915474 0.085917 0.160357
H4    H     H_    0.221639 0.873363 0.229637 0.135747
H5    H     H_    0.325564 0.098327 0.884784 0.154335
H6    H     H_    0.243840 0.467063 0.207120 0.191313
H7    H     H_    0.252965 0.252260 0.075315 0.168875
H8    H     H_    0.581743 0.372090 0.806362 0.229638
H9    H     H_    0.689351 0.901459 0.127519 0.237747
H10   H     H_    0.790355 0.748446 0.950332 0.175652
H11   H     H_    0.590868 0.039761 0.893807 0.144716
H12   H     H_    0.319399 0.679539 0.259276 0.165308
H13   H     H_    0.780592 0.338045 0.255957 0.196057
H14   H     H_    0.427158 0.336305 0.563722 0.163275
H15   H     H_    0.278149 0.841064 0.691614 0.121495
H16   H     H_    0.320902 0.487252 0.649451 0.146835
H17   H     H_    0.211784 0.669500 0.747125 0.156098
H18   H     H_    0.627964 0.719969 0.392035 0.222010
H19   H     H_    0.753626 0.105390 0.762262 0.125643
H20   H     H_    0.856536 0.738265 0.572247 0.185287
H21   H     H_    0.067750 0.933565 0.628081 0.163864
N1    N     N_R   0.573890 0.246290 0.438210 -0.250233
N2    N     N_R   0.426890 0.754320 0.561170 -0.201910
O1    O     O_R   0.536940 0.972510 0.318130 -0.531645
O2    O     O_R   0.487330 0.806530 0.359650 -0.606908
O3    O     O_R   0.705160 0.082990 0.479250 -0.485195
O4    O     O_R   0.655550 0.917010 0.520760 -0.607744
O5    O     O_R   0.512670 0.193470 0.640350 -0.590482
O6    O     O_R   0.463060 0.027490 0.681870 -0.591724
O7    O     O_R   0.344450 0.082990 0.479240 -0.579521
O8    O     O_R   0.294840 0.917010 0.520750 -0.597552
F1    F     F_    0.735830 0.517068 0.876126 -0.687544
F2    F     F_    0.738394 0.147078 0.294759 -0.611940
C49   C     C_2   0.754832 0.541461 0.250024 0.836624
O9    O     O_2   0.833168 0.630845 0.259410 -0.601861
O10   O     O_R   0.751151 0.441053 0.143408 -0.748826
H22   H     H_    0.819039 0.452638 0.081186 0.349825
C50   C     C_2   0.685881 0.635995 0.698907 0.834163
O11   O     O_2   0.592238 0.598595 0.750960 -0.621443
O12   O     O_R   0.773387 0.555427 0.620663 -0.749494
H23   H     H_    0.748908 0.469330 0.615201 0.355620
F3    F     F_    0.927110 0.062875 0.347294 -0.614311
C51   C     C_2   0.164941 0.290281 0.443308 0.892863
O13   O     O_2   0.156355 0.381678 0.432123 -0.531957
O14   O     O_R   0.121410 0.286601 0.549676 -0.787623
H24   H     H_    0.084145 0.364040 0.609515 0.341643
F4    F     F_    0.359293 0.321766 0.271056 -0.671988

loop_
_geom_bond_atom_site_label_1
_geom_bond_atom_site_label_2
_ccdc_geom_bond_type
C51   O13   D    
C20   F1    S    
C43   F2    S    
C40   C49   S    
O14   H24   S    
Cu2   O6    S    
C7    C8    A    
C45   C46   A    
C26   C27   A    
C17   C23   S    
C31   C43   A    
C1    O1    A    
C36   C37   A    
C49   O10   S    
C38   C42   A    
C5    C6    A    
C17   C29   A    
Cu1   O5    S    
C18   C19   A    
C11   H2    S    
C34   O7    A    
C35   C36   A    
C2    C44   A    
Cu1   N1    S    
C48   C50   S    
C18   C30   A    
C34   O8    A    
C9    C10   A    
C51   O14   S    
C21   C22   A    
C37   C41   A    
C41   H18   S    
C13   H3    S    
C7    C12   S    
C4    C34   S    
C45   H19   S    
C1    O2    A    
C31   H13   S    
C24   C25   A    
C3    C8    A    
C10   C11   A    
Cu2   N2    S    
C32   N2    A    
O10   H22   S    
C29   H5    S    
C35   H16   S    
C2    C48   A    
C16   C29   A    
C9    C51   S    
C10   F4    S    
C3    H21   S    
C47   H20   S    
C27   H12   S    
C47   C48   A    
C12   O4    A    
C20   C21   A    
C42   N1    A    
Cu1   O3    S    
C49   O9    D    
C40   C41   A    
C14   H4    S    
C50   O12   S    
C22   C27   A    
C12   O3    A    
C44   H11   S    
C3    C4    A    
Cu2   O4    S    
C42   H14   S    
C39   C40   A    
C44   C45   A    
C33   H17   S    
C16   C25   A    
C43   N1    A    
C37   N2    A    
C46   C47   A    
C22   C30   A    
Cu1   O1    S    
C17   C28   A    
C24   C28   A    
C4    C5    A    
C26   H6    S    
C6    C7    A    
C28   H8    S    
C19   H10   S    
Cu1   O7    S    
C32   C33   A    
C19   C20   A    
C36   C38   A    
C25   C26   A    
Cu2   O2    S    
C11   C13   A    
O12   H23   S    
C38   C39   A    
C6    F3    S    
C1    C30   S    
C33   C35   A    
C31   C39   A    
C16   H7    S    
C23   O5    A    
C9    C15   A    
C8    C46   S    
C5    C15   S    
C2    H1    S    
C18   H9    S    
C50   O11   D    
Cu1   Cu2   S    
C21   C24   A    
C14   C15   A    
C23   O6    A    
C13   C14   A    
Cu2   O8    S    
C32   H15   S    
