data_mof_unit_36569.cif
_audit_creation_date              2012-12-10T17:56:20-0500
_audit_creation_method            fapswitch 2.2
_symmetry_space_group_name_H-M    P1
_symmetry_Int_Tables_number       1
_space_group_crystal_system       triclinic
_cell_length_a                    12.973677
_cell_length_b                    10.792418
_cell_length_c                    9.619295
_cell_angle_alpha                 90.405355
_cell_angle_beta                  97.01762
_cell_angle_gamma                 91.643722
_cell_volume                      1336.15222182

loop_
_atom_site_label
_atom_site_type_symbol
_atom_type_description
_atom_site_fract_x
_atom_site_fract_y
_atom_site_fract_z
_atom_type_partial_charge
C1    C     C_R   0.502091 0.262650 0.500138 0.866019
C2    C     C_R   0.497909 0.737349 0.499863 0.866015
C3    C     C_R   0.496726 0.871272 0.499622 -0.161337
C4    C     C_R   0.503274 0.128727 0.500379 -0.161336
C5    C     C_R   0.426998 0.431430 0.059316 0.184694
C6    C     C_R   0.573005 0.568565 0.940684 0.184670
C7    C     C_R   0.428937 0.429604 0.911757 0.300534
C8    C     C_R   0.571062 0.570398 0.088242 0.300525
C9    C     C_R   0.300966 0.500283 0.473063 0.883482
C10   C     C_R   0.699033 0.499714 0.526937 0.883474
C11   C     C_R   0.811876 0.504393 0.542533 -0.183516
C12   C     C_R   0.188124 0.495593 0.457468 -0.183514
C13   C     C_R   0.028814 0.395172 0.353286 0.479758
C14   C     C_R   0.971191 0.604787 0.646732 0.479763
C15   C     C_R   0.135566 0.411505 0.362639 -0.291522
C16   C     C_R   0.864439 0.588465 0.637377 -0.291516
C17   C     C_R   0.134214 0.569556 0.542609 0.387702
C18   C     C_R   0.865783 0.430425 0.457391 0.387698
C19   C     C_R   0.026967 0.544760 0.548273 -0.123317
C20   C     C_R   0.973033 0.455210 0.451735 -0.123314
C21   C     C_R   0.442110 0.063585 0.392625 -0.242486
C22   C     C_R   0.557890 0.936414 0.607378 -0.242480
C23   C     C_R   0.437929 0.935123 0.391713 0.418630
C24   C     C_R   0.562070 0.064876 0.608290 0.418627
Cu1   Cu    Cu3+1 0.500000 0.500020 0.640660 1.035158
Cu2   Cu    Cu3+1 0.500000 0.499980 0.359340 1.035168
H1    H     H_    0.821901 0.642001 0.705731 0.187320
H2    H     H_    0.178107 0.357964 0.294295 0.187311
H3    H     H_    0.395497 0.112650 0.310816 0.184768
H4    H     H_    0.604500 0.887347 0.689189 0.184789
N1    N     N_R   0.500030 0.500030 0.852080 -0.191755
N2    N     N_R   0.499970 0.499970 0.147920 -0.191742
O1    O     O_R   0.499990 0.319660 0.618740 -0.528048
O2    O     O_R   0.500010 0.680340 0.381260 -0.528044
O3    O     O_R   0.499990 0.319630 0.381170 -0.592909
O4    O     O_R   0.500010 0.680370 0.618830 -0.592913
O5    O     O_R   0.349000 0.499990 0.599490 -0.533450
O6    O     O_R   0.651000 0.500010 0.400510 -0.533450
O7    O     O_R   0.348990 0.499960 0.361920 -0.596265
O8    O     O_R   0.651010 0.500040 0.638080 -0.596300
Cl1   Cl    Cl    0.797905 0.297452 0.378885 -0.463003
Cl2   Cl    Cl    0.202079 0.702544 0.621100 -0.462995
Cl3   Cl    Cl    0.973155 0.306929 0.206376 -0.439154
Cl4   Cl    Cl    0.026861 0.692986 0.793665 -0.439177
Cl5   Cl    Cl    0.353812 0.858882 0.258009 -0.502289
Cl6   Cl    Cl    0.646185 0.141117 0.741995 -0.502302
N3    N     N_3   0.342074 0.366160 0.110163 -0.589387
H5    H     H_    0.287824 0.430434 0.132724 0.263304
H6    H     H_    0.367118 0.313288 0.196720 0.258511
N4    N     N_3   0.657952 0.633796 0.889841 -0.589353
H7    H     H_    0.712193 0.569485 0.867329 0.263290
H8    H     H_    0.632931 0.686613 0.803220 0.258525
N5    N     N_3   0.355885 0.352634 0.824108 -0.497727
H9    H     H_    0.280861 0.379441 0.837397 0.243301
H10   H     H_    0.364323 0.260918 0.856858 0.242996
N6    N     N_3   0.644115 0.647366 0.175890 -0.497726
H11   H     H_    0.719138 0.620553 0.162609 0.243299
H12   H     H_    0.635683 0.739081 0.143133 0.242998

loop_
_geom_bond_atom_site_label_1
_geom_bond_atom_site_label_2
_ccdc_geom_bond_type
C12   C17   A    
Cu1   N1    S    
N4    H8    S    
C11   C18   A    
Cu2   N2    S    
C23   Cl5   S    
C11   C16   A    
N5    H10   S    
C3    C23   A    
C19   C20   A    
C12   C15   A    
C13   Cl3   S    
C10   O6    A    
C1    C4    S    
C24   Cl6   S    
C8    N6    S    
C16   H1    S    
C9    O5    A    
C2    C3    S    
C1    O1    A    
N3    H6    S    
N5    H9    S    
C6    N4    S    
C4    C21   A    
C5    N3    S    
C2    O2    A    
C15   H2    S    
C14   C19   A    
C22   C24   A    
C10   O8    A    
C17   C19   A    
N6    H12   S    
C6    N1    A    
C18   C20   A    
C13   C15   A    
Cu1   O8    S    
C4    C24   A    
C9    C12   S    
C14   C16   A    
Cu2   O7    S    
C7    N1    A    
C10   C11   S    
C7    N5    S    
Cu1   O4    S    
C8    N2    A    
Cu2   O3    S    
C9    O7    A    
N6    H11   S    
C1    O3    A    
C14   Cl4   S    
Cu1   O1    S    
C18   Cl1   S    
C2    O4    A    
C5    C7    A    
C17   Cl2   S    
Cu2   O6    S    
C3    C22   A    
C6    C8    A    
C22   H4    S    
C13   C20   A    
N4    H7    S    
Cu1   Cu2   S    
C21   H3    S    
C21   C23   A    
Cu2   O2    S    
C5    N2    A    
N3    H5    S    
Cu1   O5    S    
