data_mof_unit_37975.cif
_audit_creation_date              2012-12-10T19:14:53-0500
_audit_creation_method            fapswitch 2.2
_symmetry_space_group_name_H-M    P1
_symmetry_Int_Tables_number       1
_space_group_crystal_system       triclinic
_cell_length_a                    16.020864
_cell_length_b                    14.717297
_cell_length_c                    10.911416
_cell_angle_alpha                 90.022472
_cell_angle_beta                  89.934742
_cell_angle_gamma                 89.966663
_cell_volume                      2572.73297441

loop_
_atom_site_label
_atom_site_type_symbol
_atom_type_description
_atom_site_fract_x
_atom_site_fract_y
_atom_site_fract_z
_atom_type_partial_charge
C1    C     C_1   0.252218 0.500063 0.499763 -0.201060
C2    C     C_1   0.747782 0.499937 0.500024 -0.201221
C3    C     C_R   0.499676 0.500215 0.872440 -0.107305
C4    C     C_R   0.499724 0.500059 0.127702 -0.106146
C5    C     C_R   0.500618 0.902860 0.500420 -0.334836
C6    C     C_R   0.499287 0.097188 0.498790 -0.301921
C7    C     C_R   0.574877 0.952307 0.477560 0.356321
C8    C     C_R   0.424972 0.047777 0.521304 0.385353
C9    C     C_R   0.425890 0.951391 0.522215 0.353455
C10   C     C_R   0.573959 0.048663 0.476739 0.386480
C11   C     C_R   0.955803 0.583713 0.501553 0.133903
C12   C     C_R   0.044197 0.416279 0.497978 0.134680
C13   C     C_R   0.044048 0.583751 0.500960 0.134633
C14   C     C_R   0.955951 0.416244 0.498113 0.135247
C15   C     C_R   0.340948 0.500022 0.499973 0.825259
C16   C     C_R   0.659051 0.499979 0.500004 0.825577
C17   C     C_R   0.499899 0.499998 0.261549 0.817782
C18   C     C_R   0.499960 0.500053 0.738504 0.817849
C19   C     C_R   0.912413 0.499961 0.499958 0.048420
C20   C     C_R   0.087587 0.500033 0.499415 0.048410
C21   C     C_1   0.500293 0.802708 0.500114 0.242652
C22   C     C_1   0.499686 0.197297 0.499582 0.290994
C23   C     C_1   0.822628 0.499933 0.500021 -0.013237
C24   C     C_1   0.177372 0.500063 0.499572 -0.013208
C25   C     C_R   0.448508 0.663145 0.107097 0.036830
C26   C     C_R   0.450681 0.336199 0.894693 0.031226
C27   C     C_R   0.546760 0.664818 0.894003 0.039909
C28   C     C_R   0.551575 0.337087 0.105146 0.029320
C29   C     C_R   0.470387 0.746679 0.052734 0.390290
C30   C     C_R   0.472271 0.253516 0.951770 0.378546
C31   C     C_R   0.522529 0.747559 0.948639 0.388157
C32   C     C_R   0.531520 0.254061 0.047744 0.379822
C33   C     C_R   0.512414 0.582300 0.939551 -0.043867
C34   C     C_R   0.514352 0.418465 0.060533 -0.050556
C35   C     C_R   0.484916 0.581800 0.060960 -0.043636
C36   C     C_R   0.486547 0.418247 0.939411 -0.050172
Cu1   Cu    Cu3+1 0.500000 0.589220 0.500000 0.951823
Cu2   Cu    Cu3+1 0.500000 0.410780 0.500000 0.953859
N1    N     N_1   0.500000 0.276710 0.500000 -0.185773
N2    N     N_1   0.500000 0.723290 0.500000 -0.183558
O1    O     O_R   0.380310 0.575320 0.500020 -0.571150
O2    O     O_R   0.619690 0.424680 0.499980 -0.574576
O3    O     O_R   0.619690 0.575320 0.499980 -0.578873
O4    O     O_R   0.380310 0.424680 0.500020 -0.582528
O5    O     O_R   0.499990 0.575350 0.319650 -0.572915
O6    O     O_R   0.500010 0.424650 0.680350 -0.574606
O7    O     O_R   0.500010 0.575350 0.680350 -0.572804
O8    O     O_R   0.499990 0.424650 0.319650 -0.575631
C37   C     C_3   0.090488 0.673980 0.501987 -0.836298
H1    H     H_    0.159320 0.667431 0.500866 0.234577
H2    H     H_    0.073251 0.714374 0.419950 0.229174
H3    H     H_    0.074127 0.712777 0.585887 0.235622
C38   C     C_3   0.909510 0.326022 0.496308 -0.840538
H4    H     H_    0.840675 0.332578 0.496505 0.234429
H5    H     H_    0.926335 0.287346 0.412502 0.234951
H6    H     H_    0.926286 0.285507 0.578442 0.228652
C39   C     C_3   0.909202 0.673897 0.503934 -0.835160
H7    H     H_    0.840377 0.667289 0.504777 0.234050
H8    H     H_    0.926366 0.712627 0.587473 0.229041
H9    H     H_    0.925507 0.714389 0.421540 0.235906
C40   C     C_3   0.090798 0.326088 0.496268 -0.839705
H10   H     H_    0.159624 0.332686 0.496273 0.233779
H11   H     H_    0.074058 0.285681 0.578552 0.235300
H12   H     H_    0.074068 0.287275 0.412609 0.228540
O9    O     O_3   0.564267 0.173838 0.093525 -0.566344
C41   C     C_3   0.620946 0.137290 0.007565 -0.264586
H13   H     H_    0.654270 0.079660 0.051108 0.197212
H14   H     H_    0.588059 0.110070 0.925852 0.194399
H15   H     H_    0.668827 0.187998 0.979259 0.131310
O10   O     O_3   0.552633 0.828851 0.902797 -0.596029
C42   C     C_3   0.491617 0.867167 0.825431 -0.236925
H16   H     H_    0.470257 0.818142 0.754395 0.169018
H17   H     H_    0.519466 0.926292 0.777439 0.169517
H18   H     H_    0.437365 0.892486 0.879038 0.209779
O11   O     O_3   0.441028 0.172699 0.905636 -0.568675
C43   C     C_3   0.385235 0.134636 0.991558 -0.264113
H19   H     H_    0.352857 0.076526 0.947661 0.196454
H20   H     H_    0.336510 0.184235 0.020585 0.131688
H21   H     H_    0.418814 0.107714 0.072837 0.195351
O12   O     O_3   0.438144 0.826930 0.099032 -0.595352
C44   C     C_3   0.498408 0.867407 0.175666 -0.247721
H22   H     H_    0.522590 0.818881 0.245347 0.165877
H23   H     H_    0.468721 0.924744 0.225362 0.166019
H24   H     H_    0.550939 0.895725 0.121217 0.214228
O13   O     O_3   0.646094 0.095208 0.446485 -0.523477
C45   C     C_3   0.688978 0.117289 0.555326 -0.271685
H25   H     H_    0.650503 0.160566 0.617114 0.140521
H26   H     H_    0.745638 0.156653 0.530912 0.184753
H27   H     H_    0.709724 0.055198 0.604585 0.157089
O14   O     O_3   0.353864 0.904776 0.552821 -0.539829
C46   C     C_3   0.310802 0.882386 0.444251 -0.252313
H28   H     H_    0.350522 0.843348 0.379179 0.148537
H29   H     H_    0.285995 0.944191 0.398714 0.162785
H30   H     H_    0.256783 0.838780 0.468422 0.181735
O15   O     O_3   0.351239 0.091995 0.550746 -0.524821
C47   C     C_3   0.317168 0.133397 0.445072 -0.296242
H31   H     H_    0.333402 0.098100 0.357685 0.120084
H32   H     H_    0.336742 0.205587 0.439908 0.175539
H33   H     H_    0.248147 0.132714 0.453298 0.185037
O16   O     O_3   0.648562 0.908254 0.447423 -0.536112
C48   C     C_3   0.682520 0.865258 0.552010 -0.285186
H34   H     H_    0.662595 0.895878 0.640980 0.138021
H35   H     H_    0.751523 0.870481 0.547334 0.183844
H36   H     H_    0.666703 0.791915 0.550936 0.175776
C49   C     C_3   0.375929 0.661980 0.195664 -0.698345
H37   H     H_    0.355552 0.591785 0.217651 0.199610
H38   H     H_    0.392523 0.698474 0.281191 0.245931
H39   H     H_    0.321536 0.696789 0.153568 0.219122
C50   C     C_3   0.378020 0.336092 0.806378 -0.655943
H40   H     H_    0.357727 0.405892 0.782072 0.192501
H41   H     H_    0.394418 0.297713 0.722097 0.266296
H42   H     H_    0.323419 0.302614 0.849818 0.209128
C51   C     C_3   0.619887 0.666108 0.806448 -0.701342
H43   H     H_    0.642050 0.596624 0.783841 0.201169
H44   H     H_    0.602945 0.702827 0.721276 0.242442
H45   H     H_    0.673176 0.702069 0.849742 0.219208
C52   C     C_3   0.623919 0.338252 0.194000 -0.653821
H46   H     H_    0.643067 0.408387 0.218472 0.191314
H47   H     H_    0.607801 0.299632 0.278141 0.269138
H48   H     H_    0.679186 0.305696 0.150976 0.208897

loop_
_geom_bond_atom_site_label_1
_geom_bond_atom_site_label_2
_ccdc_geom_bond_type
C7    C10   A    
C41   H14   S    
C10   O13   S    
C48   H34   S    
C30   O11   S    
O15   C47   S    
C17   O8    A    
C18   O7    A    
C44   H22   S    
C39   H7    S    
C25   C49   S    
O13   C45   S    
C27   C33   A    
Cu2   O4    S    
C49   H38   S    
C11   C19   A    
C43   H20   S    
C15   O4    A    
Cu2   O2    S    
Cu1   N2    S    
C28   C52   S    
C52   H47   S    
Cu2   N1    S    
C45   H26   S    
C39   H8    S    
C41   H15   S    
C3    C33   A    
C6    C22   S    
C47   H33   S    
C3    C18   S    
C40   H11   S    
C31   O10   S    
C20   C24   S    
C8    C9    A    
C37   H2    S    
C47   H32   S    
C43   H21   S    
O10   C42   S    
C1    C15   S    
Cu1   O7    S    
C2    C16   S    
Cu2   O8    S    
C51   H45   S    
C41   H13   S    
C4    C35   A    
C28   C34   A    
C48   H35   S    
C8    O15   S    
C18   O6    A    
C44   H23   S    
C38   H5    S    
C25   C29   A    
C49   H39   S    
C4    C34   A    
C7    O16   S    
C27   C31   A    
C28   C32   A    
C43   H19   S    
C15   O1    A    
C52   H48   S    
C46   H28   S    
C5    C7    A    
C45   H25   S    
C39   H9    S    
C6    C8    A    
C38   H4    S    
Cu1   O3    S    
C40   H12   S    
C19   C23   S    
O11   C43   S    
C5    C9    A    
Cu1   Cu2   S    
C46   H29   S    
C26   C50   S    
C37   H3    S    
C47   H31   S    
C12   C20   A    
C16   O3    A    
C25   C35   A    
C13   C37   S    
C4    C17   S    
C27   C51   S    
C26   C36   A    
C12   C14   A    
C26   C30   A    
C48   H36   S    
C50   H42   S    
Cu1   O5    S    
C16   O2    A    
C44   H24   S    
C42   H17   S    
C51   H43   S    
C38   H6    S    
C13   C20   A    
C14   C19   A    
C17   O5    A    
O12   C44   S    
C45   H27   S    
C9    O14   S    
C6    C10   A    
C42   H18   S    
C49   H37   S    
C52   H46   S    
C50   H41   S    
C42   H16   S    
C29   C31   A    
C50   H40   S    
C46   H30   S    
C30   C32   A    
C12   C40   S    
C11   C13   A    
O14   C46   S    
C29   O12   S    
C3    C36   A    
C22   N1    T    
O16   C48   S    
C33   C35   A    
C34   C36   A    
O9    C41   S    
Cu1   O1    S    
C40   H10   S    
Cu2   O6    S    
C14   C38   S    
C5    C21   S    
C1    C24   T    
C37   H1    S    
C2    C23   T    
C11   C39   S    
C32   O9    S    
C51   H44   S    
C21   N2    T    
