data_mof_unit_64303.cif
_audit_creation_date              2012-10-26T17:58:25-0400
_audit_creation_method            fapswitch 2.2
_symmetry_space_group_name_H-M    P1
_symmetry_Int_Tables_number       1
_space_group_crystal_system       monoclinic
_cell_length_a                    37.222863
_cell_length_b                    30.356686
_cell_length_c                    21.752446
_cell_angle_alpha                 90.0
_cell_angle_beta                  54.904527
_cell_angle_gamma                 90.0
_cell_volume                      20110.7899768

loop_
_atom_site_label
_atom_site_type_symbol
_atom_type_description
_atom_site_fract_x
_atom_site_fract_y
_atom_site_fract_z
_atom_type_partial_charge
Br1   Br    Br    0.134229 0.587336 0.422516 -0.473437
Br2   Br    Br    0.570944 0.265534 0.841421 -0.319770
Br3   Br    Br    0.929056 0.765534 0.158578 -0.319770
Br4   Br    Br    0.070944 0.765534 0.841421 -0.319770
Br5   Br    Br    0.114611 0.638208 0.706236 -0.312261
Br6   Br    Br    0.885389 0.638208 0.293764 -0.312261
Br7   Br    Br    0.614611 0.138208 0.706236 -0.312260
Br8   Br    Br    0.385390 0.138208 0.293764 -0.312261
Br9   Br    Br    0.126815 0.415689 0.301287 -0.296404
Br10  Br    Br    0.873185 0.415689 0.698713 -0.296403
Br11  Br    Br    0.626815 0.915689 0.301287 -0.296404
Br12  Br    Br    0.865771 0.587336 0.577484 -0.473437
Br13  Br    Br    0.373185 0.915689 0.698713 -0.296403
Br14  Br    Br    0.634229 0.087336 0.422516 -0.473437
Br15  Br    Br    0.365771 0.087336 0.577484 -0.473437
Br16  Br    Br    0.423780 0.374595 0.155433 -0.370107
Br17  Br    Br    0.576220 0.374595 0.844567 -0.370107
Br18  Br    Br    0.923780 0.874595 0.155433 -0.370107
Br19  Br    Br    0.076220 0.874595 0.844567 -0.370107
Br20  Br    Br    0.429056 0.265534 0.158578 -0.319770
C1    C     C_R   0.085270 0.499945 0.413656 0.565517
C2    C     C_R   0.997373 0.499951 0.316577 0.025365
C3    C     C_R   0.030602 0.797176 0.933572 0.163471
C4    C     C_R   0.000000 0.585032 0.000000 0.552289
C5    C     C_R   0.500000 0.085032 1.000000 0.552289
C6    C     C_R   0.500000 0.415003 1.000000 0.601010
C7    C     C_R   0.000000 0.915003 1.000000 0.601010
C8    C     C_R   0.414914 0.501076 0.084691 0.533240
C9    C     C_R   0.585086 0.501076 0.915309 0.533240
C10   C     C_R   0.914914 0.001076 0.084691 0.533240
C11   C     C_R   0.085086 0.001076 0.915309 0.533240
C12   C     C_R   0.468836 0.343407 0.066109 0.146189
C13   C     C_R   0.502627 0.999951 0.683423 0.025365
C14   C     C_R   0.531164 0.343407 0.933890 0.146189
C15   C     C_R   0.968836 0.843407 0.066109 0.146189
C16   C     C_R   0.031164 0.843407 0.933890 0.146189
C17   C     C_R   0.500000 0.584978 0.000000 0.492098
C18   C     C_R   0.000000 0.084978 1.000000 0.492098
C19   C     C_R   0.962345 0.297547 0.055242 -0.104693
C20   C     C_R   0.037655 0.297547 0.944758 -0.104693
C21   C     C_R   0.462344 0.797547 0.055242 -0.104693
C22   C     C_R   0.537655 0.797547 0.944758 -0.104693
C23   C     C_R   0.500000 0.633397 0.000000 -0.092174
C24   C     C_R   0.497373 0.999951 0.316577 0.025365
C25   C     C_R   0.000000 0.133397 1.000000 -0.092174
C26   C     C_R   0.962223 0.343404 0.054958 -0.106074
C27   C     C_R   0.037777 0.343404 0.945042 -0.106074
C28   C     C_R   0.462223 0.843404 0.054958 -0.106074
C29   C     C_R   0.537777 0.843404 0.945042 -0.106074
C30   C     C_R   0.000000 0.366654 0.000000 0.027695
C31   C     C_R   0.500000 0.866654 0.000000 0.027695
C32   C     C_R   0.500000 0.274062 1.000000 -0.044652
C33   C     C_R   0.000000 0.774062 1.000000 -0.044652
C34   C     C_R   0.500000 0.366604 1.000000 -0.030395
C35   C     C_R   0.972550 0.473384 0.744874 0.221783
C36   C     C_R   0.000000 0.866604 1.000000 -0.030395
C37   C     C_R   1.000000 0.274506 0.000000 -0.011987
C38   C     C_R   0.500000 0.774506 0.000000 -0.011987
C39   C     C_R   0.471622 0.702719 0.987861 0.272261
C40   C     C_R   0.528378 0.702719 0.012139 0.272261
C41   C     C_R   0.971622 0.202719 0.987862 0.272262
C42   C     C_R   0.028378 0.202719 0.012138 0.272261
C43   C     C_R   0.469991 0.656812 0.991987 0.262151
C44   C     C_R   0.530008 0.656812 0.008013 0.262152
C45   C     C_R   0.969991 0.156812 0.991987 0.262151
C46   C     C_R   0.027450 0.473384 0.255126 0.221783
C47   C     C_R   0.030009 0.156812 0.008012 0.262151
C48   C     C_R   0.065315 0.551315 0.623441 -0.117121
C49   C     C_R   0.934685 0.551315 0.376559 -0.117121
C50   C     C_R   0.565315 0.051315 0.623441 -0.117121
C51   C     C_R   0.434685 0.051315 0.376559 -0.117121
C52   C     C_R   0.091093 0.581873 0.629210 -0.102552
C53   C     C_R   0.908907 0.581873 0.370790 -0.102552
C54   C     C_R   0.591093 0.081873 0.629210 -0.102552
C55   C     C_R   0.408907 0.081873 0.370790 -0.102552
C56   C     C_R   0.082022 0.592129 0.699085 0.244713
C57   C     C_R   0.472550 0.973384 0.744874 0.221783
C58   C     C_R   0.917978 0.592129 0.300915 0.244713
C59   C     C_R   0.582022 0.092129 0.699085 0.244713
C60   C     C_R   0.417978 0.092130 0.300914 0.244713
C61   C     C_R   0.048350 0.570162 0.763518 0.286053
C62   C     C_R   0.951649 0.570162 0.236481 0.286054
C63   C     C_R   0.548350 0.070162 0.763518 0.286053
C64   C     C_R   0.451650 0.070162 0.236481 0.286054
C65   C     C_R   0.025721 0.534539 0.756697 -0.074910
C66   C     C_R   0.974279 0.534539 0.243303 -0.074910
C67   C     C_R   0.525721 0.034539 0.756697 -0.074910
C68   C     C_R   0.527450 0.973384 0.255126 0.221783
C69   C     C_R   0.474279 0.034539 0.243303 -0.074910
C70   C     C_R   0.972962 0.473174 0.809175 0.213194
C71   C     C_R   0.027038 0.473174 0.190825 0.213194
C72   C     C_R   0.472962 0.973174 0.809175 0.213194
C73   C     C_R   0.914730 0.499945 0.586344 0.565517
C74   C     C_R   0.527038 0.973174 0.190825 0.213194
C75   C     C_R   0.998638 0.504267 0.815628 0.003001
C76   C     C_R   0.001362 0.504267 0.184372 0.003001
C77   C     C_R   0.498638 0.004267 0.815628 0.003001
C78   C     C_R   0.501362 0.004267 0.184372 0.003002
C79   C     C_R   0.202531 0.461075 0.270097 0.286003
C80   C     C_R   0.797469 0.461075 0.729903 0.286004
C81   C     C_R   0.702531 0.961075 0.270097 0.286004
C82   C     C_R   0.297469 0.961075 0.729903 0.286003
C83   C     C_R   0.156524 0.463035 0.314424 0.196231
C84   C     C_R   0.585270 0.999945 0.413656 0.565516
C85   C     C_R   0.843476 0.463035 0.685576 0.196231
C86   C     C_R   0.656524 0.963035 0.314424 0.196231
C87   C     C_R   0.343476 0.963035 0.685576 0.196231
C88   C     C_R   0.133942 0.499388 0.363303 -0.023452
C89   C     C_R   0.866058 0.499388 0.636697 -0.023452
C90   C     C_R   0.633942 0.999388 0.363303 -0.023452
C91   C     C_R   0.366058 0.999388 0.636697 -0.023452
C92   C     C_R   0.158878 0.534567 0.363670 0.113256
C93   C     C_R   0.841122 0.534567 0.636330 0.113256
C94   C     C_R   0.658878 0.034567 0.363670 0.113256
C95   C     C_R   0.414730 0.999945 0.586344 0.565517
C96   C     C_R   0.341122 0.034567 0.636330 0.113256
C97   C     C_R   0.204457 0.532307 0.319284 -0.085074
C98   C     C_R   0.795543 0.532307 0.680716 -0.085075
C99   C     C_R   0.704457 0.032307 0.319284 -0.085075
C100  C     C_R   0.295543 0.032307 0.680715 -0.085075
C101  C     C_R   0.001214 0.499954 0.617681 0.571937
C102  C     C_R   0.998786 0.499954 0.382319 0.571936
C103  C     C_R   0.501214 0.999954 0.617681 0.571937
C104  C     C_R   0.498786 0.999954 0.382319 0.571936
C105  C     C_R   0.226397 0.496077 0.273220 -0.004533
C106  C     C_R   0.031199 0.528599 0.687355 -0.076153
C107  C     C_R   0.773603 0.496077 0.726780 -0.004532
C108  C     C_R   0.726397 0.996077 0.273220 -0.004533
C109  C     C_R   0.273603 0.996077 0.726780 -0.004533
C110  C     C_R   0.295947 0.512000 0.151690 -0.086500
C111  C     C_R   0.704053 0.512000 0.848310 -0.086500
C112  C     C_R   0.795947 0.012000 0.151690 -0.086500
C113  C     C_R   0.204053 0.012000 0.848310 -0.086500
C114  C     C_R   0.341504 0.515575 0.105374 0.235098
C115  C     C_R   0.658496 0.515576 0.894626 0.235098
C116  C     C_R   0.841504 0.015576 0.105374 0.235098
C117  C     C_R   0.968801 0.528599 0.312645 -0.076152
C118  C     C_R   0.158496 0.015576 0.894626 0.235098
C119  C     C_R   0.366444 0.501769 0.132612 -0.021383
C120  C     C_R   0.633556 0.501769 0.867388 -0.021383
C121  C     C_R   0.866444 0.001769 0.132612 -0.021383
C122  C     C_R   0.133556 0.001769 0.867388 -0.021383
C123  C     C_R   0.344382 0.486799 0.207183 -0.127652
C124  C     C_R   0.655618 0.486799 0.792817 -0.127652
C125  C     C_R   0.844382 0.986798 0.207182 -0.127652
C126  C     C_R   0.155618 0.986799 0.792817 -0.127652
C127  C     C_R   0.298365 0.484689 0.254228 0.253580
C128  C     C_R   0.531199 0.028599 0.687355 -0.076152
C129  C     C_R   0.701635 0.484689 0.745772 0.253579
C130  C     C_R   0.798365 0.984689 0.254228 0.253580
C131  C     C_R   0.201635 0.984689 0.745772 0.253580
C132  C     C_R   0.274454 0.497160 0.225578 -0.008076
C133  C     C_R   0.725545 0.497160 0.774422 -0.008076
C134  C     C_R   0.774454 0.997160 0.225578 -0.008077
C135  C     C_R   0.225546 0.997160 0.774422 -0.008077
C136  C     C_R   0.000000 0.633320 0.000000 0.058950
C137  C     C_R   0.500000 0.133320 1.000000 0.058950
C138  C     C_R   0.035371 0.702454 0.990810 -0.044293
C139  C     C_R   0.468801 0.028599 0.312645 -0.076152
C140  C     C_R   0.964629 0.702454 0.009190 -0.044293
C141  C     C_R   0.535371 0.202454 0.990810 -0.044293
C142  C     C_R   0.464629 0.202454 0.009190 -0.044293
C143  C     C_R   0.500000 0.726081 0.000000 -0.098892
C144  C     C_R   0.000000 0.226081 1.000000 -0.098892
C145  C     C_R   0.035615 0.656547 0.989940 -0.074986
C146  C     C_R   0.964385 0.656547 0.010060 -0.074986
C147  C     C_R   0.535615 0.156548 0.989940 -0.074986
C148  C     C_R   0.464385 0.156548 0.010060 -0.074986
C149  C     C_R   0.000000 0.725587 1.000000 0.077810
C150  C     C_R   0.002627 0.499951 0.683423 0.025365
C151  C     C_R   0.500000 0.225587 1.000000 0.077810
C152  C     C_R   0.000000 0.414938 0.000000 0.557580
C153  C     C_R   0.500000 0.914938 1.000000 0.557580
C154  C     C_R   0.999692 0.501252 0.881534 0.592957
C155  C     C_R   0.000308 0.501252 0.118465 0.592958
C156  C     C_R   0.499692 0.001252 0.881534 0.592957
C157  C     C_R   0.500308 0.001252 0.118465 0.592958
C158  C     C_R   0.469398 0.297176 0.066428 0.163471
C159  C     C_R   0.530602 0.297176 0.933572 0.163471
C160  C     C_R   0.969398 0.797176 0.066428 0.163471
Cu1   Cu    Cu3+1 1.000000 0.544050 0.500000 1.104450
Cu2   Cu    Cu3+1 0.500000 0.500010 0.938200 1.086962
Cu3   Cu    Cu3+1 0.000000 0.000010 0.061800 1.086961
Cu4   Cu    Cu3+1 0.000000 0.000010 0.938200 1.086961
Cu5   Cu    Cu3+1 0.500000 0.044050 0.500000 1.104450
Cu6   Cu    Cu3+1 1.000000 0.455950 0.500000 1.167125
Cu7   Cu    Cu3+1 0.500000 0.955950 0.500000 1.167125
Cu8   Cu    Cu3+1 0.955950 0.499980 0.044050 1.079297
Cu9   Cu    Cu3+1 0.044050 0.499980 0.955950 1.079298
Cu10  Cu    Cu3+1 0.455950 0.999980 0.044050 1.079297
Cu11  Cu    Cu3+1 0.544050 0.999980 0.955950 1.079298
Cu12  Cu    Cu3+1 0.500000 0.500010 0.061800 1.086961
H1    H     H_    0.063274 0.639211 0.982584 0.140999
H2    H     H_    0.723008 0.522177 0.869390 0.174302
H3    H     H_    0.776992 0.022177 0.130610 0.174302
H4    H     H_    0.223008 0.022176 0.869390 0.174302
H5    H     H_    0.362955 0.476126 0.228691 0.162873
H6    H     H_    0.637045 0.476126 0.771309 0.162873
H7    H     H_    0.862955 0.976126 0.228691 0.162873
H8    H     H_    0.137045 0.976126 0.771309 0.162873
H9    H     H_    0.062784 0.720019 0.983993 0.154145
H10   H     H_    0.937216 0.720019 0.016007 0.154145
H11   H     H_    0.562784 0.220019 0.983993 0.154145
H12   H     H_    0.936726 0.639211 0.017416 0.140999
H13   H     H_    0.437216 0.220019 0.016007 0.154145
H14   H     H_    0.933135 0.279948 0.098284 0.155983
H15   H     H_    0.066865 0.279948 0.901715 0.155983
H16   H     H_    0.433134 0.779948 0.098284 0.155983
H17   H     H_    0.566865 0.779948 0.901716 0.155983
H18   H     H_    0.932782 0.360629 0.098133 0.149409
H19   H     H_    0.067218 0.360629 0.901867 0.149409
H20   H     H_    0.432782 0.860629 0.098132 0.149409
H21   H     H_    0.567218 0.860629 0.901868 0.149409
H22   H     H_    0.072909 0.544931 0.568310 0.177818
H23   H     H_    0.563274 0.139211 0.982584 0.140999
H24   H     H_    0.927091 0.544931 0.431690 0.177818
H25   H     H_    0.572909 0.044931 0.568310 0.177818
H26   H     H_    0.427092 0.044931 0.431690 0.177818
H27   H     H_    0.117214 0.598835 0.579494 0.195635
H28   H     H_    0.882786 0.598835 0.420506 0.195635
H29   H     H_    0.617214 0.098835 0.579494 0.195635
H30   H     H_    0.382786 0.098835 0.420506 0.195635
H31   H     H_    0.385295 0.551449 0.022366 0.345025
H32   H     H_    0.614705 0.551449 0.977633 0.345025
H33   H     H_    0.885295 0.051449 0.022366 0.345025
H34   H     H_    0.436726 0.139211 0.017416 0.140999
H35   H     H_    0.114705 0.051449 0.977634 0.345026
H36   H     H_    0.297782 0.462712 0.338793 0.345395
H37   H     H_    0.702218 0.462711 0.661208 0.345395
H38   H     H_    0.797782 0.962711 0.338792 0.345395
H39   H     H_    0.202218 0.962711 0.661208 0.345394
H40   H     H_    0.916184 0.443839 0.792347 0.357178
H41   H     H_    0.083816 0.443839 0.207653 0.357179
H42   H     H_    0.416184 0.943839 0.792347 0.357178
H43   H     H_    0.583816 0.943839 0.207653 0.357179
H44   H     H_    0.454358 0.753723 0.955469 0.335797
H45   H     H_    0.223165 0.559388 0.320126 0.180976
H46   H     H_    0.545642 0.753723 0.044531 0.335797
H47   H     H_    0.954357 0.253723 0.955470 0.335798
H48   H     H_    0.045643 0.253723 0.044530 0.335797
H49   H     H_    0.430768 0.607699 0.014577 0.311500
H50   H     H_    0.569232 0.607699 0.985422 0.311500
H51   H     H_    0.930768 0.107699 0.014579 0.311500
H52   H     H_    0.069232 0.107699 0.985421 0.311500
H53   H     H_    0.003825 0.584786 0.866355 0.301345
H54   H     H_    0.996175 0.584786 0.133645 0.301345
H55   H     H_    0.503825 0.084786 0.866355 0.301345
H56   H     H_    0.776835 0.559388 0.679874 0.180976
H57   H     H_    0.496175 0.084786 0.133644 0.301345
H58   H     H_    0.945749 0.415448 0.844192 0.347104
H59   H     H_    0.054251 0.415448 0.155807 0.347104
H60   H     H_    0.445749 0.915448 0.844192 0.347104
H61   H     H_    0.554251 0.915448 0.155808 0.347104
H62   H     H_    0.254706 0.425642 0.199724 0.345958
H63   H     H_    0.745294 0.425642 0.800276 0.345958
H64   H     H_    0.754706 0.925642 0.199724 0.345958
H65   H     H_    0.245294 0.925642 0.800276 0.345958
H66   H     H_    0.723165 0.059388 0.320126 0.180976
H67   H     H_    0.276835 0.059388 0.679874 0.180976
H68   H     H_    0.276992 0.522176 0.130610 0.174302
O1    O     O_R   0.064270 0.537190 0.435730 -0.472411
O2    O     O_R   0.564280 0.500010 0.987920 -0.492066
O3    O     O_R   0.935720 0.000010 0.012080 -0.492065
O4    O     O_R   0.064280 0.000010 0.987920 -0.492066
O5    O     O_R   0.500010 0.564280 0.052190 -0.499075
O6    O     O_R   0.499990 0.564280 0.947810 -0.499075
O7    O     O_R   0.000010 0.064280 0.052190 -0.499076
O8    O     O_R   0.999990 0.064280 0.947810 -0.499075
O9    O     O_R   0.064270 0.462800 0.435730 -0.476322
O10   O     O_R   0.935730 0.462800 0.564270 -0.476322
O11   O     O_R   0.564270 0.962800 0.435730 -0.476322
O12   O     O_R   0.935730 0.537190 0.564270 -0.472411
O13   O     O_R   0.435730 0.962800 0.564270 -0.476322
O14   O     O_R   0.000010 0.537190 0.590170 -0.519050
O15   O     O_R   0.999990 0.537190 0.409830 -0.519050
O16   O     O_R   0.500010 0.037190 0.590170 -0.519050
O17   O     O_R   0.499990 0.037190 0.409830 -0.519050
O18   O     O_R   0.000000 0.462800 0.590170 -0.453215
O19   O     O_R   0.000000 0.462800 0.409830 -0.453215
O20   O     O_R   0.500000 0.962800 0.590170 -0.453215
O21   O     O_R   0.500000 0.962800 0.409830 -0.453214
O22   O     O_R   0.962800 0.435720 0.037190 -0.506123
O23   O     O_R   0.564270 0.037190 0.435730 -0.472411
O24   O     O_R   0.037200 0.435720 0.962810 -0.506122
O25   O     O_R   0.462800 0.935720 0.037190 -0.506123
O26   O     O_R   0.537200 0.935720 0.962810 -0.506122
O27   O     O_R   0.962790 0.499990 0.947030 -0.470763
O28   O     O_R   0.037210 0.499990 0.052970 -0.470762
O29   O     O_R   0.462790 0.999990 0.947030 -0.470763
O30   O     O_R   0.537210 0.999990 0.052970 -0.470762
O31   O     O_R   0.037190 0.500000 0.872640 -0.485204
O32   O     O_R   0.962810 0.500000 0.127360 -0.485205
O33   O     O_R   0.537190 0.000000 0.872640 -0.485204
O34   O     O_R   0.435730 0.037190 0.564270 -0.472411
O35   O     O_R   0.462810 0.000000 0.127360 -0.485205
O36   O     O_R   0.962790 0.564250 0.037210 -0.491605
O37   O     O_R   0.037210 0.564250 0.962790 -0.491604
O38   O     O_R   0.462790 0.064250 0.037210 -0.491605
O39   O     O_R   0.537210 0.064250 0.962790 -0.491604
O40   O     O_R   0.500000 0.435740 0.052190 -0.466719
O41   O     O_R   0.500000 0.435740 0.947810 -0.466719
O42   O     O_R   1.000000 0.935740 0.052190 -0.466719
O43   O     O_R   0.000000 0.935740 0.947810 -0.466719
O44   O     O_3   0.359892 0.533261 0.034950 -0.635482
O45   O     O_R   0.435730 0.500010 0.116460 -0.503053
O46   O     O_3   0.640108 0.533262 0.965049 -0.635481
O47   O     O_3   0.859892 0.033261 0.034951 -0.635482
O48   O     O_3   0.140108 0.033261 0.965050 -0.635482
O49   O     O_3   0.276160 0.470184 0.327614 -0.648204
O50   O     O_3   0.723840 0.470183 0.672386 -0.648204
O51   O     O_3   0.776160 0.970183 0.327613 -0.648204
O52   O     O_3   0.223840 0.970184 0.672386 -0.648203
O53   O     O_3   0.942842 0.448538 0.740859 -0.645022
O54   O     O_3   0.057158 0.448538 0.259140 -0.645022
O55   O     O_3   0.442842 0.948538 0.740859 -0.645022
O56   O     O_R   0.564270 0.500010 0.883540 -0.503053
O57   O     O_3   0.557158 0.948538 0.259140 -0.645022
O58   O     O_3   0.444031 0.723362 0.973479 -0.601153
O59   O     O_3   0.555969 0.723362 0.026521 -0.601153
O60   O     O_3   0.944030 0.223362 0.973480 -0.601154
O61   O     O_3   0.055970 0.223362 0.026519 -0.601153
O62   O     O_3   0.438513 0.636095 0.987539 -0.594047
O63   O     O_3   0.561487 0.636095 0.012461 -0.594045
O64   O     O_3   0.938512 0.136095 0.987541 -0.594046
O65   O     O_3   0.061488 0.136095 0.012459 -0.594046
O66   O     O_3   0.036264 0.586611 0.831842 -0.639876
O67   O     O_R   0.935730 0.000010 0.116460 -0.503053
O68   O     O_3   0.963736 0.586611 0.168158 -0.639877
O69   O     O_3   0.536264 0.086611 0.831842 -0.639876
O70   O     O_3   0.463736 0.086611 0.168157 -0.639876
O71   O     O_3   0.949565 0.442340 0.865676 -0.675035
O72   O     O_3   0.050435 0.442340 0.134324 -0.675035
O73   O     O_3   0.449565 0.942340 0.865676 -0.675035
O74   O     O_3   0.550434 0.942340 0.134324 -0.675035
O75   O     O_3   0.222640 0.424638 0.224370 -0.610302
O76   O     O_3   0.777360 0.424638 0.775630 -0.610303
O77   O     O_3   0.722640 0.924638 0.224370 -0.610303
O78   O     O_R   0.064270 0.000010 0.883540 -0.503053
O79   O     O_3   0.277360 0.924638 0.775630 -0.610303
O80   O     O_R   0.435720 0.500010 0.012080 -0.492065

loop_
_geom_bond_atom_site_label_1
_geom_bond_atom_site_label_2
_ccdc_geom_bond_type
C41   O60   S    
C79   C83   A    
C58   C62   A    
C80   C107  A    
C122  C126  A    
C9    O56   A    
C22   C38   A    
C23   C43   A    
C70   C75   A    
C49   H24   S    
C155  O32   A    
C125  H7    S    
C98   H56   S    
C29   H21   S    
H61   O74   S    
C81   C108  A    
Cu3   O7    S    
C129  C133  A    
C18   C25   S    
C71   C76   A    
Cu3   O67   S    
C142  C151  A    
C28   H20   S    
C29   C31   A    
C5    O38   A    
C50   C54   A    
C3    C33   A    
C140  C146  A    
C121  C125  A    
Cu1   O12   S    
C99   C108  A    
C97   H45   S    
H35   O48   S    
C95   O34   A    
H52   O65   S    
C12   C158  A    
C14   C159  A    
C110  C114  A    
Cu2   Cu12  S    
C137  C148  A    
Cu8   O32   S    
C2    C102  S    
C57   O55   S    
Cu8   O22   S    
C67   C128  A    
C70   O71   S    
Br4   C3    S    
Br14  C94   S    
H58   O71   S    
H51   O64   S    
C116  C121  A    
C95   O13   A    
Cu8   O27   S    
C136  C146  A    
C48   C52   A    
Cu10  O25   S    
C22   H17   S    
C40   O59   S    
H38   O51   S    
C14   C34   A    
C54   C59   A    
C142  H13   S    
C110  C132  A    
C50   C128  A    
Br17  C14   S    
Br7   C59   S    
C156  O33   A    
Cu5   O17   S    
C110  H68   S    
H65   O79   S    
C39   C43   A    
C63   O69   S    
C40   C44   A    
Br5   C56   S    
C43   O62   S    
H47   O60   S    
C84   C90   S    
H44   O58   S    
C113  H4    S    
C17   O6    A    
C126  H8    S    
C84   O11   A    
H39   O52   S    
C41   C45   A    
C99   H66   S    
C3    C16   A    
C24   C139  A    
H37   O50   S    
C4    C136  S    
C138  C145  A    
C47   O65   S    
H31   O44   S    
Cu10  Cu11  S    
C76   C155  S    
C27   H19   S    
H49   O62   S    
C147  H23   S    
C18   O7    A    
C40   C143  A    
Cu7   O21   S    
C62   C66   A    
C54   H29   S    
C10   C121  S    
C21   C38   A    
C35   C70   A    
Br1   C92   S    
C148  H34   S    
Cu5   Cu7   S    
Cu10  O29   S    
Cu9   O24   S    
C101  O14   A    
C39   O58   S    
C119  C123  A    
C112  C134  A    
C62   O68   S    
Br18  C15   S    
C90   C94   A    
C35   C150  A    
C94   C99   A    
C42   O61   S    
C118  O48   S    
Cu2   O80   S    
C101  C150  S    
C65   C106  A    
C8    C119  S    
C6    C34   S    
C4    O36   A    
C72   C77   A    
C69   C139  A    
C27   C30   A    
C129  O50   S    
C68   C74   A    
C100  C109  A    
C114  C119  A    
C96   C100  A    
H41   O54   S    
Br3   C160  S    
C106  C150  A    
H60   O73   S    
H55   O69   S    
H62   O75   S    
C112  C116  A    
C9    O2    A    
C82   C87   A    
Cu8   O36   S    
H36   O49   S    
C141  C147  A    
C51   H26   S    
C142  C148  A    
C131  C135  A    
C154  O31   A    
C25   C45   A    
C98   C107  A    
Cu1   O15   S    
C81   C86   A    
C9    C120  S    
C85   C89   A    
C15   C36   A    
C87   C91   A    
Cu1   Cu6   S    
C108  C134  S    
Br16  C12   S    
C74   O74   S    
C69   C78   A    
C32   C159  A    
C102  O15   A    
C4    O37   A    
C65   C75   A    
Cu6   O9    S    
C13   C57   A    
Br9   C83   S    
Cu12  O5    S    
C82   O79   S    
C1    C88   S    
C39   C143  A    
C126  C131  A    
C141  C151  A    
C44   O63   S    
Cu11  O33   S    
C64   C69   A    
C64   O70   S    
C138  H9    S    
C30   C152  S    
C156  O29   A    
C97   C105  A    
C61   C65   A    
Cu6   O18   S    
C115  O46   S    
C73   C89   S    
Cu12  O40   S    
C63   C67   A    
Cu4   O78   S    
Cu12  O45   S    
C20   C27   A    
C41   C144  A    
H63   O76   S    
H54   O68   S    
H43   O57   S    
C1    O9    A    
Cu6   O19   S    
C7    O42   A    
H42   O55   S    
C140  H10   S    
C92   C97   A    
C74   C78   A    
Cu3   O4    S    
C19   H14   S    
C15   C160  A    
C10   O3    A    
C66   C117  A    
Cu9   O31   S    
C42   C144  A    
C153  O26   A    
C55   H30   S    
C79   O75   S    
C25   C47   A    
C112  H3    S    
C140  C149  A    
C49   C53   A    
C91   C96   A    
C48   H22   S    
C33   C149  S    
C80   O76   S    
C20   H15   S    
Cu7   O11   S    
C113  C118  A    
Cu2   O56   S    
Cu10  O38   S    
C38   C143  S    
C12   C34   A    
C23   C44   A    
C46   O54   S    
C115  C120  A    
C50   H25   S    
H50   O63   S    
C101  O18   A    
C118  C122  A    
Cu5   O16   S    
C60   C64   A    
C109  C135  S    
C103  O20   A    
Br20  C158  S    
Cu7   O20   S    
C24   C104  S    
C88   C92   A    
C53   H28   S    
C11   O4    A    
C17   C23   S    
Cu3   O42   S    
C16   C36   A    
C13   C128  A    
Cu11  O39   S    
C2    C117  A    
C123  H5    S    
C127  O49   S    
Br11  C86   S    
C10   O67   A    
C157  O30   A    
C6    O40   A    
C17   O5    A    
Cu5   O23   S    
C66   C76   A    
H59   O72   S    
Cu7   O13   S    
C157  O35   A    
C137  C147  A    
C20   C37   A    
C6    O41   A    
C7    C36   S    
C120  C124  A    
C104  O17   A    
C100  H67   S    
C21   H16   S    
C84   O23   A    
C26   H18   S    
C59   C63   A    
C136  C145  A    
C154  O27   A    
C155  O28   A    
C32   C158  A    
Br6   C58   S    
Cu4   O43   S    
Cu1   O1    S    
Br13  C87   S    
Br15  C96   S    
H53   O66   S    
Cu11  O30   S    
C57   C72   A    
C130  O51   S    
H64   O77   S    
C8    O45   A    
C71   O72   S    
C82   C109  A    
C52   C56   A    
C45   O64   S    
C102  O19   A    
C107  C133  S    
C79   C105  A    
C104  O21   A    
C123  C127  A    
H40   O53   S    
C37   C144  S    
C80   C85   A    
C42   C47   A    
Cu2   O41   S    
C75   C154  S    
H57   O70   S    
C111  C115  A    
Br19  C16   S    
C35   O53   S    
H33   O47   S    
Cu9   O37   S    
C19   C37   A    
H46   O59   S    
Cu4   O3    S    
C7    O43   A    
C31   C153  S    
C18   O8    A    
C2    C46   A    
C28   C31   A    
C73   O10   A    
C53   C58   A    
C83   C88   A    
C55   C60   A    
C89   C93   A    
C152  O22   A    
Cu10  O35   S    
C131  O52   S    
C77   C156  S    
C5    O39   A    
C114  O44   S    
C32   C151  S    
Cu1   O14   S    
C49   C117  A    
C111  C133  A    
C72   O73   S    
Cu8   Cu9   S    
Cu3   Cu4   S    
C124  C129  A    
C105  C132  S    
C8    O80   A    
Cu6   O10   S    
C153  O25   A    
C146  H12   S    
C78   C157  S    
C11   O78   A    
C19   C26   A    
C1    O1    A    
C5    C137  S    
C68   O57   S    
Cu4   O8    S    
C111  H2    S    
Br2   C159  S    
C33   C160  A    
C48   C106  A    
C103  O16   A    
C13   C103  S    
Br12  C93   S    
C86   C90   A    
C61   O66   S    
C52   H27   S    
C81   O77   S    
C113  C135  A    
C141  H11   S    
C125  C130  A    
C145  H1    S    
C56   C61   A    
C138  C149  A    
C46   C71   A    
C51   C139  A    
C26   C30   A    
C11   C122  S    
C127  C132  A    
C51   C55   A    
C116  O47   S    
Cu2   O6    S    
C73   O12   A    
C21   C28   A    
Cu12  O2    S    
H48   O61   S    
C22   C29   A    
C93   C98   A    
C152  O24   A    
C124  H6    S    
C130  C134  A    
Cu9   O28   S    
Br8   C60   S    
Br10  C85   S    
C91   C95   S    
Cu5   O34   S    
Cu11  O26   S    
H32   O46   S    
C24   C68   A    
C67   C77   A    
