data_mof_unit_67433.cif
_audit_creation_date              2012-12-10T16:42:35-0500
_audit_creation_method            fapswitch 2.2
_symmetry_space_group_name_H-M    P1
_symmetry_Int_Tables_number       1
_space_group_crystal_system       triclinic
_cell_length_a                    7.734569
_cell_length_b                    8.904574
_cell_length_c                    11.164975
_cell_angle_alpha                 80.755724
_cell_angle_beta                  70.757139
_cell_angle_gamma                 104.061716
_cell_volume                      679.486906608

loop_
_atom_site_label
_atom_site_type_symbol
_atom_type_description
_atom_site_fract_x
_atom_site_fract_y
_atom_site_fract_z
_atom_type_partial_charge
C1    C     C_R   0.450951 0.199619 0.503711 0.823639
C2    C     C_2   0.573688 0.969413 0.494588 -0.344912
C3    C     C_3   0.905148 0.724978 0.977042 0.049904
C4    C     C_3   0.112303 0.758841 0.882535 -0.775943
C5    C     C_3   0.072285 0.341067 0.067253 0.087234
C6    C     C_3   0.876241 0.251663 0.070870 -0.701111
C7    C     C_R   0.896840 0.310736 0.650892 0.306800
C8    C     C_R   0.979494 0.222661 0.722928 -0.083840
C9    C     C_R   0.878253 0.088640 0.829780 -0.248640
C10   C     C_R   0.681133 0.026610 0.875046 -0.133519
C11   C     C_R   0.586767 0.103685 0.814855 -0.197181
C12   C     C_R   0.548944 0.800303 0.496580 0.821728
C13   C     C_R   0.690139 0.239888 0.708266 -0.120621
C14   C     C_R   0.101304 0.695092 0.354219 0.322518
C15   C     C_R   0.019409 0.788198 0.284806 -0.129331
C16   C     C_R   0.117401 0.940906 0.197914 -0.232954
C17   C     C_R   0.310326 0.011559 0.167152 -0.058193
C18   C     C_R   0.405537 0.923057 0.216577 -0.263189
C19   C     C_R   0.306384 0.768984 0.300981 -0.150125
C20   C     C_R   0.418933 0.487490 0.744013 0.733588
C21   C     C_R   0.580420 0.510769 0.255899 0.689084
C22   C     C_2   0.367125 0.455171 0.887680 0.278272
C23   C     C_2   0.626459 0.528503 0.112932 0.269462
C24   C     C_2   0.503944 0.526644 0.930273 -0.229070
C25   C     C_2   0.479474 0.502116 0.069975 -0.240787
C26   C     C_2   0.425996 0.030369 0.506402 -0.341661
Cu1   Cu    Cu3+1 0.688910 0.517800 0.485820 0.912229
Cu2   Cu    Cu3+1 0.311090 0.482200 0.514180 0.910774
H1    H     H_    0.334796 0.473307 0.140844 0.147157
H2    H     H_    0.084951 0.469480 0.059832 0.190712
H3    H     H_    0.077196 0.287572 0.162523 0.149746
H4    H     H_    0.857704 0.304316 0.980763 0.292583
H5    H     H_    0.864732 0.124590 0.075929 0.193336
H6    H     H_    0.760123 0.257200 0.159021 0.213894
H7    H     H_    0.124274 0.246016 0.706988 0.202707
H8    H     H_    0.956348 0.037338 0.879997 0.143532
H9    H     H_    0.601820 0.921816 0.957529 0.138364
H10   H     H_    0.430485 0.058999 0.852506 0.149621
H11   H     H_    0.584833 0.272180 0.684970 0.188880
H12   H     H_    0.637687 0.612388 0.857878 0.170620
H13   H     H_    0.878057 0.755255 0.289983 0.184140
H14   H     H_    0.042021 0.003448 0.153222 0.152773
H15   H     H_    0.387211 0.130112 0.100611 0.183065
H16   H     H_    0.559584 0.971830 0.187274 0.129241
H17   H     H_    0.412066 0.726051 0.313503 0.188274
H18   H     H_    0.284738 0.955301 0.518205 0.193934
H19   H     H_    0.714886 0.044463 0.482935 0.186170
H20   H     H_    0.905915 0.785475 0.056631 0.121469
H21   H     H_    0.829614 0.775211 0.920631 0.148091
H22   H     H_    0.116222 0.681219 0.813824 0.279124
H23   H     H_    0.172757 0.885681 0.823596 0.189493
H24   H     H_    0.203683 0.737127 0.937739 0.220375
N1    N     N_2   0.027170 0.455360 0.535550 -0.149314
N2    N     N_2   0.972830 0.544640 0.464450 -0.148886
O1    O     O_R   0.622710 0.286400 0.490790 -0.595234
O2    O     O_3   0.217424 0.314804 0.964647 -0.616847
O3    O     O_R   0.377290 0.713600 0.509210 -0.589526
O4    O     O_R   0.303660 0.256330 0.514730 -0.605196
O5    O     O_R   0.696340 0.743670 0.485270 -0.601872
O6    O     O_R   0.600900 0.509520 0.671740 -0.611035
O7    O     O_R   0.399100 0.490480 0.328260 -0.622893
O8    O     O_R   0.281840 0.479450 0.695690 -0.596007
O9    O     O_R   0.718160 0.520550 0.304310 -0.588365
O10   O     O_3   0.814703 0.558501 0.027851 -0.586279

loop_
_geom_bond_atom_site_label_1
_geom_bond_atom_site_label_2
_ccdc_geom_bond_type
C5    H3    S    
C9    H8    S    
C6    H4    S    
Cu2   N1    S    
C19   H17   S    
N1    N2    D    
Cu2   O4    S    
C2    H19   S    
C20   O6    A    
C9    C10   A    
C5    O2    S    
C21   O7    A    
C6    H5    S    
C2    C12   S    
Cu2   O7    S    
C21   C23   S    
C17   C18   A    
C3    H21   S    
Cu1   N2    S    
C7    C8    A    
C2    C26   D    
Cu1   O5    S    
C1    O4    A    
C25   H1    S    
C11   C13   A    
C1    C26   S    
C6    H6    S    
Cu1   O9    S    
C4    H24   S    
C10   H9    S    
C12   O3    A    
C22   C24   D    
C23   O10   S    
C24   H12   S    
C20   C22   S    
C1    O1    A    
C18   H16   S    
Cu1   O6    S    
C23   C25   D    
C20   O8    A    
C5    C6    S    
Cu1   O1    S    
C21   O9    A    
C13   H11   S    
C10   C11   A    
C7    N1    S    
C4    H23   S    
C15   C16   A    
C16   H14   S    
C3    H20   S    
C7    C13   A    
C24   C25   S    
C15   H13   S    
C18   C19   A    
C5    H2    S    
C17   H15   S    
C26   H18   S    
C14   C15   A    
C8    C9    A    
C11   H10   S    
C22   O2    S    
C14   N2    S    
C3    O10   S    
C12   O5    A    
C14   C19   A    
Cu2   O3    S    
C3    C4    S    
C4    H22   S    
C16   C17   A    
Cu1   Cu2   S    
C8    H7    S    
Cu2   O8    S    
