data_mof_unit_54490.cif
_audit_creation_date              2013-03-05T16:36:12-0500
_audit_creation_method            fapswitch 2.2
_symmetry_space_group_name_H-M    P1
_symmetry_Int_Tables_number       1
_space_group_crystal_system       triclinic
_cell_length_a                    27.865356
_cell_length_b                    9.123529
_cell_length_c                    7.790287
_cell_angle_alpha                 90.0
_cell_angle_beta                  89.999948
_cell_angle_gamma                 89.999975
_cell_volume                      1980.52765206

loop_
_atom_site_label
_atom_site_type_symbol
_atom_site_description
_atom_site_fract_x
_atom_site_fract_y
_atom_site_fract_z
_atom_type_partial_charge
O1    O     O_R   0.500000 0.288390 0.642760 -0.578386
O2    O     O_R   0.500000 0.711610 0.357240 -0.578386
O3    O     O_R   0.500000 0.711610 0.642760 -0.578385
O4    O     O_R   0.500000 0.288390 0.357240 -0.578385
C1    C     C_R   0.500000 0.219993 0.500000 0.832117
C2    C     C_R   0.500000 0.780007 0.500000 0.832118
O5    O     O_R   0.430260 0.500000 0.642770 -0.534536
O6    O     O_R   0.569740 0.500000 0.357230 -0.534535
O7    O     O_R   0.569740 0.500000 0.642770 -0.534534
O8    O     O_R   0.430260 0.500000 0.357230 -0.534536
C3    C     C_R   0.407215 0.500000 0.500000 0.929855
C4    C     C_R   0.592785 0.500000 0.500000 0.929851
Cu1   Cu    Cu3+1 0.500000 0.500000 0.669080 1.129262
Cu2   Cu    Cu3+1 0.500000 0.500000 0.330920 1.129262
C5    C     C_R   0.177160 0.369318 0.499559 0.684754
C6    C     C_R   0.822840 0.630669 0.499554 0.684753
C7    C     C_R   0.177160 0.630670 0.500452 0.684753
C8    C     C_R   0.822840 0.369318 0.500444 0.684755
O9    O     O_2   0.201578 0.241769 0.508339 -0.463943
O10   O     O_2   0.798422 0.758219 0.508336 -0.463944
O11   O     O_2   0.201577 0.758220 0.491671 -0.463944
O12   O     O_2   0.798422 0.241768 0.491660 -0.463944
N1    N     N_R   0.201434 0.499995 0.500005 -0.423408
N2    N     N_R   0.798566 0.499993 0.499998 -0.423409
C9    C     C_R   0.278681 0.556431 0.641675 0.242645
C10   C     C_R   0.721319 0.443561 0.641671 0.242641
C11   C     C_R   0.278681 0.443560 0.358332 0.242642
C12   C     C_R   0.721319 0.556428 0.358325 0.242644
C13   C     C_R   0.328818 0.555559 0.641596 0.525351
C14   C     C_R   0.671182 0.444440 0.641596 0.525351
C15   C     C_R   0.328818 0.444436 0.358407 0.525350
C16   C     C_R   0.671182 0.555554 0.358402 0.525352
C17   C     C_R   0.253154 0.499995 0.500004 -0.005541
C18   C     C_R   0.746846 0.499994 0.499998 -0.005541
C19   C     C_R   0.101427 0.499994 0.500006 -0.066900
C20   C     C_R   0.898572 0.499993 0.500001 -0.066900
C21   C     C_R   0.126897 0.367317 0.489456 -0.115971
C22   C     C_R   0.873103 0.632670 0.489452 -0.115971
C23   C     C_R   0.126897 0.632671 0.510556 -0.115972
C24   C     C_R   0.873103 0.367316 0.510549 -0.115971
C25   C     C_R   0.101825 0.236739 0.462422 -0.203862
C26   C     C_R   0.898175 0.763248 0.462419 -0.203862
C27   C     C_R   0.101824 0.763248 0.537590 -0.203861
C28   C     C_R   0.898175 0.236738 0.537583 -0.203862
C29   C     C_R   0.354284 0.499999 0.500001 -0.414016
C30   C     C_R   0.645716 0.499998 0.499999 -0.414020
H1    H     H_    0.120824 0.135078 0.439024 0.213630
H2    H     H_    0.879176 0.864909 0.439021 0.213629
H3    H     H_    0.120824 0.864909 0.560989 0.213630
H4    H     H_    0.879176 0.135078 0.560979 0.213629
C31   C     C_R   0.974653 0.365215 0.509865 -0.050448
C32   C     C_R   0.025347 0.634771 0.509867 -0.050448
C33   C     C_R   0.974653 0.634771 0.490142 -0.050449
C34   C     C_R   0.025347 0.365215 0.490143 -0.050448
C35   C     C_R   0.949461 0.499993 0.500003 -0.063268
C36   C     C_R   0.050539 0.499993 0.500005 -0.063268
C37   C     C_R   0.948059 0.236570 0.545774 0.726228
C38   C     C_R   0.051940 0.763416 0.545779 0.726228
C39   C     C_R   0.948060 0.763416 0.454231 0.726228
C40   C     C_R   0.051941 0.236570 0.454233 0.726226
C41   C     C_1   0.500000 0.065315 0.500000 -0.105285
C42   C     C_1   0.500000 0.934685 0.500000 -0.105286
N3    N     N_1   0.500000 0.500000 0.076820 0.005131
N4    N     N_1   0.500000 0.500000 0.923180 0.005131
F1    F     F_    0.352579 0.387966 0.221207 -0.563528
F2    F     F_    0.647421 0.612020 0.221200 -0.563526
F3    F     F_    0.352579 0.612030 0.778795 -0.563530
F4    F     F_    0.647421 0.387976 0.778799 -0.563526
Br1   Br    Br    0.246234 0.364240 0.161501 -0.255422
Br2   Br    Br    0.753766 0.635747 0.161494 -0.255422
Br3   Br    Br    0.246234 0.635749 0.838507 -0.255423
Br4   Br    Br    0.753765 0.364239 0.838501 -0.255422
F5    F     F_    0.969315 0.114677 0.609292 -0.535480
F6    F     F_    0.030684 0.885309 0.609297 -0.535481
F7    F     F_    0.969315 0.885310 0.390714 -0.535481
F8    F     F_    0.030685 0.114677 0.390715 -0.535481

loop_
_geom_bond_atom_site_label_1
_geom_bond_atom_site_label_2
_geom_bond_distance
_ccdc_geom_bond_type
O5    Cu1   1.954109 S    
C10   Br4   1.921565 S    
O3    C2    1.275247 A    
C33   C39   1.415966 A    
C34   C40   1.415966 A    
C11   C17   1.410386 A    
O5    C3    1.284286 A    
C7    N1    1.370741 A    
O1    C1    1.275247 A    
C19   C21   1.405611 A    
C22   C26   1.397048 A    
C7    C23   1.402906 A    
C37   F5    1.353672 S    
O7    Cu1   1.954106 S    
C5    C21   1.402908 A    
C8    C24   1.402909 A    
C27   C38   1.391507 A    
C5    O9    1.349755 S    
C10   C18   1.410385 A    
N1    C17   1.441193 S    
C31   C37   1.415968 A    
O3    Cu1   1.941488 S    
C6    O10   1.349758 S    
C5    N1    1.370741 A    
C12   C18   1.410385 A    
C6    N2    1.370741 A    
C13   F3    1.358753 S    
Cu1   Cu2   2.634364 S    
O4    Cu2   1.941488 S    
O2    C2    1.275248 A    
C33   C35   1.417995 A    
C9    C13   1.397103 A    
C34   C36   1.417996 A    
C11   C15   1.397103 A    
C12   C16   1.397103 A    
C4    C30   1.474944 S    
O8    Cu2   1.954109 S    
C27   H3    1.083407 S    
C23   C27   1.397049 A    
C40   F8    1.353671 S    
C7    O11   1.349754 S    
C13   C29   1.406157 A    
C19   C23   1.405612 A    
C20   C24   1.405610 A    
C28   C37   1.391506 A    
O6    C4    1.284286 A    
C25   H1    1.083406 S    
C1    C41   1.411217 S    
C26   H2    1.083408 S    
C32   C38   1.415966 A    
C9    Br3   1.921562 S    
C10   C14   1.397103 A    
C8    N2    1.370741 A    
C3    C29   1.474941 S    
O1    Cu1   1.941488 S    
C39   F7    1.353671 S    
C32   C33   1.420948 A    
C38   F6    1.353670 S    
C16   F2    1.358757 S    
C28   H4    1.083407 S    
C15   F1    1.358763 S    
O6    Cu2   1.954106 S    
C19   C36   1.418026 A    
C8    O12   1.349755 S    
C16   C30   1.406156 A    
C14   C30   1.406153 A    
C12   Br2   1.921565 S    
C25   C40   1.391508 A    
O4    C1    1.275248 A    
C11   Br1   1.921563 S    
C26   C39   1.391507 A    
C31   C34   1.420948 A    
C2    C42   1.411217 S    
C20   C22   1.405611 A    
C20   C35   1.418029 A    
Cu1   N4    1.979511 S    
Cu2   N3    1.979511 S    
C31   C35   1.417996 A    
C21   C25   1.397048 A    
C41   C42   1.191800 T    
O2    Cu2   1.941488 S    
O7    C4    1.284286 A    
N2    C18   1.441191 S    
O8    C3    1.284287 A    
N3    N4    1.196900 T    
C24   C28   1.397049 A    
C15   C29   1.406155 A    
C9    C17   1.410381 A    
C14   F4    1.358760 S    
C32   C36   1.417997 A    
C6    C22   1.402908 A    
