data_mof_unit_30811.cif
_audit_creation_date              2012-12-11T17:25:10-0500
_audit_creation_method            fapswitch 2.2
_symmetry_space_group_name_H-M    P1
_symmetry_Int_Tables_number       1
_space_group_crystal_system       triclinic
_cell_length_a                    6.954204
_cell_length_b                    20.538708
_cell_length_c                    24.530275
_cell_angle_alpha                 89.98627
_cell_angle_beta                  90.54595
_cell_angle_gamma                 89.575055
_cell_volume                      3503.41255631

loop_
_atom_site_label
_atom_site_type_symbol
_atom_type_description
_atom_site_fract_x
_atom_site_fract_y
_atom_site_fract_z
_atom_type_partial_charge
O1    O     O_R   0.507280 0.423750 0.460310 -0.537166
O2    O     O_R   0.171030 0.555650 0.437630 -0.537028
O3    O     O_R   0.004080 0.576250 0.539690 -0.537922
C1    C     C_R   0.339072 0.575671 0.421779 0.721251
O4    O     O_R   0.177330 0.422980 0.453960 -0.538112
O5    O     O_R   0.010420 0.442640 0.556140 -0.535197
C2    C     C_R   0.346039 0.399234 0.443068 0.696345
O6    O     O_R   0.500930 0.557360 0.443860 -0.536801
O7    O     O_3   0.340310 0.506600 0.533500 -0.363378
V1    V     V_3+5 0.064140 0.498780 0.493780 1.443282
O8    O     O_R   0.680890 0.444350 0.562370 -0.530253
C3    C     C_R   0.850584 0.424406 0.578130 0.719128
O9    O     O_R   0.674590 0.577020 0.546040 -0.537671
C4    C     C_R   0.842918 0.600941 0.556498 0.695906
V2    V     V_3+5 0.564550 0.501220 0.506220 1.454267
O10   O     O_3   0.838250 0.493400 0.466500 -0.368585
C5    C     C_R   0.969554 0.840207 0.908892 -0.067490
C6    C     C_R   0.847989 0.661687 0.588212 -0.041751
C7    C     C_R   0.958930 0.722618 0.906273 -0.138452
C8    C     C_R   0.958330 0.780393 0.935651 -0.210800
C9    C     C_R   0.974683 0.842219 0.850888 -0.057759
C10   C     C_R   0.944035 0.783325 0.820421 0.003497
C11   C     C_R   0.953523 0.723456 0.849215 0.131110
C12   C     C_R   0.902312 0.780966 0.762857 0.045636
C13   C     C_R   0.912856 0.720307 0.733994 0.066319
C14   C     C_R   0.944988 0.662953 0.764461 -0.174116
C15   C     C_R   0.957107 0.664491 0.820984 -0.172741
C16   C     C_R   0.830895 0.835892 0.734504 -0.207198
C17   C     C_R   0.794096 0.834138 0.678867 -0.198842
C18   C     C_R   0.819462 0.776839 0.649327 0.141652
C19   C     C_R   0.878736 0.718697 0.676170 0.084167
C20   C     C_R   0.777152 0.776840 0.593293 -0.161964
C21   C     C_R   0.789078 0.719604 0.563211 -0.169488
C22   C     C_R   0.895554 0.661225 0.644040 -0.211964
H1    H     H_    0.970262 0.618799 0.842905 0.138437
H2    H     H_    0.941888 0.615301 0.661108 0.104123
H3    H     H_    0.750356 0.720315 0.520319 0.106462
H4    H     H_    0.740548 0.877884 0.658964 0.127548
H5    H     H_    0.960384 0.676900 0.928368 0.132438
H6    H     H_    0.957390 0.778343 0.979800 0.118055
H7    H     H_    0.949577 0.615352 0.746110 0.134324
H8    H     H_    0.791286 0.880235 0.755228 0.148591
H9    H     H_    0.730177 0.821076 0.572887 0.114088
H10   H     H_    0.644621 0.237920 0.816496 0.154187
C23   C     C_R   0.741520 0.287897 0.744537 0.398419
C24   C     C_R   0.891153 0.295156 0.706656 0.036328
C25   C     C_R   0.058498 0.257026 0.712872 -0.162493
H11   H     H_    0.175072 0.261713 0.684186 0.167126
C26   C     C_R   0.077249 0.212545 0.756141 -0.114652
H12   H     H_    0.207979 0.183855 0.760157 0.139513
C27   C     C_R   0.928442 0.205212 0.793826 0.059375
C28   C     C_R   0.760717 0.243091 0.787694 -0.190966
C29   C     C_1   0.875262 0.341141 0.661466 0.058139
C30   C     C_1   0.947319 0.159104 0.838735 -0.015526
C31   C     C_1   0.960951 0.120897 0.876481 -0.150316
C32   C     C_1   0.862987 0.379285 0.623641 -0.151194
H13   H     H_    0.699053 0.702032 0.296129 0.114742
C33   C     C_R   0.596792 0.767226 0.233214 -0.146416
H14   H     H_    0.740677 0.779929 0.220685 0.111664
C34   C     C_R   0.436150 0.794982 0.206640 0.134545
C35   C     C_R   0.251353 0.777403 0.223858 -0.148129
H15   H     H_    0.125275 0.798102 0.203976 0.112960
C36   C     C_R   0.227539 0.732909 0.266891 -0.143846
H16   H     H_    0.083655 0.720206 0.279419 0.112829
C37   C     C_R   0.388178 0.705158 0.293468 0.135926
C38   C     C_R   0.572976 0.722732 0.276247 -0.142024
C39   C     C_1   0.459898 0.840992 0.161735 -0.053538
C40   C     C_1   0.364410 0.659155 0.338376 -0.045993
C41   C     C_1   0.349017 0.620953 0.376125 -0.181485
C42   C     C_1   0.475259 0.879191 0.123981 -0.188049
C43   C     C_R   0.473760 0.161686 0.089044 -0.041838
C44   C     C_R   0.351398 0.338777 0.410546 -0.047829
C45   C     C_R   0.541255 0.276702 0.094351 -0.085395
C46   C     C_R   0.530127 0.219426 0.064333 -0.183877
C47   C     C_R   0.428825 0.161519 0.144806 -0.183891
C48   C     C_R   0.442310 0.219296 0.177027 0.036973
C49   C     C_R   0.499644 0.277593 0.150482 0.039122
C50   C     C_R   0.403591 0.220956 0.234551 0.058463
C51   C     C_R   0.422853 0.280684 0.264510 -0.010152
C52   C     C_R   0.479432 0.336800 0.235999 -0.214573
C53   C     C_R   0.516699 0.335684 0.180415 0.373970
C54   C     C_R   0.346680 0.164786 0.263204 -0.163755
C55   C     C_R   0.309765 0.166521 0.318682 -0.202793
C56   C     C_R   0.326840 0.224129 0.348268 0.141406
C57   C     C_R   0.384128 0.282368 0.322068 0.111409
C58   C     C_R   0.284226 0.223731 0.404085 -0.164530
C59   C     C_R   0.294641 0.280605 0.434722 -0.167106
C60   C     C_R   0.397189 0.339751 0.354759 -0.206915
H17   H     H_    0.437232 0.386230 0.338214 0.103812
H18   H     H_    0.256822 0.279366 0.477460 0.109277
H19   H     H_    0.265873 0.122015 0.338671 0.121592
H20   H     H_    0.585708 0.320102 0.073077 0.185165
H21   H     H_    0.567248 0.220057 0.021528 0.115495
H22   H     H_    0.389009 0.115236 0.161745 0.090245
H23   H     H_    0.496915 0.383103 0.255859 0.165654
H24   H     H_    0.328310 0.118151 0.243971 0.119084
H25   H     H_    0.239691 0.179283 0.424006 0.114954
O11   O     O_R   0.323320 0.942780 0.056240 -0.539324
O12   O     O_R   0.647300 0.077050 0.046060 -0.541329
O13   O     O_R   0.813840 0.057330 0.943840 -0.535275
C61   C     C_R   0.478697 0.100860 0.056993 0.685145
O14   O     O_R   0.653250 0.944380 0.062400 -0.540818
O15   O     O_R   0.819830 0.923720 0.960300 -0.535959
C62   C     C_R   0.485189 0.924440 0.078304 0.714994
O16   O     O_R   0.317330 0.076390 0.039790 -0.540152
O17   O     O_3   0.483830 0.993470 0.966560 -0.361419
V3    V     V_3+5 0.760140 0.001210 0.006210 1.447556
O18   O     O_R   0.149290 0.922840 0.953850 -0.534790
C63   C     C_R   0.980459 0.899252 0.943076 0.785411
O19   O     O_R   0.143340 0.055500 0.937510 -0.530558
C64   C     C_R   0.973679 0.075750 0.921972 0.792625
V4    V     V_3+5 0.259690 0.998600 0.993650 1.465413
O20   O     O_3   0.986130 0.006520 0.033440 -0.378514
Cl1   Cl    Cl    0.528417 0.334323 0.739109 -0.669226
Cl2   Cl    Cl    0.586911 0.409721 0.150110 -0.621568
C65   C     C_2   0.042685 0.902218 0.823245 0.300350
H26   H     H_    0.126029 0.898077 0.786204 0.075104
O21   O     O_2   0.003754 0.956423 0.840448 -0.544706

loop_
_geom_bond_atom_site_label_1
_geom_bond_atom_site_label_2
_ccdc_geom_bond_type
C13   C19   A    
C43   C47   A    
C36   C37   A    
C45   C46   A    
C4    C6    S    
O2    C1    A    
C7    C8    A    
H13   C38   S    
C1    O6    A    
C25   C26   A    
O17   V4    S    
C23   C24   A    
O18   C63   A    
C14   C15   A    
C16   C17   A    
C56   C58   A    
O5    C3    A    
C18   C19   A    
C8    H6    S    
C42   C62   S    
C29   C32   T    
O17   V3    S    
C33   C34   A    
V2    O10   S    
C5    C8    A    
C65   H26   S    
C35   C36   A    
C58   H25   S    
O19   C64   A    
C1    C41   S    
C30   C31   T    
O8    V2    S    
C23   Cl1   S    
C33   C38   A    
V3    O20   S    
C25   H11   S    
C34   C39   S    
C40   C41   T    
C26   C27   A    
C17   H4    S    
O1    V2    S    
C11   C15   A    
O7    V1    S    
H10   C28   S    
C43   C61   S    
O1    C2    A    
O9    C4    A    
C46   H21   S    
C9    C65   S    
V4    O20   S    
C44   C60   A    
C61   O16   A    
O11   V4    S    
C27   C28   A    
C56   C57   A    
C54   H24   S    
C12   C13   A    
C2    C44   S    
O4    C2    A    
C50   C51   A    
C23   C28   A    
C15   H1    S    
C13   C14   A    
C54   C55   A    
C21   H3    S    
O18   V4    S    
C34   C35   A    
C7    C11   A    
C47   C48   A    
C17   C18   A    
C50   C54   A    
C55   C56   A    
C49   C53   A    
C37   C40   S    
C53   Cl2   S    
C19   C22   A    
O14   V3    S    
C48   C49   A    
C52   H23   S    
O14   C62   A    
C6    C22   A    
C3    C32   S    
O3    C4    A    
C7    H5    S    
O12   C61   A    
O16   V4    S    
C37   C38   A    
O6    V2    S    
O9    V2    S    
C10   C12   A    
C51   C52   A    
O2    V1    S    
C51   C57   A    
C44   C59   A    
O12   V3    S    
C57   C60   A    
C24   C25   A    
O13   V3    S    
C31   C64   S    
C58   C59   A    
C12   C16   A    
C45   H20   S    
C48   C50   A    
C52   C53   A    
C5    C63   S    
O5    V1    S    
C43   C46   A    
O8    C3    A    
C55   H19   S    
O15   C63   A    
C39   C42   T    
C20   C21   A    
C27   C30   S    
C33   H14   S    
O4    V1    S    
O3    V1    S    
V1    O10   S    
C18   C20   A    
O11   C62   A    
C24   C29   S    
C16   H8    S    
C20   H9    S    
C65   O21   D    
C22   H2    S    
O7    V2    S    
C35   H15   S    
C6    C21   A    
O19   V4    S    
C36   H16   S    
C60   H17   S    
C14   H7    S    
O13   C64   A    
C26   H12   S    
C59   H18   S    
C45   C49   A    
C10   C11   A    
O15   V3    S    
C9    C10   A    
C47   H22   S    
C5    C9    A    
