data_mof_unit_45457.cif
_audit_creation_date              2012-12-10T17:51:32-0500
_audit_creation_method            fapswitch 2.2
_symmetry_space_group_name_H-M    P1
_symmetry_Int_Tables_number       1
_space_group_crystal_system       triclinic
_cell_length_a                    9.951686
_cell_length_b                    10.707186
_cell_length_c                    16.662431
_cell_angle_alpha                 94.437682
_cell_angle_beta                  84.65075
_cell_angle_gamma                 88.282618
_cell_volume                      1761.18929431

loop_
_atom_site_label
_atom_site_type_symbol
_atom_type_description
_atom_site_fract_x
_atom_site_fract_y
_atom_site_fract_z
_atom_type_partial_charge
C1    C     C_R   0.497626 0.740167 0.496484 0.875453
C2    C     C_R   0.534640 0.480386 0.258375 -0.055579
C3    C     C_R   0.236412 0.900281 0.506124 -0.121478
C4    C     C_R   0.481257 0.488889 0.652222 0.916566
C5    C     C_R   0.121122 0.969210 0.540398 -0.175225
C6    C     C_R   0.133667 0.085788 0.581215 -0.193649
C7    C     C_R   0.259977 0.138460 0.580543 -0.179048
C8    C     C_R   0.375771 0.073262 0.539923 0.098707
C9    C     C_R   0.367367 0.946854 0.513443 0.089429
C10   C     C_R   0.491008 0.874825 0.495931 -0.139809
C11   C     C_R   0.615037 0.933370 0.490551 -0.211949
C12   C     C_R   0.354291 0.441988 0.783589 0.538647
C13   C     C_R   0.618705 0.060915 0.501167 -0.225266
C14   C     C_R   0.499192 0.131424 0.521892 -0.113791
C15   C     C_R   0.830040 0.646239 0.617479 -0.224348
C16   C     C_R   0.500022 0.262181 0.508572 0.833164
C17   C     C_R   0.876699 0.705298 0.685902 0.456346
C18   C     C_R   0.013648 0.707869 0.689706 -0.353104
C19   C     C_R   0.106437 0.653990 0.625632 0.587834
C20   C     C_R   0.058387 0.572086 0.561689 -0.098676
C21   C     C_R   0.914261 0.570360 0.560051 -0.094369
C22   C     C_R   0.939848 0.437408 0.439728 0.465918
C23   C     C_R   0.433430 0.448660 0.132669 -0.235939
C24   C     C_R   0.083470 0.436910 0.439865 0.440653
C25   C     C_R   0.519646 0.497421 0.346443 0.840635
C26   C     C_R   0.473694 0.435859 0.730895 -0.230004
C27   C     C_R   0.585949 0.363423 0.748518 -0.457307
C28   C     C_R   0.588681 0.312760 0.823512 0.673270
C29   C     C_R   0.476305 0.336862 0.880399 0.042132
C30   C     C_R   0.358639 0.395990 0.859812 -0.399668
C31   C     C_3   0.862383 0.259475 0.376329 -0.247246
C32   C     C_3   0.674812 0.716209 0.767997 -0.298352
C33   C     C_3   0.278100 0.776109 0.680818 -0.286040
C34   C     C_R   0.419838 0.476999 0.215673 -0.147479
C35   C     C_3   0.190900 0.257008 0.378084 -0.213869
C36   C     C_3   0.663880 0.583226 0.965362 -0.366061
C37   C     C_3   0.127807 0.423950 0.770789 -0.332663
C38   C     C_3   0.822247 0.270487 0.808000 -0.260388
C39   C     C_R   0.663437 0.457778 0.216712 -0.202557
C40   C     C_R   0.676858 0.428786 0.133669 -0.148193
C41   C     C_R   0.561908 0.422310 0.091567 0.049747
C42   C     C_2   0.489041 0.327267 0.966236 -0.242369
C43   C     C_2   0.577481 0.398959 0.003227 0.525414
H1    H     H_    0.045043 0.137602 0.610490 0.135120
H2    H     H_    0.776710 0.411047 0.102246 0.166364
H3    H     H_    0.710255 0.880878 0.476526 0.172344
H4    H     H_    0.219169 0.813305 0.472318 0.170978
H5    H     H_    0.022209 0.931031 0.536393 0.142152
H6    H     H_    0.266379 0.230524 0.611375 0.159420
H7    H     H_    0.893712 0.219373 0.431902 0.100783
H8    H     H_    0.917234 0.206562 0.322794 0.157945
H9    H     H_    0.753874 0.243070 0.371813 0.194698
H10   H     H_    0.694954 0.615090 0.775515 0.168695
H11   H     H_    0.598258 0.728278 0.724604 0.151827
H12   H     H_    0.714968 0.104062 0.490968 0.155289
H13   H     H_    0.630797 0.760586 0.827338 0.185772
H14   H     H_    0.271121 0.737164 0.740835 0.188794
H15   H     H_    0.219332 0.866293 0.682335 0.166748
H16   H     H_    0.385567 0.796974 0.666014 0.162366
H17   H     H_    0.301522 0.238066 0.367481 0.189606
H18   H     H_    0.154181 0.220912 0.436875 0.134597
H19   H     H_    0.146180 0.202341 0.328753 0.148168
H20   H     H_    0.673095 0.623431 0.028051 0.181639
H21   H     H_    0.564893 0.612216 0.945132 0.161093
H22   H     H_    0.744529 0.623072 0.925650 0.204840
H23   H     H_    0.727898 0.666137 0.609227 0.231815
H24   H     H_    0.273413 0.413882 0.905086 0.169818
H25   H     H_    0.083509 0.428645 0.834674 0.171618
H26   H     H_    0.154407 0.324958 0.747704 0.145463
H27   H     H_    0.048518 0.457835 0.734421 0.177800
H28   H     H_    0.832954 0.373893 0.809888 0.165063
H29   H     H_    0.840013 0.226808 0.745067 0.143111
H30   H     H_    0.902103 0.232326 0.842466 0.190306
H31   H     H_    0.319547 0.495276 0.246292 0.194083
H32   H     H_    0.045315 0.760756 0.742054 0.182162
H33   H     H_    0.753707 0.460316 0.248212 0.209057
H34   H     H_    0.343746 0.449254 0.100520 0.132894
H35   H     H_    0.407679 0.284834 0.001450 0.107112
H36   H     H_    0.670970 0.346164 0.703248 0.190683
N1    N     N_R   0.857140 0.501200 0.500750 -0.151323
N2    N     N_R   0.142740 0.501280 0.500770 -0.159534
O1    O     O_R   0.385310 0.683220 0.500000 -0.567028
O2    O     O_3   0.793764 0.778038 0.744499 -0.585829
O3    O     O_3   0.239746 0.687853 0.620171 -0.535653
O4    O     O_3   0.163538 0.386085 0.372349 -0.583152
O5    O     O_3   0.682741 0.451659 0.958257 -0.594954
O6    O     O_3   0.238991 0.502556 0.762739 -0.598644
O7    O     O_3   0.695492 0.237978 0.844206 -0.577173
O8    O     O_R   0.614640 0.683250 0.500010 -0.643042
O9    O     O_R   0.371780 0.500010 0.615800 -0.513931
O10   O     O_R   0.601110 0.500030 0.615800 -0.657597
O11   O     O_R   0.385360 0.316750 0.499990 -0.629962
O12   O     O_R   0.614690 0.316780 0.500000 -0.622103
O13   O     O_R   0.398890 0.499970 0.384200 -0.573982
O14   O     O_R   0.628220 0.499990 0.384200 -0.569063
O15   O     O_3   0.884341 0.388492 0.371707 -0.585764
Zn1   Zn    Zn3+2 0.346870 0.499980 0.499990 1.007514
Zn2   Zn    Zn3+2 0.653130 0.500020 0.500010 0.951508

loop_
_geom_bond_atom_site_label_1
_geom_bond_atom_site_label_2
_ccdc_geom_bond_type
C18   H32   S    
C1    O8    A    
C37   H26   S    
C29   C42   S    
C11   C13   A    
C19   C20   A    
C31   H9    S    
O14   Zn2   S    
C7    C8    A    
C26   C27   A    
C33   H15   S    
C28   C29   A    
C27   H36   S    
C5    C6    A    
C31   O15   S    
C37   H25   S    
C18   C19   A    
C2    C39   A    
C8    C9    A    
C28   O7    S    
C33   H14   S    
C35   H19   S    
C36   H20   S    
C24   O4    S    
O9    Zn1   S    
C30   H24   S    
C4    O10   A    
C12   C30   A    
C2    C34   A    
C25   O13   A    
C33   H16   S    
C6    H1    S    
C20   N2    A    
C41   C43   S    
C32   H11   S    
O11   Zn1   S    
C4    O9    A    
C40   H2    S    
C5    H5    S    
C38   H29   S    
C7    H6    S    
C39   C40   A    
C36   H22   S    
O13   Zn1   S    
C36   O5    S    
C1    O1    A    
C15   H23   S    
C38   O7    S    
C35   H17   S    
C17   O2    S    
C24   N2    A    
C29   C30   A    
C3    C9    A    
C23   C34   A    
C17   C18   A    
C16   O12   A    
C35   H18   S    
C39   H33   S    
C23   H34   S    
C34   H31   S    
C40   C41   A    
C25   O14   A    
O1    Zn1   S    
C14   C16   S    
C42   C43   D    
C31   H7    S    
C19   O3    S    
C32   H10   S    
C42   H35   S    
C9    C10   A    
C15   C17   A    
C32   O2    S    
C38   H28   S    
C8    C14   A    
C12   O6    S    
N1    Zn2   S    
C43   O5    S    
C22   O15   S    
C37   O6    S    
C1    C10   S    
C31   H8    S    
C3    C5    A    
C4    C26   S    
C16   O11   A    
C6    C7    A    
C23   C41   A    
O8    Zn2   S    
C37   H27   S    
C22   N1    A    
C36   H21   S    
C35   O4    S    
N2    Zn1   S    
C21   N1    A    
C3    H4    S    
C2    C25   S    
C22   C24   A    
O10   Zn2   S    
C33   O3    S    
C10   C11   A    
C15   C21   A    
C20   C21   A    
C12   C26   A    
C27   C28   A    
C11   H3    S    
C13   C14   A    
O12   Zn2   S    
C32   H13   S    
C13   H12   S    
C38   H30   S    
