data_mof_unit_59215.cif
_audit_creation_date              2013-03-05T15:59:34-0500
_audit_creation_method            fapswitch 2.2
_symmetry_space_group_name_H-M    P1
_symmetry_Int_Tables_number       1
_space_group_crystal_system       triclinic
_cell_length_a                    8.228163
_cell_length_b                    12.837177
_cell_length_c                    17.187282
_cell_angle_alpha                 98.333651
_cell_angle_beta                  96.488754
_cell_angle_gamma                 99.280916
_cell_volume                      1755.37159306

loop_
_atom_site_label
_atom_site_type_symbol
_atom_site_description
_atom_site_fract_x
_atom_site_fract_y
_atom_site_fract_z
_atom_type_partial_charge
P1    P     P_3+3 0.996360 0.395990 0.320310 0.529799
O1    O     O_2   0.825360 0.427200 0.308020 -0.323532
O2    O     O_3   0.099050 0.435020 0.406000 -0.362880
O3    O     O_3   0.623690 0.628090 0.355970 -0.338621
O4    O     O_2   0.756091 0.563570 0.228392 -0.391557
O5    O     O_3   0.948463 0.256032 0.303800 -0.560543
O6    O     O_3   0.605862 0.718970 0.213351 -0.503174
H1    H     H_    0.687776 0.822099 0.319668 0.093955
C1    C     C_3   0.564582 0.899367 0.233111 0.003701
H2    H     H_    0.514442 0.957570 0.273733 0.090923
H3    H     H_    0.689063 0.936847 0.221708 0.156498
P2    P     P_3+3 0.688190 0.753610 0.561600 0.521640
P3    P     P_3+3 0.106391 0.824129 0.396566 0.467212
O7    O     O_2   0.857620 0.767930 0.537920 -0.389066
O8    O     O_3   0.055170 0.686660 0.395490 -0.366142
O9    O     O_2   0.999209 0.878736 0.452150 -0.364013
O10   O     O_3   0.700266 0.783499 0.665310 -0.565887
O11   O     O_3   0.034024 0.853413 0.303905 -0.544794
C2    C     C_3   0.079565 0.781559 0.244253 0.332612
H4    H     H_    0.029331 0.697325 0.248489 0.139456
H5    H     H_    0.216168 0.792980 0.248394 0.086687
C3    C     C_3   0.010784 0.803400 0.163458 -0.771065
H6    H     H_    0.872981 0.788077 0.155635 0.276477
H7    H     H_    0.055764 0.887881 0.157897 0.271979
C4    C     C_3   0.345951 0.781750 0.763899 0.259495
H8    H     H_    0.272637 0.765958 0.812781 0.070084
H9    H     H_    0.456813 0.742993 0.769978 0.177774
C5    C     C_3   0.411467 0.902019 0.775578 -0.698901
H10   H     H_    0.527935 0.919416 0.818545 0.193977
H11   H     H_    0.323334 0.947668 0.802891 0.154301
Ba1   Ba    Ba6+2 0.843240 0.548600 0.461650 1.662445
C6    C     C_3   0.932737 0.220113 0.376125 0.420318
H12   H     H_    0.835036 0.254398 0.404375 0.091647
H13   H     H_    0.050489 0.243661 0.417219 0.133106
C7    C     C_3   0.888012 0.098729 0.360631 -0.994232
H14   H     H_    0.754883 0.074480 0.336376 0.247835
H15   H     H_    0.910958 0.066459 0.416284 0.251968
H16   H     H_    0.964210 0.064093 0.317886 0.284233
C8    C     C_3   0.848941 0.769667 0.706937 0.902204
H17   H     H_    0.906592 0.707541 0.674370 0.031253
C9    C     C_3   0.966733 0.876787 0.728240 -0.913947
H18   H     H_    0.033450 0.892170 0.677758 0.272271
H19   H     H_    0.057796 0.875905 0.780383 0.235544
H20   H     H_    0.897669 0.942632 0.743738 0.259362
P4    P     P_3+3 0.193350 0.604100 0.679700 0.514743
O12   O     O_2   0.364350 0.572830 0.692030 -0.339912
O13   O     O_3   0.090660 0.565070 0.594010 -0.365679
O14   O     O_3   0.566030 0.372000 0.644040 -0.365077
O15   O     O_3   0.247150 0.743474 0.689351 -0.533658
P5    P     P_3+3 0.087413 0.174807 0.604599 0.476587
O16   O     O_3   0.601410 0.366560 0.460070 -0.302034
O17   O     O_3   0.134540 0.313430 0.604520 -0.371303
O18   O     O_2   0.188151 0.121207 0.545199 -0.362725
O19   O     O_3   0.176192 0.147485 0.695088 -0.495452
Ba2   Ba    Ba6+2 0.346590 0.451490 0.538360 1.644199
P6    P     P_3+3 0.596302 0.600076 0.251991 0.526790
C10   C     C_3   0.580134 0.800834 0.271377 0.330653
H21   H     H_    0.465653 0.776236 0.297499 -0.014011
O20   O     O_3   0.588300 0.633530 0.539940 -0.328992
C11   C     C_3   0.341454 0.196727 0.291180 0.445648
H22   H     H_    0.248902 0.221895 0.327889 0.125149
H23   H     H_    0.368813 0.256766 0.251907 0.100949
C12   C     C_3   0.263748 0.091578 0.237810 -0.992431
H24   H     H_    0.242908 0.026747 0.273670 0.265231
H25   H     H_    0.142667 0.099149 0.205432 0.252154
H26   H     H_    0.347064 0.071097 0.193769 0.308157
P7    P     P_3+3 0.509410 0.229926 0.437269 0.480314
O21   O     O_2   0.332090 0.232110 0.462130 -0.380589
O22   O     O_3   0.492706 0.186070 0.333938 -0.569547
H27   H     H_    0.052784 0.750472 0.115830 0.231582
C13   C     C_3   0.091558 0.189549 0.755029 0.230568
H28   H     H_    0.099074 0.277392 0.757224 0.111538
H29   H     H_    0.960463 0.147654 0.744124 0.027781
C14   C     C_3   0.170392 0.169431 0.834845 0.023883
H30   H     H_    0.306125 0.198958 0.843542 0.194331
H31   H     H_    0.147343 0.082448 0.837151 0.126356
P8    P     P_3+3 0.596387 0.396174 0.747755 0.538766
C15   C     C_3   0.680668 0.218962 0.776377 0.323705
H32   H     H_    0.803928 0.272113 0.790551 0.043070
O23   O     O_2   0.460163 0.455477 0.776817 -0.318241
O24   O     O_3   0.547153 0.273934 0.780213 -0.508614
H33   H     H_    0.669865 0.172773 0.715690 0.118806
H34   H     H_    0.717250 0.189057 0.897825 0.300539
C16   C     C_3   0.673160 0.144042 0.837320 -0.780704
H35   H     H_    0.752456 0.083107 0.824950 0.239533
H36   H     H_    0.543170 0.104811 0.836723 0.222053
C17   C     C_2   0.292836 0.474459 0.266996 0.069435
C18   C     C_3   0.408637 0.496818 0.206401 0.170185
C19   C     C_2   0.323512 0.528578 0.134002 -0.261432
C20   C     C_2   0.156402 0.512795 0.118762 0.108708
C21   C     C_2   0.055130 0.468564 0.178250 -0.287338
C22   C     C_1   0.126814 0.452318 0.248037 0.163937
C23   C     C_R   0.872098 0.483339 0.869222 -0.155625
C24   C     C_R   0.806420 0.471382 0.788105 0.181116
C25   C     C_R   0.073564 0.550553 0.755679 0.219998
C26   C     C_R   0.143106 0.558026 0.835405 -0.229747
C27   C     C_R   0.045122 0.523779 0.892922 0.076517
C28   C     C_2   0.072379 0.535780 0.042985 -0.091653
C29   C     C_2   0.134200 0.519717 0.973164 -0.041984
C30   C     C_R   0.907308 0.503868 0.732722 -0.392272
H37   H     H_    0.255684 0.497066 0.973062 0.173845
H38   H     H_    0.922897 0.440225 0.160183 0.195657
H39   H     H_    0.952916 0.560548 0.044790 0.130689
H40   H     H_    0.400726 0.561202 0.092957 0.189908
H41   H     H_    0.274367 0.589970 0.852801 0.159528
H42   H     H_    0.854636 0.494313 0.670964 0.156580
C31   C     C_R   0.764129 0.183446 0.540215 -0.477161
C32   C     C_R   0.422341 0.807809 0.468455 -0.413401
C33   C     C_R   0.391536 0.983465 0.440927 -0.272020
C34   C     C_R   0.326662 0.875317 0.435602 0.198461
C35   C     C_R   0.581359 0.847937 0.510379 0.261612
C36   C     C_R   0.646901 0.960202 0.518937 -0.037516
C37   C     C_R   0.549809 0.028305 0.483552 -0.072274
C38   C     C_R   0.611223 0.140167 0.493875 0.276073
C39   C     C_R   0.865393 0.117411 0.570277 0.145977
C40   C     C_R   0.806042 0.007036 0.561188 -0.110449
H43   H     H_    0.312258 0.032411 0.415242 0.188088
H44   H     H_    0.887861 0.959009 0.585191 0.173866
H45   H     H_    0.811867 0.268315 0.546243 0.148650
H46   H     H_    0.369054 0.724179 0.464796 0.187084
C41   C     C_2   0.444828 0.941172 0.699945 1.232143
O25   O     O_2   0.587439 0.972057 0.689392 -0.704198
O26   O     O_R   0.312259 0.945734 0.643152 -0.758159
H47   H     H_    0.349928 0.980283 0.597562 0.333380
Cl1   Cl    Cl    0.800013 0.728603 0.797539 -0.706428
Cl2   Cl    Cl    0.430948 0.865747 0.140296 -0.615507
Cl3   Cl    Cl    0.087400 0.237701 0.914466 -0.640545
C42   C     C_2   0.760913 0.447289 0.926047 1.027880
O27   O     O_2   0.634839 0.484840 0.932904 -0.609102
O28   O     O_R   0.800426 0.371474 0.972229 -0.774446
H48   H     H_    0.715652 0.354640 0.009185 0.325213
Cl4   Cl    Cl    0.393630 0.444251 0.353420 -0.547789

loop_
_geom_bond_atom_site_label_1
_geom_bond_atom_site_label_2
_geom_bond_distance
_ccdc_geom_bond_type
O14   P8    1.746503 S    
O14   Ba2   2.826814 S    
O5    C6    1.399234 S    
C26   H41   1.082889 S    
C12   H25   1.110540 S    
C23   C24   1.414305 A    
C8    Cl1   1.782134 S    
Ba2   O20   2.808466 S    
C9    H18   1.102501 S    
C32   H46   1.082180 S    
O4    P6    1.541727 D    
C25   C26   1.407568 A    
O7    Ba1   2.906454 S    
C17   C18   1.515803 S    
C42   O27   1.222633 D    
Ba2   O21   2.906656 S    
C20   C21   1.506770 S    
C33   H43   1.078285 S    
O26   H47   1.008978 S    
C8    C9    1.519311 S    
P4    O12   1.524856 D    
C4    C5    1.527031 S    
P5    O19   1.749132 S    
C14   H31   1.109320 S    
P3    O11   1.750317 S    
C11   C12   1.517361 S    
C5    H10   1.112124 S    
C7    H15   1.105192 S    
P7    C38   1.851517 S    
C16   H36   1.104543 S    
O11   C2    1.402343 S    
P6    C18   1.876340 S    
C28   H39   1.083104 S    
P8    C24   1.842979 S    
P1    Ba1   3.381558 S    
C11   H23   1.108829 S    
P1    O1    1.524474 D    
O10   C8    1.396067 S    
Ba1   O20   2.889630 S    
P2    O20   1.595665 S    
O2    Ba2   2.835999 S    
O19   C13   1.400017 S    
C35   C36   1.435052 A    
C40   H44   1.071621 S    
O12   Ba2   2.840814 S    
P5    O17   1.759351 S    
C24   C30   1.396818 A    
C1    H2    1.108699 S    
C1    C10   1.524208 S    
C21   C22   1.335050 D    
O17   Ba2   2.741081 S    
C33   C37   1.408671 A    
C12   H26   1.108948 S    
Ba1   O13   2.835389 S    
C17   C22   1.341791 D    
O3    P6    1.752265 S    
C9    H19   1.103919 S    
O6    P6    1.744598 S    
C31   H45   1.082602 S    
C36   C37   1.428987 A    
C27   C29   1.498894 S    
P4    O13   1.581878 S    
P5    O18   1.540909 D    
C14   H30   1.105731 S    
P7    O21   1.569306 D    
C6    C7    1.518891 S    
C2    C3    1.521077 S    
C16   H35   1.109301 S    
C8    H17   1.107705 S    
C13   H29   1.107189 S    
C25   C30   1.389692 A    
C4    H8    1.111449 S    
P1    O5    1.749966 S    
C11   H22   1.100565 S    
P1    O2    1.581877 S    
C7    H14   1.104445 S    
C6    H13   1.103592 S    
C17   Cl4   1.742653 S    
P2    O10   1.756068 S    
C31   C38   1.394889 A    
P3    C34   1.838493 S    
H1    C10   1.112674 S    
C15   H33   1.109138 S    
C14   Cl3   1.778677 S    
P8    O24   1.742853 S    
C26   C27   1.418555 A    
C7    H16   1.108999 S    
P4    O15   1.751143 S    
O16   P7    1.763102 S    
C20   C28   1.494981 S    
O2    Ba1   2.917497 S    
C1    H3    1.110290 S    
C31   C39   1.391876 A    
C41   O25   1.218980 D    
C29   H37   1.085228 S    
P2    O7    1.486678 D    
P1    C22   1.878674 S    
P3    O8    1.743860 S    
P2    Ba1   3.431118 S    
C9    H20   1.110065 S    
C3    H7    1.109415 S    
H34   C16   1.104479 S    
C21   H38   1.084351 S    
P4    C25   1.865973 S    
C23   C27   1.425305 A    
C36   C40   1.417042 A    
C3    H27   1.108881 S    
O13   Ba2   2.918324 S    
C37   C38   1.421522 A    
P8    O23   1.541744 D    
C2    H5    1.102574 S    
C15   H32   1.107372 S    
Ba1   O16   2.809031 S    
C42   O28   1.396640 S    
C13   C14   1.524778 S    
O8    Ba1   2.740511 S    
C4    H9    1.109256 S    
C30   H42   1.081976 S    
C1    Cl2   1.786337 S    
C32   C35   1.399439 A    
Ba1   Ba2   4.476934 S    
C6    H12   1.102776 S    
C2    H4    1.109443 S    
C5    H11   1.106303 S    
O28   H48   1.013915 S    
C23   C42   1.483718 S    
C13   H28   1.114227 S    
C19   H40   1.085276 S    
C33   C34   1.390624 A    
P5    C39   1.850514 S    
C15   O24   1.400771 S    
C10   H21   1.108748 S    
C11   O22   1.408898 S    
C32   C34   1.396815 A    
O16   Ba2   2.888803 S    
C4    O15   1.413235 S    
C41   O26   1.393771 S    
O3    Ba1   2.827378 S    
C12   H24   1.108357 S    
C15   C16   1.521000 S    
C18   C19   1.499125 S    
P4    Ba2   3.382097 S    
C28   C29   1.356988 D    
P3    O9    1.541938 D    
C3    H6    1.108308 S    
O1    Ba1   2.840407 S    
C5    C41   1.497775 S    
P7    O22   1.766349 S    
C19   C20   1.346721 D    
O6    C10   1.399815 S    
P2    C35   1.868528 S    
C39   C40   1.402109 A    
