data_mof_unit_21324.cif
_audit_creation_date              2013-03-05T15:50:05-0500
_audit_creation_method            fapswitch 2.2
_symmetry_space_group_name_H-M    P1
_symmetry_Int_Tables_number       1
_space_group_crystal_system       triclinic
_cell_length_a                    18.268457
_cell_length_b                    25.800726
_cell_length_c                    18.20604
_cell_angle_alpha                 90.157318
_cell_angle_beta                  90.340078
_cell_angle_gamma                 89.890022
_cell_volume                      8581.02589893

loop_
_atom_site_label
_atom_site_type_symbol
_atom_site_description
_atom_site_fract_x
_atom_site_fract_y
_atom_site_fract_z
_atom_type_partial_charge
Zn1   Zn    Zn3+2 0.249990 0.293780 0.913250 1.044114
Zn2   Zn    Zn3+2 0.249990 0.706220 0.086750 1.004212
Zn3   Zn    Zn3+2 0.249990 0.706220 0.913250 1.014477
Zn4   Zn    Zn3+2 0.249990 0.293780 0.086750 1.014139
Zn5   Zn    Zn3+2 0.749990 0.793780 0.413250 1.061862
Zn6   Zn    Zn3+2 0.749990 0.206220 0.586750 0.984334
Zn7   Zn    Zn3+2 0.749990 0.206220 0.413250 1.026548
Zn8   Zn    Zn3+2 0.749990 0.793780 0.586750 1.009654
Zn9   Zn    Zn3+2 0.336760 0.206240 0.000000 0.958986
Zn10  Zn    Zn3+2 0.336760 0.793760 0.000000 0.991208
Zn11  Zn    Zn3+2 0.836760 0.706240 0.500000 0.951297
Zn12  Zn    Zn3+2 0.836760 0.293760 0.500000 0.988432
Zn13  Zn    Zn3+2 0.163250 0.206230 0.000000 1.034884
Zn14  Zn    Zn3+2 0.163250 0.793770 0.000000 1.037802
Zn15  Zn    Zn3+2 0.663250 0.706230 0.500000 1.021627
Zn16  Zn    Zn3+2 0.663250 0.293770 0.500000 1.019334
O1    O     O_3   0.249990 0.250010 0.000000 -0.512567
O2    O     O_3   0.249990 0.749990 0.000000 -0.508499
O3    O     O_3   0.749990 0.750010 0.500000 -0.503787
O4    O     O_3   0.749990 0.249990 0.500000 -0.497913
O5    O     O_R   0.335430 0.280650 0.146160 -0.591714
O6    O     O_R   0.335430 0.719350 0.853840 -0.610102
O7    O     O_R   0.335430 0.719350 0.146160 -0.647253
O8    O     O_R   0.335430 0.280650 0.853840 -0.579840
O9    O     O_R   0.835430 0.780650 0.646160 -0.576326
O10   O     O_R   0.835430 0.219350 0.353840 -0.600971
O11   O     O_R   0.835430 0.219350 0.646160 -0.661302
O12   O     O_R   0.835430 0.780650 0.353840 -0.583412
O13   O     O_R   0.164550 0.280640 0.853840 -0.592125
O14   O     O_R   0.164550 0.719360 0.146160 -0.666023
O15   O     O_R   0.164550 0.719360 0.853840 -0.674102
O16   O     O_R   0.164550 0.280640 0.146160 -0.662411
O17   O     O_R   0.664550 0.780640 0.353840 -0.587691
O18   O     O_R   0.664550 0.219360 0.646160 -0.678917
O19   O     O_R   0.664550 0.219360 0.353840 -0.667643
O20   O     O_R   0.664550 0.780640 0.646160 -0.665804
O21   O     O_R   0.396160 0.219380 0.914560 -0.664312
O22   O     O_R   0.396160 0.780620 0.085440 -0.613692
O23   O     O_R   0.396160 0.780620 0.914560 -0.645008
O24   O     O_R   0.396160 0.219380 0.085440 -0.653845
O25   O     O_R   0.896160 0.719380 0.414560 -0.670911
O26   O     O_R   0.896160 0.280620 0.585440 -0.604928
O27   O     O_R   0.896160 0.280620 0.414560 -0.658789
O28   O     O_R   0.896160 0.719380 0.585440 -0.672400
O29   O     O_R   0.103840 0.219370 0.085450 -0.588445
O30   O     O_R   0.103840 0.780630 0.914550 -0.567552
O31   O     O_R   0.103840 0.780630 0.085450 -0.589517
O32   O     O_R   0.103840 0.219370 0.914550 -0.618196
O33   O     O_R   0.603840 0.719370 0.585450 -0.599183
O34   O     O_R   0.603840 0.280630 0.414550 -0.603498
O35   O     O_R   0.603840 0.280630 0.585450 -0.576516
O36   O     O_R   0.603840 0.719370 0.414550 -0.619855
O37   O     O_R   0.310730 0.133160 0.000000 -0.650363
O38   O     O_R   0.310730 0.866840 0.000000 -0.650149
O39   O     O_R   0.810730 0.633160 0.500000 -0.653454
O40   O     O_R   0.810730 0.366840 0.500000 -0.652138
O41   O     O_R   0.249970 0.366860 0.060720 -0.596495
O42   O     O_R   0.249970 0.633140 0.939280 -0.613989
O43   O     O_R   0.249970 0.633140 0.060720 -0.601719
O44   O     O_R   0.249970 0.366860 0.939280 -0.634783
O45   O     O_R   0.749970 0.866860 0.560720 -0.635106
O46   O     O_R   0.749970 0.133140 0.439280 -0.620876
O47   O     O_R   0.749970 0.133140 0.560720 -0.664890
O48   O     O_R   0.749970 0.866860 0.439280 -0.641473
O49   O     O_R   0.189290 0.133150 0.000000 -0.613528
O50   O     O_R   0.189290 0.866850 0.000000 -0.596979
O51   O     O_R   0.689290 0.633150 0.500000 -0.639727
O52   O     O_R   0.689290 0.366850 0.500000 -0.637464
C1    C     C_R   0.394074 0.253946 0.136060 0.813687
C2    C     C_R   0.393864 0.746129 0.863608 0.817564
C3    C     C_R   0.389963 0.749714 0.139568 0.922068
C4    C     C_R   0.386087 0.246412 0.855849 0.813607
C5    C     C_R   0.895112 0.754822 0.635048 0.814006
C6    C     C_R   0.894042 0.245980 0.363937 0.831302
C7    C     C_R   0.889932 0.249686 0.639603 0.854962
C8    C     C_R   0.886789 0.746482 0.356243 0.821161
C9    C     C_R   0.110645 0.249617 0.859774 0.910671
C10   C     C_R   0.113873 0.753711 0.144192 0.840916
C11   C     C_R   0.115496 0.755140 0.854558 0.851567
C12   C     C_R   0.106479 0.253555 0.137174 0.843921
C13   C     C_R   0.610481 0.749754 0.359923 0.926525
C14   C     C_R   0.613245 0.252852 0.643890 0.878799
C15   C     C_R   0.606193 0.246143 0.363375 0.843466
C16   C     C_R   0.606476 0.753728 0.637032 0.854078
C17   C     C_R   0.250044 0.109352 0.000054 0.797561
C18   C     C_R   0.249928 0.890649 0.999744 0.792631
C19   C     C_R   0.749922 0.608957 0.507378 0.820761
C20   C     C_R   0.750074 0.390722 0.491153 0.812109
C21   C     C_R   0.250641 0.391356 0.000003 0.855071
C22   C     C_R   0.250709 0.608604 0.999850 0.881134
C23   C     C_R   0.750102 0.891385 0.499971 0.914280
C24   C     C_R   0.750003 0.108637 0.499837 0.928619
C25   C     C_3   0.175226 0.469881 0.025474 0.177708
C26   C     C_3   0.266289 0.529697 0.920562 0.173460
C27   C     C_3   0.175051 0.530305 0.024770 0.178388
C28   C     C_3   0.265593 0.469659 0.920546 0.165089
C29   C     C_3   0.819761 0.969854 0.539907 0.155621
C30   C     C_3   0.681051 0.030417 0.540068 0.157111
C31   C     C_3   0.819695 0.030317 0.539910 0.138532
C32   C     C_3   0.681167 0.969960 0.540289 0.149921
H1    H     H_    0.132736 0.455806 0.985802 0.012676
H2    H     H_    0.221635 0.543477 0.883160 0.078413
H3    H     H_    0.133030 0.543759 0.984206 0.018697
H4    H     H_    0.219836 0.456484 0.883993 0.074580
H5    H     H_    0.818105 0.956413 0.598089 0.143506
H6    H     H_    0.683450 0.044206 0.598276 0.066541
H7    H     H_    0.817985 0.044009 0.598171 0.082390
H8    H     H_    0.683817 0.956571 0.598579 0.066104
H9    H     H_    0.279303 0.903983 0.864415 0.135610
H10   H     H_    0.281445 0.095712 0.865205 0.125384
H11   H     H_    0.617033 0.416845 0.420999 0.159578
H12   H     H_    0.608346 0.581074 0.559640 0.174218
H13   H     H_    0.303209 0.455852 0.108819 0.258928
H14   H     H_    0.366058 0.544451 0.035376 0.208751
H15   H     H_    0.301896 0.543950 0.109150 0.236430
H16   H     H_    0.366333 0.455686 0.034149 0.208060
H17   H     H_    0.798190 0.955812 0.389253 0.233922
H18   H     H_    0.700420 0.043818 0.389265 0.216406
H19   H     H_    0.798408 0.043609 0.389260 0.256269
H20   H     H_    0.700193 0.956008 0.389545 0.225994
C33   C     C_3   0.311745 0.470076 0.051861 -0.304602
C34   C     C_3   0.311389 0.529865 0.052169 -0.335304
C35   C     C_3   0.749475 0.970174 0.419666 -0.302973
C36   C     C_3   0.749568 0.029579 0.419561 -0.294464
C37   C     C_3   0.250977 0.449054 0.999701 -0.011022
C38   C     C_3   0.251017 0.550832 0.999485 -0.021397
C39   C     C_3   0.750137 0.949144 0.499766 -0.016241
C40   C     C_3   0.750073 0.050923 0.499592 -0.018059
C41   C     C_R   0.972772 0.295598 0.886053 -0.160025
C42   C     C_R   0.132942 0.698369 0.288112 -0.118298
C43   C     C_R   0.154501 0.715953 0.702641 -0.144905
C44   C     C_R   0.103055 0.331629 0.260256 -0.126003
C45   C     C_R   0.474265 0.798616 0.384262 -0.143389
C46   C     C_R   0.622390 0.185211 0.779203 -0.130201
C47   C     C_R   0.599522 0.165581 0.244356 -0.117628
C48   C     C_R   0.604707 0.830811 0.761647 -0.133101
C49   C     C_R   0.904959 0.318036 0.900347 -0.111104
C50   C     C_R   0.132956 0.657041 0.337209 -0.109840
C51   C     C_R   0.166079 0.690038 0.636637 -0.103698
C52   C     C_R   0.120968 0.354274 0.327573 -0.106309
C53   C     C_R   0.407154 0.822366 0.397698 -0.094306
C54   C     C_R   0.615760 0.140837 0.822141 -0.135467
C55   C     C_R   0.617032 0.141742 0.177954 -0.110775
C56   C     C_R   0.623317 0.852236 0.829571 -0.125658
C57   C     C_R   0.352691 0.821552 0.344292 -0.123613
C58   C     C_R   0.547458 0.125734 0.847152 -0.150764
C59   C     C_R   0.589400 0.161553 0.112591 -0.127676
C60   C     C_R   0.593997 0.831769 0.893376 -0.114521
C61   C     C_R   0.850489 0.317304 0.846960 -0.118309
C62   C     C_R   0.067147 0.638468 0.364186 -0.163279
C63   C     C_R   0.112168 0.689888 0.582938 -0.142926
C64   C     C_R   0.092184 0.334303 0.391931 -0.139447
C65   C     C_R   0.365333 0.797154 0.277239 -0.161945
C66   C     C_R   0.486890 0.157333 0.834465 -0.127015
C67   C     C_R   0.539431 0.202385 0.114205 -0.132834
C68   C     C_R   0.541368 0.792910 0.888789 -0.092294
C69   C     C_R   0.863795 0.294263 0.779090 -0.155479
C70   C     C_R   0.002033 0.664001 0.347021 -0.131448
C71   C     C_R   0.046455 0.715771 0.594905 -0.159720
C72   C     C_R   0.040740 0.294606 0.388429 -0.095926
C73   C     C_R   0.433240 0.772342 0.262450 0.057466
C74   C     C_R   0.493871 0.204641 0.795856 0.097070
C75   C     C_R   0.516375 0.224202 0.181782 0.086704
C76   C     C_R   0.517501 0.773648 0.819760 0.087085
C77   C     C_R   0.932363 0.270679 0.763465 0.076594
C78   C     C_R   0.001842 0.709157 0.302773 0.093676
C79   C     C_R   0.030902 0.739837 0.663387 0.092981
C80   C     C_R   0.017417 0.274064 0.319944 0.089762
C81   C     C_R   0.987291 0.271117 0.817636 0.045305
C82   C     C_R   0.066533 0.722020 0.265232 0.053465
C83   C     C_R   0.086317 0.739924 0.718586 0.063604
C84   C     C_R   0.056186 0.287906 0.256246 0.041875
C85   C     C_R   0.488072 0.772802 0.316686 0.043693
C86   C     C_R   0.560078 0.215203 0.759526 0.054210
C87   C     C_R   0.554142 0.210229 0.246326 0.050777
C88   C     C_R   0.556674 0.787789 0.756459 0.052253
C89   C     C_R   0.447352 0.748086 0.194357 -0.086293
C90   C     C_R   0.436327 0.241165 0.792296 -0.155814
C91   C     C_R   0.457587 0.259898 0.186422 -0.160120
C92   C     C_R   0.456705 0.740088 0.812687 -0.151714
C93   C     C_R   0.947017 0.247631 0.694664 -0.085381
C94   C     C_R   0.939053 0.741133 0.294228 -0.156634
C95   C     C_R   0.964740 0.767840 0.676036 -0.157158
C96   C     C_R   0.957407 0.239679 0.313759 -0.140201
C97   C     C_R   0.515505 0.723270 0.178848 -0.082058
C98   C     C_R   0.437879 0.280565 0.737853 -0.184783
C99   C     C_R   0.450754 0.291763 0.249520 -0.187399
C100  C     C_R   0.448466 0.710005 0.747823 -0.188073
C101  C     C_R   0.015497 0.223632 0.678722 -0.152547
C102  C     C_R   0.936089 0.777160 0.235346 -0.187248
C103  C     C_R   0.969407 0.810998 0.725169 -0.166251
C104  C     C_R   0.950082 0.208479 0.249963 -0.190990
C105  C     C_R   0.071272 0.224243 0.733309 -0.047685
C106  C     C_R   0.001951 0.792316 0.202174 -0.046667
C107  C     C_R   0.024853 0.810971 0.780721 -0.052690
C108  C     C_R   0.984521 0.224730 0.185127 -0.052970
C109  C     C_R   0.570310 0.722663 0.234415 -0.072527
C110  C     C_R   0.505341 0.293502 0.706081 -0.049548
C111  C     C_R   0.484431 0.275477 0.315064 -0.057701
C112  C     C_R   0.483482 0.726596 0.683539 -0.052773
C113  C     C_R   0.055773 0.248101 0.802373 -0.080062
C114  C     C_R   0.063349 0.758875 0.207608 -0.100133
C115  C     C_R   0.074183 0.768015 0.784942 -0.116924
C116  C     C_R   0.045500 0.258665 0.190683 -0.097338
C117  C     C_R   0.555604 0.748144 0.302497 -0.085402
C118  C     C_R   0.562228 0.256133 0.707078 -0.102614
C119  C     C_R   0.544392 0.240542 0.310744 -0.090905
C120  C     C_R   0.545396 0.759434 0.690202 -0.100256
C121  C     C_R   0.529662 0.697981 0.110154 0.329147
C122  C     C_R   0.374795 0.308744 0.714966 0.395971
C123  C     C_R   0.410642 0.339117 0.249993 0.404774
C124  C     C_R   0.406673 0.663601 0.744548 0.395453
C125  C     C_R   0.030269 0.199105 0.609660 0.307642
C126  C     C_R   0.869771 0.799341 0.208515 0.399876
C127  C     C_R   0.925307 0.856421 0.716753 0.377479
C128  C     C_R   0.908883 0.161724 0.248088 0.392219
C129  C     C_R   0.600020 0.678361 0.094949 0.156740
C130  C     C_R   0.382919 0.357929 0.684157 0.269080
C131  C     C_R   0.388768 0.360822 0.316900 0.234403
C132  C     C_R   0.384225 0.643805 0.676384 0.226934
C133  C     C_R   0.100847 0.182588 0.592388 0.261297
C134  C     C_R   0.871876 0.845395 0.168151 0.241363
C135  C     C_R   0.924144 0.894014 0.772068 0.234802
C136  C     C_R   0.886423 0.141026 0.180503 0.247525
C137  C     C_R   0.155895 0.182803 0.645802 0.111801
C138  C     C_R   0.939252 0.868310 0.151015 0.085170
C139  C     C_R   0.979094 0.894558 0.825788 0.098233
C140  C     C_R   0.906064 0.165433 0.114684 0.076844
C141  C     C_R   0.653328 0.676685 0.150156 0.168305
C142  C     C_R   0.453013 0.377198 0.669284 0.102993
C143  C     C_R   0.407933 0.336839 0.383430 0.056798
C144  C     C_R   0.404471 0.668837 0.611249 0.047474
C145  C     C_R   0.140290 0.200060 0.717747 0.375501
C146  C     C_R   0.005130 0.841286 0.166929 0.388452
C147  C     C_R   0.034736 0.856540 0.823981 0.375308
C148  C     C_R   0.955033 0.208031 0.116734 0.394029
C149  C     C_R   0.637475 0.695555 0.221107 0.370561
C150  C     C_R   0.514726 0.344184 0.677189 0.380765
C151  C     C_R   0.455672 0.293424 0.382840 0.403369
C152  C     C_R   0.454190 0.710939 0.614578 0.398648
H21   H     H_    0.013514 0.297944 0.929277 0.135864
H22   H     H_    0.185604 0.712593 0.270553 0.164235
H23   H     H_    0.202226 0.720240 0.737092 0.177981
H24   H     H_    0.124143 0.350218 0.211727 0.192400
H25   H     H_    0.514997 0.800897 0.427512 0.139241
H26   H     H_    0.677323 0.196657 0.765152 0.177206
H27   H     H_    0.620047 0.147568 0.293901 0.177164
H28   H     H_    0.626268 0.849791 0.713641 0.171531
H29   H     H_    0.894819 0.336252 0.952961 0.151725
H30   H     H_    0.184019 0.638828 0.353240 0.174981
H31   H     H_    0.218674 0.672393 0.625552 0.190540
H32   H     H_    0.157980 0.386961 0.329801 0.196624
H33   H     H_    0.397525 0.841595 0.449686 0.151454
H34   H     H_    0.663703 0.117913 0.835466 0.170514
H35   H     H_    0.652960 0.108340 0.177203 0.187663
H36   H     H_    0.661322 0.884326 0.832680 0.177096
H37   H     H_    0.300580 0.840165 0.354611 0.139172
H38   H     H_    0.541675 0.090224 0.878098 0.153281
H39   H     H_    0.605425 0.144584 0.060648 0.162523
H40   H     H_    0.610741 0.846811 0.946427 0.174637
H41   H     H_    0.797847 0.334942 0.857938 0.149173
H42   H     H_    0.066594 0.604801 0.399552 0.151834
H43   H     H_    0.122822 0.672035 0.530152 0.158991
H44   H     H_    0.108409 0.350359 0.444546 0.175228
H45   H     H_    0.321273 0.798266 0.237305 0.104279
H46   H     H_    0.434430 0.143877 0.853911 0.155023
H47   H     H_    0.520688 0.217472 0.062018 0.164934
H48   H     H_    0.521122 0.777236 0.939804 0.194539
H49   H     H_    0.819684 0.295409 0.739228 0.124345
H50   H     H_    0.951998 0.646990 0.367061 0.171761
H51   H     H_    0.011985 0.719982 0.547127 0.179815
H52   H     H_    0.020981 0.279339 0.439884 0.198925
H53   H     H_    0.306636 0.047611 0.753089 0.162890
H54   H     H_    0.305477 0.951835 0.752644 0.145094
H55   H     H_    0.496042 0.540805 0.516470 0.210148
H56   H     H_    0.500294 0.459331 0.444598 0.199494
C153  C     C_R   0.217413 0.054120 0.131651 -0.131910
C154  C     C_R   0.218462 0.946214 0.131678 -0.146103
C155  C     C_R   0.883827 0.546568 0.538222 -0.120803
C156  C     C_R   0.885614 0.452609 0.463899 -0.114807
C157  C     C_R   0.201822 0.027156 0.195903 -0.105232
C158  C     C_R   0.202429 0.973299 0.195934 -0.102243
C159  C     C_R   0.950402 0.522673 0.522449 -0.148786
C160  C     C_R   0.951333 0.476774 0.482460 -0.136865
C161  C     C_R   0.233581 0.972855 0.065495 0.070504
C162  C     C_R   0.233372 0.027323 0.065544 0.074520
C163  C     C_R   0.817536 0.474293 0.485150 0.079679
C164  C     C_R   0.816738 0.524930 0.513404 0.076080
C165  C     C_R   0.249690 0.946258 0.999701 -0.137517
C166  C     C_R   0.249975 0.053746 0.999946 -0.136257
C167  C     C_R   0.750587 0.447033 0.478831 -0.208689
C168  C     C_R   0.749345 0.552207 0.515967 -0.206186
C169  C     C_R   0.265365 0.972679 0.933870 0.068016
C170  C     C_R   0.265780 0.027161 0.934058 0.078026
C171  C     C_R   0.683492 0.474306 0.479483 0.075139
C172  C     C_R   0.682145 0.525030 0.507478 0.068530
C173  C     C_R   0.279771 0.945878 0.867421 -0.141110
C174  C     C_R   0.280931 0.053817 0.867873 -0.148433
C175  C     C_R   0.617415 0.452385 0.452651 -0.138360
C176  C     C_R   0.613168 0.546643 0.526091 -0.112815
C177  C     C_R   0.294638 0.972839 0.802984 -0.124239
C178  C     C_R   0.295287 0.026711 0.803224 -0.127100
C179  C     C_R   0.550496 0.476901 0.464317 -0.092761
C180  C     C_R   0.548192 0.523033 0.503696 -0.058372
H57   H     H_    0.217029 0.096014 0.134522 0.126705
H58   H     H_    0.219026 0.904335 0.134590 0.141807
H59   H     H_    0.885575 0.581400 0.571316 0.164984
H60   H     H_    0.888755 0.417603 0.431264 0.159841
H61   H     H_    0.189613 0.048155 0.245928 0.161213
H62   H     H_    0.190703 0.952391 0.245966 0.156522
H63   H     H_    0.001289 0.540342 0.540060 0.153429
H64   H     H_    0.002962 0.459259 0.467151 0.151868
O53   O     O_3   0.159136 0.450825 0.095994 -0.689464
H65   H     H_    0.105046 0.451363 0.100965 0.331761
O54   O     O_3   0.333764 0.548646 0.895204 -0.652300
H66   H     H_    0.333078 0.544797 0.840947 0.404311
O55   O     O_3   0.157787 0.550404 0.094582 -0.679875
H67   H     H_    0.103669 0.549350 0.099042 0.340558
O56   O     O_3   0.332280 0.449545 0.894087 -0.684316
H68   H     H_    0.328590 0.448825 0.839650 0.373161
O57   O     O_3   0.883050 0.949887 0.506212 -0.705534
H69   H     H_    0.923064 0.951669 0.543273 0.360067
O58   O     O_3   0.617275 0.050146 0.506394 -0.713544
H70   H     H_    0.577953 0.049119 0.543774 0.346506
O59   O     O_3   0.882964 0.050054 0.506213 -0.688705
H71   H     H_    0.922633 0.049389 0.543719 0.354768
O60   O     O_3   0.617374 0.950026 0.506940 -0.721653
H72   H     H_    0.578191 0.951260 0.544469 0.338047
O61   O     O_3   0.474783 0.693326 0.057968 -0.773890
H73   H     H_    0.483883 0.662604 0.026695 0.356125
O62   O     O_3   0.305180 0.288010 0.717232 -0.653645
H74   H     H_    0.309443 0.249921 0.722755 0.364698
O63   O     O_3   0.396831 0.367197 0.186835 -0.707285
H75   H     H_    0.431014 0.355609 0.148014 0.317886
O64   O     O_3   0.392697 0.634130 0.806049 -0.675781
H76   H     H_    0.427979 0.643766 0.845328 0.350534
O65   O     O_3   0.976777 0.189641 0.557930 -0.734421
H77   H     H_    0.940906 0.166459 0.581890 0.332478
O66   O     O_3   0.802824 0.775146 0.215837 -0.657282
H78   H     H_    0.811414 0.738126 0.227415 0.359878
O67   O     O_3   0.891253 0.869343 0.651509 -0.714820
H79   H     H_    0.920022 0.854206 0.610698 0.317383
O68   O     O_3   0.894824 0.133078 0.310478 -0.679393
H80   H     H_    0.929461 0.143759 0.349783 0.355561
Br1   Br    Br    0.119229 0.156573 0.494861 -0.372768
Br2   Br    Br    0.780800 0.876620 0.137926 -0.308236
Br3   Br    Br    0.853659 0.949410 0.765499 -0.429987
Br4   Br    Br    0.827914 0.079018 0.180180 -0.329522
Br5   Br    Br    0.624340 0.655646 0.996718 -0.425631
Br6   Br    Br    0.296477 0.398655 0.665126 -0.291361
Br7   Br    Br    0.331517 0.423558 0.315303 -0.374196
Br8   Br    Br    0.325753 0.581789 0.674177 -0.355663
O69   O     O_3   0.191574 0.193519 0.773116 -0.775906
H81   H     H_    0.225150 0.164733 0.760777 0.340946
O70   O     O_3   0.073184 0.863402 0.156210 -0.758551
H82   H     H_    0.068652 0.895330 0.126815 0.379001
O71   O     O_3   0.102672 0.866232 0.855013 -0.743241
H83   H     H_    0.107131 0.903230 0.868555 0.365340
O72   O     O_3   0.970138 0.237141 0.054920 -0.759563
H84   H     H_    0.941108 0.224794 0.012521 0.372223
O73   O     O_3   0.687036 0.687960 0.277762 -0.769586
H85   H     H_    0.717565 0.657107 0.267643 0.349626
O74   O     O_3   0.585125 0.361945 0.665661 -0.741594
H86   H     H_    0.583853 0.393603 0.635292 0.377106
O75   O     O_3   0.470332 0.264816 0.445501 -0.718874
H87   H     H_    0.443323 0.278879 0.487907 0.375705
O76   O     O_3   0.470755 0.740353 0.553444 -0.761437
H88   H     H_    0.441909 0.728701 0.510527 0.372585
Br9   Br    Br    0.253127 0.160013 0.619503 -0.458613
Br10  Br    Br    0.939560 0.935813 0.105480 -0.296656
Br11  Br    Br    0.981391 0.949554 0.897791 -0.324849
Br12  Br    Br    0.869050 0.138027 0.022924 -0.387587
Br13  Br    Br    0.749661 0.650092 0.127462 -0.441693
Br14  Br    Br    0.462960 0.448587 0.640065 -0.396187
Br15  Br    Br    0.371656 0.365764 0.474014 -0.394859
Br16  Br    Br    0.367647 0.642725 0.518660 -0.476493

loop_
_geom_bond_atom_site_label_1
_geom_bond_atom_site_label_2
_geom_bond_distance
_ccdc_geom_bond_type
C156  H60   1.081333 S    
O71   H83   0.988628 S    
C110  C118  1.416307 A    
C32   C39   1.557754 S    
C54   C58   1.387696 A    
C87   C119  1.419774 A    
O65   H77   0.991856 S    
C56   C60   1.388173 A    
C21   C37   1.488713 S    
O63   H75   0.991098 S    
C43   C83   1.420794 A    
O26   C7    1.276058 A    
C23   C39   1.490222 S    
C170  C174  1.418028 A    
C147  O71   1.383513 S    
O30   C11   1.291918 A    
C107  C115  1.429053 A    
C133  C137  1.394759 A    
C105  C113  1.428079 A    
C26   O54   1.407819 S    
C174  C178  1.393424 A    
Zn12  O26   1.921866 S    
C126  C134  1.399526 A    
C109  C149  1.432720 A    
C155  C159  1.393568 A    
C108  C116  1.421176 A    
C59   C67   1.393001 A    
C52   C64   1.388022 A    
C53   C57   1.387161 A    
C29   H5    1.116081 S    
C112  C120  1.418933 A    
C60   H40   1.082573 S    
O11   C7    1.274019 A    
C136  C140  1.404030 A    
C61   H41   1.082597 S    
O34   C15   1.287402 A    
C77   C81   1.402835 A    
C72   H52   1.081496 S    
H16   C33   1.112670 S    
C57   H37   1.082633 S    
O58   H70   0.992882 S    
Zn1   O44   1.942898 S    
C25   H1    1.117615 S    
Zn2   O43   1.942898 S    
C79   C83   1.422221 A    
C124  C132  1.400139 A    
C136  Br4   1.925752 S    
C165  C169  1.411542 A    
Zn5   O48   1.942898 S    
C65   C73   1.421717 A    
Zn6   O47   1.942898 S    
C167  C171  1.412252 A    
C128  C136  1.399567 A    
Zn7   O46   1.945423 S    
O16   C12   1.280904 A    
C155  H59   1.081002 S    
O70   H82   0.986663 S    
C58   C66   1.391712 A    
C168  C172  1.422354 A    
Zn16  O4    1.944221 S    
Zn12  O4    1.948052 S    
Zn1   O13   1.923821 S    
C19   C168  1.473013 S    
C22   C38   1.490579 S    
H18   C36   1.113251 S    
C26   C28   1.549077 S    
Zn4   O16   1.935251 S    
C25   O53   1.408901 S    
C99   C123  1.423482 A    
C28   H4    1.118214 S    
C97   C121  1.433688 A    
C27   O55   1.408672 S    
C141  C149  1.410658 A    
C42   C50   1.393268 A    
C104  C108  1.406256 A    
Zn6   O4    1.944100 S    
C24   C40   1.489061 S    
C46   C86   1.419950 A    
C157  H61   1.082578 S    
C31   C40   1.558073 S    
C30   H6    1.117577 S    
Zn10  O22   1.921866 S    
C121  C129  1.409209 A    
C88   C120  1.423208 A    
C156  C163  1.418197 A    
C53   H33   1.082604 S    
O75   H87   0.986621 S    
O25   C8    1.283336 A    
Zn13  O29   1.931016 S    
C100  C124  1.422124 A    
C124  O64   1.380549 S    
Zn10  O2    1.948052 S    
H10   C174  1.082223 S    
C71   C79   1.421265 A    
O29   C12   1.289228 A    
C72   C80   1.417030 A    
C82   C114  1.418729 A    
O64   H76   0.991353 S    
C90   C98   1.422184 A    
C41   C49   1.392080 A    
C26   H2    1.117660 S    
O57   H69   0.992901 S    
O72   H84   0.986426 S    
C86   C118  1.426418 A    
C146  O70   1.384023 S    
O37   C17   1.268480 A    
C94   C102  1.421523 A    
O48   C23   1.271785 A    
C97   C109  1.419193 A    
C45   C85   1.421039 A    
C46   H26   1.079041 S    
C48   C88   1.418863 A    
C34   C38   1.554691 S    
C154  C161  1.417678 A    
C78   C94   1.419692 A    
Zn16  O35   1.933246 S    
C4    C90   1.486849 S    
C75   C87   1.406636 A    
C35   C36   1.532700 S    
Zn15  O33   1.931016 S    
C17   C166  1.434664 S    
Zn7   O10   1.935207 S    
O33   C16   1.290389 A    
C129  Br5   1.934417 S    
C5    C95   1.508856 S    
C135  C139  1.397429 A    
O40   C20   1.276435 A    
C6    C96   1.487281 S    
C100  C112  1.405304 A    
C161  C165  1.411122 A    
C15   C119  1.483491 S    
C44   H24   1.079869 S    
Zn5   O17   1.923821 S    
C145  O69   1.382570 S    
C110  C150  1.421865 A    
C31   O59   1.408555 S    
C47   C55   1.393517 A    
C69   H49   1.081670 S    
C123  O63   1.382454 S    
C55   H35   1.082374 S    
C169  C173  1.417540 A    
O28   C5    1.283697 A    
C93   C101  1.425858 A    
C111  C119  1.419618 A    
C27   H3    1.117513 S    
Zn14  O50   1.945486 S    
C32   H8    1.117681 S    
Zn8   O3    1.939055 S    
C47   H27   1.080659 S    
C132  Br8   1.925775 S    
H53   C178  1.082708 S    
C69   C77   1.421492 A    
O38   C18   1.268257 A    
H55   C180  1.082743 S    
C67   C75   1.417505 A    
C137  Br9   1.932540 S    
O5    C1    1.286503 A    
C63   C71   1.390627 A    
O32   C9    1.274791 A    
C33   C37   1.554145 S    
C169  C170  1.405700 A    
C16   C120  1.488366 S    
C35   C39   1.557337 S    
C68   H48   1.081526 S    
C172  C176  1.419488 A    
Zn15  O51   1.943716 S    
Zn11  O28   1.921094 S    
C101  C125  1.432894 A    
C30   O58   1.408318 S    
C78   C82   1.409367 A    
C75   C91   1.416195 A    
C122  O62   1.381512 S    
C58   H38   1.082548 S    
C14   C118  1.486985 S    
C150  O74   1.383478 S    
O8    C4    1.278572 A    
C166  C170  1.411247 A    
C66   C74   1.416535 A    
C131  C143  1.403857 A    
C50   H30   1.082605 S    
C140  Br12  1.931313 S    
O50   C18   1.267628 A    
C111  C151  1.420094 A    
C123  C131  1.399393 A    
Zn1   O1    1.944101 S    
C138  C146  1.418525 A    
Zn13  O1    1.947752 S    
Zn2   O14   1.933160 S    
C42   H22   1.080789 S    
C27   C38   1.558863 S    
C175  C179  1.392511 A    
C51   C63   1.383591 A    
C148  O72   1.384137 S    
O9    C5    1.293369 A    
C59   H39   1.082695 S    
O36   C13   1.274543 A    
C103  C107  1.427148 A    
C135  Br3   1.925382 S    
C74   C90   1.411756 A    
H56   C179  1.082716 S    
C43   C51   1.390643 A    
C101  C105  1.419179 A    
O13   C9    1.275479 A    
Zn1   O8    1.933118 S    
Zn2   O7    1.923778 S    
C173  C177  1.393889 A    
Zn3   O6    1.935207 S    
O18   C14   1.274173 A    
O31   C10   1.288784 A    
O6    C2    1.283911 A    
C45   H25   1.081735 S    
C149  O73   1.382530 S    
C128  O68   1.382485 S    
C109  C117  1.428140 A    
C52   H32   1.082461 S    
C134  Br2   1.925242 S    
C153  H57   1.082043 S    
O69   H81   0.988568 S    
C95   C103  1.428732 A    
Zn14  O30   1.921345 S    
Zn15  O3    1.947752 S    
C56   H36   1.082694 S    
Zn11  O3    1.944521 S    
H12   C176  1.080454 S    
O41   C21   1.274973 A    
C164  C168  1.417884 A    
Zn16  O34   1.921345 S    
C159  H63   1.082652 S    
C91   C99   1.416791 A    
C131  Br7   1.925638 S    
C106  C114  1.416938 A    
C32   O60   1.408363 S    
C89   C97   1.428260 A    
C48   H28   1.079816 S    
C133  Br1   1.927606 S    
Zn8   O20   1.935251 S    
C84   C116  1.422993 A    
C130  C142  1.402662 A    
C92   C100  1.418781 A    
C103  C127  1.428952 A    
C125  C133  1.394594 A    
C144  Br16  1.931327 S    
O74   H86   0.987765 S    
C96   C104  1.417157 A    
C76   C92   1.414640 A    
H20   C35   1.113175 S    
C63   H43   1.083070 S    
C36   C40   1.556222 S    
C64   H44   1.082591 S    
C30   C40   1.558400 S    
O54   H66   0.992531 S    
C18   C165  1.434761 S    
C71   H51   1.076433 S    
Zn8   O9    1.923769 S    
C107  C147  1.424506 A    
C105  C145  1.435131 A    
C9    C113  1.444300 S    
C139  Br11  1.929495 S    
C138  Br10  1.930938 S    
C162  C166  1.411624 A    
O7    C3    1.274968 A    
C171  C172  1.403387 A    
O19   C15   1.281757 A    
C121  O61   1.382301 S    
C108  C148  1.419943 A    
O67   H79   0.991497 S    
Zn9   O24   1.921094 S    
Zn6   O18   1.933160 S    
C99   C111  1.404311 A    
Zn10  O23   1.930766 S    
C65   H45   1.081836 S    
O62   H74   0.991004 S    
C112  C152  1.419827 A    
C161  C162  1.405302 A    
C46   C54   1.393955 A    
C73   C85   1.402428 A    
O66   H78   0.990712 S    
C142  Br14  1.927785 S    
O14   C10   1.280819 A    
Zn15  O36   1.922117 S    
O15   C11   1.285438 A    
O42   C22   1.273021 A    
C33   C34   1.542598 S    
C151  O75   1.385005 S    
C62   H42   1.082770 S    
Zn4   O1    1.939055 S    
C130  Br6   1.925354 S    
H11   C175  1.081672 S    
C98   C122  1.422348 A    
Zn9   O37   1.945444 S    
O12   C8    1.286830 A    
H54   C177  1.082529 S    
Zn11  O39   1.945444 S    
C70   C78   1.418237 A    
C153  C162  1.417860 A    
C153  C157  1.393793 A    
C62   C70   1.392953 A    
O51   C19   1.276950 A    
C177  C178  1.389989 A    
C54   H34   1.082633 S    
C49   H29   1.082606 S    
Zn5   O3    1.944101 S    
C44   C52   1.393740 A    
C31   H7    1.117653 S    
C45   C53   1.392210 A    
C70   H50   1.080585 S    
C137  C145  1.412763 A    
O60   H72   0.992881 S    
C48   C56   1.393688 A    
C1    C91   1.482506 S    
C2    C92   1.487570 S    
O53   H65   0.992878 S    
C12   C116  1.489623 S    
C41   H21   1.081597 S    
C42   C82   1.417824 A    
C76   C88   1.409443 A    
C83   C115  1.425365 A    
O59   H71   0.992917 S    
C25   C37   1.558020 S    
C81   C113  1.412569 A    
O56   H68   0.993084 S    
Zn3   O42   1.945423 S    
C80   C84   1.409627 A    
C126  O66   1.381513 S    
Zn7   O4    1.939057 S    
O21   C4    1.289988 A    
C98   C110  1.405711 A    
C85   C117  1.411860 A    
C60   C68   1.392408 A    
C61   C69   1.392220 A    
C143  Br15  1.928798 S    
C176  C180  1.393537 A    
O68   H80   0.991270 S    
C64   C72   1.392450 A    
Zn2   O2    1.944100 S    
C20   C167  1.470760 S    
O61   H73   0.989041 S    
Zn14  O2    1.944221 S    
O76   H88   0.986420 S    
C29   C39   1.557815 S    
C141  Br13  1.934178 S    
C160  H64   1.082708 S    
Zn13  O49   1.943716 S    
H19   C36   1.113379 S    
C50   C62   1.388057 A    
C55   C59   1.388318 A    
C41   C81   1.421193 A    
Zn12  O27   1.930766 S    
C134  C138  1.403659 A    
Zn3   O2    1.939057 S    
C143  C151  1.418359 A    
C129  C141  1.396040 A    
C79   C95   1.426543 A    
C179  C180  1.388502 A    
C80   C96   1.415367 A    
C125  O65   1.374876 S    
Zn4   O41   1.945421 S    
C106  C146  1.420076 A    
Zn16  O52   1.945486 S    
C171  C175  1.417661 A    
Zn8   O45   1.945421 S    
C154  H58   1.082003 S    
C57   C65   1.392266 A    
O27   C6    1.282530 A    
H15   C34   1.112733 S    
O39   C19   1.283328 A    
C49   C61   1.386988 A    
C8    C94   1.488915 S    
C158  H62   1.082616 S    
C28   O56   1.410230 S    
C29   C31   1.560003 S    
C26   C38   1.561935 S    
O24   C1    1.281361 A    
C132  C144  1.403720 A    
C29   O57   1.408164 S    
C10   C114  1.487953 S    
C157  C158  1.389590 A    
O46   C24   1.272391 A    
O43   C22   1.274872 A    
C47   C87   1.418452 A    
O47   C24   1.274547 A    
Zn3   O15   1.923812 S    
Zn5   O12   1.933118 S    
Zn6   O11   1.923778 S    
C152  O76   1.384133 S    
Zn9   O21   1.932996 S    
C127  O67   1.379045 S    
H13   C33   1.112899 S    
C102  C126  1.423302 A    
O35   C14   1.294881 A    
Zn12  O40   1.943674 S    
Zn9   O1    1.944521 S    
H9    C173  1.082214 S    
C11   C115  1.508751 S    
C163  C164  1.402855 A    
O52   C20   1.282044 A    
C163  C167  1.415958 A    
C142  C150  1.418565 A    
C7    C93   1.443237 S    
C159  C160  1.388554 A    
C13   C117  1.444758 S    
O44   C21   1.271924 A    
O22   C3    1.275057 A    
Zn7   O19   1.923812 S    
C51   H31   1.082269 S    
C156  C160  1.393284 A    
C66   H46   1.081804 S    
C127  C135  1.396488 A    
Zn13  O32   1.922117 S    
O49   C17   1.267365 A    
Zn14  O31   1.933246 S    
C74   C86   1.409377 A    
C139  C147  1.411685 A    
O73   H85   0.988626 S    
C30   C32   1.559833 S    
C122  C130  1.397384 A    
C77   C93   1.411919 A    
C155  C164  1.418673 A    
C3    C89   1.443462 S    
H17   C35   1.113251 S    
C43   H23   1.076692 S    
Zn4   O5    1.923769 S    
O17   C13   1.275832 A    
O20   C16   1.278826 A    
O10   C6    1.285365 A    
O23   C2    1.284259 A    
C28   C37   1.562061 S    
Zn11  O25   1.932996 S    
O55   H67   0.992896 S    
Zn10  O38   1.943674 S    
C140  C148  1.418735 A    
C102  C106  1.406082 A    
C44   C84   1.418993 A    
H14   C34   1.112745 S    
C68   C76   1.416836 A    
C25   C27   1.559058 S    
C154  C158  1.393349 A    
C144  C152  1.418233 A    
C73   C89   1.412049 A    
C104  C128  1.423305 A    
C67   H47   1.081274 S    
O45   C23   1.275743 A    
