data_mof_unit_33858.cif
_audit_creation_date              2012-12-11T20:57:49-0500
_audit_creation_method            fapswitch 2.2
_symmetry_space_group_name_H-M    P1
_symmetry_Int_Tables_number       1
_space_group_crystal_system       triclinic
_cell_length_a                    8.235808
_cell_length_b                    18.886131
_cell_length_c                    23.104788
_cell_angle_alpha                 100.118893
_cell_angle_beta                  90.669326
_cell_angle_gamma                 91.249378
_cell_volume                      3536.59704047

loop_
_atom_site_label
_atom_site_type_symbol
_atom_type_description
_atom_site_fract_x
_atom_site_fract_y
_atom_site_fract_z
_atom_type_partial_charge
Ba1   Ba    Ba6+2 0.157800 0.534120 0.474430 1.778415
Ba2   Ba    Ba6+2 0.652390 0.465870 0.525520 1.562134
C1    C     C_3   0.503221 0.789306 0.291381 -0.350389
C2    C     C_R   0.039477 0.918108 0.581825 -0.095953
C3    C     C_R   0.187539 0.056105 0.568210 -0.095185
C4    C     C_3   0.061641 0.705830 0.314580 0.328457
C5    C     C_R   0.038010 0.030294 0.540806 0.044527
C6    C     C_R   0.247506 0.125129 0.566708 -0.119286
C7    C     C_R   0.163855 0.171620 0.536748 -0.004540
C8    C     C_R   0.017760 0.146377 0.506227 -0.011133
C9    C     C_R   0.955530 0.075139 0.507778 0.076515
C10   C     C_R   0.220994 0.242803 0.536625 -0.012398
C11   C     C_R   0.124171 0.289786 0.511825 -0.298741
C12   C     C_3   0.513754 0.741431 0.339200 0.177485
C13   C     C_R   0.984918 0.265707 0.478488 -0.013423
C14   C     C_R   0.933493 0.192316 0.474222 -0.019055
C15   C     C_R   0.823979 0.935624 0.514584 0.053233
C16   C     C_3   0.036817 0.776972 0.293003 -0.271271
C17   C     C_R   0.762014 0.864576 0.517351 0.052437
C18   C     C_R   0.855672 0.816705 0.545141 -0.056136
C19   C     C_R   0.982527 0.848348 0.583425 -0.084051
C20   C     C_R   0.802942 0.162680 0.438280 -0.031805
C21   C     C_R   0.749787 0.091760 0.436665 -0.073804
C22   C     C_R   0.810795 0.049613 0.476529 -0.011114
C23   C     C_3   0.422580 0.686771 0.633003 0.339362
C24   C     C_R   0.735368 0.982416 0.484691 -0.018648
C25   C     C_R   0.568665 0.964020 0.470513 -0.068660
C26   C     C_R   0.604082 0.842638 0.495002 -0.099135
C27   C     C_R   0.503409 0.895644 0.477598 -0.124435
C28   C     C_3   0.920798 0.273481 0.333014 0.325930
C29   C     C_R   0.552793 0.768567 0.491707 -0.022378
C30   C     C_R   0.658649 0.720336 0.510933 -0.195133
C31   C     C_R   0.810321 0.741394 0.536267 -0.011010
C32   C     C_R   0.665232 0.501886 0.332411 -0.190751
C33   C     C_R   0.483055 0.517731 0.934149 -0.020171
C34   C     C_3   0.492919 0.761148 0.657978 -0.311358
C35   C     C_R   0.421479 0.522934 0.877101 0.629400
C36   C     C_R   0.184533 0.453598 0.892883 0.594118
C37   C     C_R   0.223087 0.463285 0.953280 -0.025235
C38   C     C_R   0.377547 0.490500 0.973047 -0.036907
C39   C     C_R   0.645650 0.537452 0.954086 -0.029627
C40   C     C_3   0.794530 0.227179 0.293340 -0.353881
C41   C     C_R   0.698071 0.525615 0.009686 -0.112298
C42   C     C_R   0.588843 0.503103 0.049461 -0.035255
C43   C     C_R   0.426718 0.489297 0.031945 -0.035211
C44   C     C_R   0.113022 0.442831 0.993949 -0.086572
C45   C     C_3   0.868246 0.263484 0.639743 0.362094
C46   C     C_R   0.155572 0.450622 0.053438 -0.036582
C47   C     C_R   0.313856 0.472879 0.072934 -0.036915
C48   C     C_R   0.361188 0.480086 0.132642 0.603446
C49   C     C_R   0.638808 0.492798 0.106110 0.619163
C50   C     C_2   0.088197 0.454329 0.767938 -0.084531
C51   C     C_3   0.075359 0.418115 0.704141 -0.052990
C52   C     C_3   0.877150 0.644220 0.664222 0.139339
C53   C     C_1   0.316683 0.491839 0.690286 -0.009345
C54   C     C_2   0.362245 0.490539 0.745515 -0.100953
C55   C     C_2   0.237582 0.477804 0.790721 0.195636
C56   C     C_3   0.839060 0.189686 0.656089 -0.369611
C57   C     C_R   0.724742 0.522449 0.234555 -0.070469
C58   C     C_R   0.771563 0.525338 0.293535 0.019620
C59   C     C_R   0.515574 0.471830 0.312526 0.063449
C60   C     C_R   0.477973 0.458552 0.252023 -0.062402
C61   C     C_R   0.576834 0.487898 0.211481 0.180856
C62   C     C_2   0.195208 0.449660 0.665710 -0.170790
C63   C     C_3   0.870025 0.687351 0.728020 -0.366118
C64   C     C_3   0.326093 0.316786 0.399244 0.298154
C65   C     C_3   0.344497 0.235422 0.385624 -0.362876
C66   C     C_2   0.515040 0.665014 0.306668 0.534865
C67   C     C_3   0.384349 0.301702 0.676216 0.303240
C68   C     C_2   0.941665 0.571326 0.664449 0.794069
C69   C     C_2   0.033989 0.694254 0.758666 0.592674
C70   C     C_2   0.748286 0.654381 0.764339 0.549153
C71   C     C_2   0.672488 0.760311 0.372569 0.352289
C72   C     C_2   0.487904 0.867815 0.316748 0.533176
C73   C     C_2   0.524782 0.277379 0.767209 0.567015
C74   C     C_2   0.021451 0.821860 0.637600 0.554643
C75   C     C_2   0.326349 0.886597 0.482785 0.576491
C76   C     C_2   0.455284 0.021428 0.461194 0.503703
C77   C     C_2   0.769644 0.566565 0.918260 0.585119
C78   C     C_3   0.369897 0.268526 0.731745 -0.253140
C79   C     C_2   0.010659 0.765231 0.227619 0.557616
C80   C     C_2   0.038471 0.303034 0.293513 0.528520
C81   C     C_R   0.971598 0.960659 0.544211 0.027475
H1    H     H_    0.733399 0.259503 0.264005 0.125478
H2    H     H_    0.612415 0.782043 0.263125 0.083308
H3    H     H_    0.500661 0.662578 0.596252 -0.056809
H4    H     H_    0.472897 0.797949 0.626120 0.075214
H5    H     H_    0.434635 0.783221 0.700205 0.223343
H6    H     H_    0.930479 0.804535 0.314538 0.081936
H7    H     H_    0.822558 0.262521 0.594216 0.075965
H8    H     H_    0.708307 0.174095 0.651608 0.138081
H9    H     H_    0.908475 0.148864 0.626726 0.073885
H10   H     H_    0.880440 0.190253 0.702084 0.118458
H11   H     H_    0.258764 0.306419 0.660098 -0.073904
H12   H     H_    0.853733 0.180893 0.265902 0.079397
H13   H     H_    0.442741 0.355915 0.687234 0.060083
H14   H     H_    0.270750 0.295519 0.758923 0.095416
H15   H     H_    0.169680 0.680401 0.292615 0.117253
H16   H     H_    0.336271 0.210443 0.719854 0.060479
H17   H     H_    0.362010 0.140790 0.588884 0.102879
H18   H     H_    0.624555 0.663752 0.503473 0.055414
H19   H     H_    0.264960 0.023464 0.590058 0.049806
H20   H     H_    0.131134 0.940152 0.614058 0.092727
H21   H     H_    0.659730 0.070719 0.403425 0.115608
H22   H     H_    0.079254 0.717283 0.363008 0.131739
H23   H     H_    0.699645 0.205765 0.319342 0.103454
H24   H     H_    0.066912 0.435823 0.083665 0.171147
H25   H     H_    0.992299 0.422289 0.980078 0.126534
H26   H     H_    0.823641 0.537891 0.023126 0.107157
H27   H     H_    0.800160 0.552295 0.208987 0.142955
H28   H     H_    0.980905 0.453325 0.794239 0.146462
H29   H     H_    0.143791 0.813274 0.305355 0.091340
H30   H     H_    0.194399 0.428698 0.618914 0.083150
H31   H     H_    0.987243 0.238624 0.358756 -0.145606
H32   H     H_    0.604536 0.650327 0.273054 -0.042659
H33   H     H_    0.951399 0.550731 0.704971 -0.328734
H34   H     H_    0.754003 0.642202 0.644699 0.020423
H35   H     H_    0.093483 0.647002 0.768675 -0.013111
H36   H     H_    0.764746 0.600711 0.773815 0.050896
H37   H     H_    0.829212 0.742355 0.726136 0.139526
H38   H     H_    0.295847 0.209746 0.421473 0.079766
H39   H     H_    0.716761 0.815693 0.382332 0.048299
H40   H     H_    0.299697 0.693641 0.616316 0.112949
H41   H     H_    0.625149 0.758510 0.665256 0.042647
H42   H     H_    0.381954 0.886293 0.341767 0.114525
H43   H     H_    0.001202 0.273954 0.641411 -0.082995
H44   H     H_    0.628495 0.245353 0.752177 0.035875
H45   H     H_    0.198130 0.329652 0.408229 -0.048184
H46   H     H_    0.163941 0.345324 0.515150 0.069787
H47   H     H_    0.923499 0.801842 0.661066 -0.004258
H48   H     H_    0.740798 0.193895 0.410814 0.063713
H49   H     H_    0.281895 0.868948 0.521768 -0.024700
H50   H     H_    0.467233 0.073963 0.488765 -0.022935
H51   H     H_    0.883412 0.539114 0.909592 -0.034103
H52   H     H_    0.490173 0.488629 0.755404 0.155403
H53   H     H_    0.371186 0.425657 0.237956 0.135942
H54   H     H_    0.697424 0.508885 0.378664 0.068447
H55   H     H_    0.890091 0.770027 0.209494 0.016232
H56   H     H_    0.402008 0.337965 0.438652 0.098044
H57   H     H_    0.138838 0.270758 0.275043 -0.042220
H58   H     H_    0.396263 0.772530 0.262137 0.122410
H59   H     H_    0.278931 0.211986 0.344280 0.108537
H60   H     H_    0.474595 0.222584 0.380708 0.120457
N1    N     N_R   0.279095 0.486053 0.854453 -0.415422
N2    N     N_R   0.525236 0.486229 0.149554 -0.428578
O1    O     O_2   0.110690 0.676100 0.539200 -0.447428
O2    O     O_2   0.739828 0.453154 0.704925 -0.483949
O3    O     O_3   0.785987 0.315456 0.679099 -0.585259
O4    O     O_3   0.863220 0.586720 0.534720 -0.440477
O5    O     O_3   0.450900 0.461390 0.429220 -0.493222
O6    O     O_2   0.599830 0.538970 0.641850 -0.485768
O7    O     O_3   0.410353 0.645118 0.677587 -0.597145
O8    O     O_2   0.558164 0.242780 0.523253 -0.491297
O9    O     O_3   0.477031 0.258637 0.633774 -0.594520
O10   O     O_2   0.493079 0.561504 0.848335 -0.540042
O11   O     O_2   0.069246 0.413958 0.874845 -0.602777
O12   O     O_3   0.373457 0.345340 0.350003 -0.639605
O13   O     O_2   0.254892 0.482833 0.169240 -0.552863
O14   O     O_2   0.783629 0.487940 0.115765 -0.607143
O15   O     O_3   0.368310 0.629070 0.432760 -0.429506
O16   O     O_2   0.215590 0.747742 0.468985 -0.475202
O17   O     O_3   0.984563 0.678535 0.631479 -0.644199
O18   O     O_3   0.373222 0.753588 0.374800 -0.627072
O19   O     O_2   0.210480 0.460990 0.358130 -0.420025
O20   O     O_3   0.959520 0.592090 0.401630 -0.447652
O21   O     O_2   0.109179 0.548648 0.296720 -0.407103
O22   O     O_2   0.414935 0.620158 0.315964 -0.581165
O23   O     O_3   0.924323 0.661261 0.300118 -0.643755
O24   O     O_2   0.989528 0.535721 0.619090 -0.560051
O25   O     O_2   0.101298 0.753108 0.772705 -0.498009
O26   O     O_2   0.630134 0.687983 0.783919 -0.468532
O27   O     O_2   0.750399 0.714454 0.390834 -0.619860
O28   O     O_2   0.593858 0.911252 0.309061 -0.562679
O29   O     O_2   0.534479 0.319939 0.813523 -0.567875
O30   O     O_2   0.158648 0.827347 0.658591 -0.576789
O31   O     O_2   0.231528 0.894373 0.443534 -0.531415
O32   O     O_2   0.357510 0.012662 0.420329 -0.531703
O33   O     O_2   0.751425 0.624188 0.902319 -0.507164
O34   O     O_2   0.699610 0.323860 0.460780 -0.464234
O35   O     O_2   0.123264 0.748502 0.194504 -0.561550
O36   O     O_2   0.017842 0.361557 0.279344 -0.551812
O37   O     O_3   0.947090 0.413280 0.465240 -0.450267
O38   O     O_3   0.442000 0.370930 0.567190 -0.487349
O39   O     O_3   0.842293 0.331017 0.368194 -0.589951
O40   O     O_3   0.359410 0.538600 0.570730 -0.456260
O41   O     O_3   0.850780 0.407910 0.598320 -0.436238
P1    P     P_3+3 0.935930 0.665430 0.555670 1.035959
P2    P     P_3+3 0.382700 0.439650 0.365620 1.075084
P3    P     P_3+3 0.948787 0.578979 0.324075 1.089897
P4    P     P_3+3 0.874370 0.334570 0.444280 1.014185
P5    P     P_3+3 0.863319 0.400475 0.672426 1.016915
P6    P     P_3+3 0.381884 0.723864 0.443290 1.017786
P7    P     P_3+3 0.412590 0.553579 0.646249 1.011092
P8    P     P_3+3 0.424755 0.277879 0.564504 0.927518

loop_
_geom_bond_atom_site_label_1
_geom_bond_atom_site_label_2
_ccdc_geom_bond_type
Ba2   O5    S    
C5    C81   A    
C53   C54   D    
C35   N1    Am   
C78   H14   S    
C1    H2    S    
C76   O32   D    
C28   H31   S    
C35   O10   D    
C17   C18   A    
C1    H58   S    
O12   P2    S    
C36   O11   D    
C67   H13   S    
C65   H60   S    
C57   H27   S    
Ba2   O41   S    
C52   C63   S    
C48   O13   D    
C5    C9    A    
C10   C11   A    
O34   P4    D    
C19   C74   S    
C24   C25   A    
O7    P7    S    
C23   O7    S    
C15   C24   A    
C4    H15   S    
C26   C27   A    
C34   H41   S    
C68   O24   D    
C16   H29   S    
O5    P2    S    
O17   P1    S    
C20   H48   S    
C51   C62   S    
C46   H24   S    
C25   C27   A    
C49   N2    Am   
C13   C14   A    
C2    H20   S    
C9    C22   A    
O41   P5    S    
C16   C79   S    
C54   C55   S    
Ba1   Ba2   S    
Ba2   O37   S    
C60   H53   S    
C12   O18   S    
C1    C72   S    
C80   H57   S    
C45   O3    S    
C74   H47   S    
C63   H37   S    
C64   H56   S    
C29   C30   A    
Ba1   O19   S    
O2    P5    D    
C6    C7    A    
C44   H25   S    
O20   P3    S    
C21   C22   A    
Ba1   O4    S    
O18   P6    S    
Ba1   O20   S    
C56   H8    S    
C52   C68   S    
C69   H35   S    
C25   C76   S    
Ba2   O4    S    
C64   C65   S    
C57   C58   A    
C73   O29   D    
C32   C58   A    
C39   C41   A    
Ba1   O1    S    
C79   H55   S    
C28   O39   S    
Ba1   O15   S    
O16   P6    D    
C65   H38   S    
C76   H50   S    
C4    O23   S    
Ba1   P1    S    
C34   H4    S    
C38   C43   A    
C4    C16   S    
C44   C46   A    
C69   O25   D    
C26   C29   A    
O8    P8    D    
C71   H39   S    
C40   H12   S    
C70   O26   D    
O1    P1    D    
C40   H1    S    
O15   P6    S    
C72   O28   D    
C67   H11   S    
C8    C9    A    
C37   C38   A    
C3    C5    A    
C58   P3    S    
C66   H32   S    
C50   H28   S    
C68   H33   S    
C63   C69   S    
C29   P6    S    
C32   C59   A    
C34   H5    S    
O23   P3    S    
C15   C81   A    
C75   H49   S    
C28   C80   S    
C41   C42   A    
C12   C71   S    
C60   C61   A    
C51   P5    S    
C21   H21   S    
C80   O36   D    
C43   C47   A    
C53   C62   D    
C77   O33   D    
Ba1   O5    S    
C31   P1    S    
C52   O17   S    
C71   O27   D    
C17   C26   A    
C23   H40   S    
C1    C12   S    
C37   C44   A    
C18   C31   A    
C42   C49   A    
C46   C47   A    
C53   P7    S    
C13   P4    S    
O4    P1    S    
C75   O31   D    
C11   C13   A    
C78   H16   S    
C45   H7    S    
O39   P4    S    
Ba2   O34   S    
C54   H52   S    
C50   C51   S    
C48   N2    Am   
C45   H43   S    
C7    C8    A    
Ba1   P2    S    
Ba2   O6    S    
C77   H51   S    
C3    H19   S    
C14   C20   A    
C62   H30   S    
C55   N1    S    
C33   C35   A    
C30   H18   S    
C16   H6    S    
C36   N1    Am   
C56   H10   S    
C74   O30   D    
C42   C43   A    
Ba2   P4    S    
C79   O35   D    
O40   P7    S    
O19   P2    D    
C39   C77   S    
C3    C6    A    
Ba1   O37   S    
C40   H23   S    
Ba1   O40   S    
C63   C70   S    
C41   H26   S    
C32   H54   S    
C57   C61   A    
C67   O9    S    
O21   P3    D    
C30   C31   A    
O6    P7    D    
C33   C38   A    
C6    H17   S    
Ba2   O40   S    
C8    C14   A    
C45   C56   S    
C2    C19   A    
C22   C24   A    
C36   C37   A    
C2    C81   A    
O3    P5    S    
C70   H36   S    
C49   O14   D    
C23   H3    S    
C15   C17   A    
C4    H22   S    
C64   H45   S    
C73   H44   S    
Ba2   O38   S    
C59   P2    S    
C12   C66   S    
C59   C60   A    
C33   C39   A    
C7    C10   A    
C72   H42   S    
C50   C55   D    
C23   C34   S    
O9    P8    S    
C66   O22   D    
C73   C78   S    
C27   C75   S    
C18   C19   A    
C47   C48   A    
C52   H34   S    
O38   P8    S    
C11   H46   S    
C20   C21   A    
C28   C40   S    
C67   C78   S    
O37   P4    S    
C65   H59   S    
C56   H9    S    
C61   N2    S    
C64   O12   S    
C10   P8    S    
