data_mof_unit_18649.cif
_audit_creation_date              2013-03-05T15:53:05-0500
_audit_creation_method            fapswitch 2.2
_symmetry_space_group_name_H-M    P1
_symmetry_Int_Tables_number       1
_space_group_crystal_system       triclinic
_cell_length_a                    9.98039
_cell_length_b                    10.715422
_cell_length_c                    15.413949
_cell_angle_alpha                 91.177706
_cell_angle_beta                  69.743257
_cell_angle_gamma                 88.425737
_cell_volume                      1545.09794876

loop_
_atom_site_label
_atom_site_type_symbol
_atom_site_description
_atom_site_fract_x
_atom_site_fract_y
_atom_site_fract_z
_atom_type_partial_charge
O1    O     O_R   0.385310 0.683220 0.500000 -0.506874
O2    O     O_R   0.614640 0.683250 0.500010 -0.558562
C1    C     C_R   0.500683 0.739752 0.491806 0.903055
O3    O     O_R   0.319840 0.499980 0.632240 -0.588225
O4    O     O_R   0.549160 0.500000 0.632250 -0.578154
C2    C     C_R   0.411432 0.496622 0.675182 0.911732
Zn1   Zn    Zn3+2 0.346880 0.499980 0.499990 1.029335
Zn2   Zn    Zn3+2 0.653120 0.500020 0.500010 1.020188
O5    O     O_R   0.385360 0.316750 0.499990 -0.588702
O6    O     O_R   0.614690 0.316780 0.500000 -0.635731
O7    O     O_R   0.450840 0.500000 0.367750 -0.619143
O8    O     O_R   0.680160 0.500020 0.367760 -0.572518
C3    C     C_R   0.507207 0.261002 0.490334 0.918573
C4    C     C_R   0.588916 0.494244 0.324539 0.911239
C5    C     C_R   0.359311 0.477573 0.774563 -0.081895
C6    C     C_R   0.640002 0.460006 0.225641 -0.134292
C7    C     C_R   0.167318 0.472832 0.922039 -0.175604
C8    C     C_R   0.213705 0.491279 0.827391 -0.176134
C9    C     C_R   0.457132 0.439460 0.815968 -0.257495
C10   C     C_R   0.412537 0.417542 0.910555 0.127035
C11   C     C_R   0.265869 0.438225 0.964304 0.148104
C12   C     C_R   0.511748 0.386078 0.954327 -0.002896
C13   C     C_R   0.467278 0.399946 0.051295 0.083049
C14   C     C_R   0.319912 0.409373 0.103184 -0.198888
C15   C     C_R   0.220366 0.426954 0.059807 -0.246850
C16   C     C_R   0.653306 0.342282 0.905353 -0.342992
C17   C     C_R   0.750816 0.322419 0.951190 0.501974
C18   C     C_R   0.714128 0.363492 0.043726 -0.028568
C19   C     C_R   0.572035 0.405394 0.093221 0.037931
C20   C     C_R   0.815623 0.363098 0.088182 -0.301309
C21   C     C_R   0.778563 0.409826 0.178979 0.597404
C22   C     C_R   0.539501 0.458962 0.181590 -0.254105
H1    H     H_    0.108586 0.438697 0.101435 0.215119
H2    H     H_    0.435113 0.501704 0.216801 0.155143
H3    H     H_    0.055236 0.489086 0.962342 0.151227
H4    H     H_    0.136199 0.518188 0.796004 0.170377
H5    H     H_    0.568971 0.431981 0.774045 0.159901
H6    H     H_    0.280283 0.401883 0.177509 0.166081
H7    H     H_    0.688683 0.316444 0.832596 0.159882
H8    H     H_    0.923160 0.325574 0.053317 0.189729
H9    H     H_    0.680617 0.884198 0.527040 0.224588
C23   C     C_R   0.283055 0.901800 0.419846 0.371679
C24   C     C_R   0.190716 0.991792 0.402070 0.483752
C25   C     C_R   0.240840 0.106300 0.369327 -0.388493
H10   H     H_    0.178397 0.168204 0.342240 0.197659
C26   C     C_R   0.369804 0.141996 0.373900 0.551464
C27   C     C_R   0.436119 0.071661 0.425414 -0.084488
C28   C     C_R   0.406807 0.943533 0.440120 -0.156937
C29   C     C_R   0.501468 0.873171 0.476485 -0.087443
C30   C     C_R   0.608008 0.933505 0.500060 -0.164631
H11   H     H_    0.688725 0.103849 0.527262 0.185371
C31   C     C_R   0.615903 0.060035 0.498638 -0.203790
C32   C     C_R   0.524219 0.129366 0.467259 -0.042461
H12   H     H_    0.944960 0.391382 0.377207 0.202241
C33   C     C_R   0.779388 0.627001 0.645766 0.658091
C34   C     C_R   0.799557 0.653831 0.728148 -0.324859
H13   H     H_    0.712049 0.692686 0.786958 0.198393
C35   C     C_R   0.935470 0.653130 0.730310 -0.440787
H14   H     H_    0.947027 0.686559 0.793729 0.179363
C36   C     C_R   0.052152 0.630931 0.647625 0.546106
C37   C     C_R   0.031083 0.562361 0.572311 0.054941
C38   C     C_R   0.887208 0.562234 0.571493 -0.034098
N1    N     N_R   0.856800 0.501200 0.500850 -0.100557
C39   C     C_R   0.966739 0.440453 0.432586 -0.097766
H15   H     H_    0.193247 0.393397 0.376409 0.178682
C40   C     C_R   0.109101 0.440774 0.432484 -0.136063
N2    N     N_R   0.142390 0.501280 0.500880 -0.078162
O9    O     O_3   0.241349 0.779690 0.423736 -0.579461
C41   C     C_3   0.261514 0.730971 0.333344 0.086267
H16   H     H_    0.281767 0.629791 0.334410 0.195357
H17   H     H_    0.357167 0.767590 0.279045 0.083306
C42   C     C_3   0.127279 0.748520 0.306657 -0.302528
H18   H     H_    0.029641 0.738264 0.368481 0.281828
H19   H     H_    0.125601 0.842447 0.278045 0.253589
C43   C     C_3   0.124915 0.654437 0.231931 -0.974094
H20   H     H_    0.223875 0.659582 0.170464 0.267673
H21   H     H_    0.031305 0.675529 0.210738 0.287670
H22   H     H_    0.115137 0.558892 0.259035 0.276615
F1    F     F_    0.052913 0.967059 0.414406 -0.677184
F2    F     F_    0.426019 0.248327 0.332517 -0.677604
F3    F     F_    0.665202 0.687043 0.637433 -0.664480
O10   O     O_3   0.181830 0.684197 0.634153 -0.575860
C44   C     C_3   0.186399 0.786232 0.692939 0.110770
H23   H     H_    0.301529 0.803560 0.677238 0.180369
H24   H     H_    0.148893 0.763511 0.767106 0.086080
C45   C     C_3   0.112823 0.905078 0.673540 -0.367930
H25   H     H_    0.110337 0.899834 0.602172 0.274710
H26   H     H_    0.000446 0.912794 0.721932 0.202607
C46   C     C_3   0.190657 0.022275 0.684036 -0.953377
H27   H     H_    0.194982 0.030296 0.755004 0.264800
H28   H     H_    0.134210 0.106341 0.670495 0.271842
H29   H     H_    0.301578 0.018627 0.633732 0.275544
F4    F     F_    0.876269 0.401705 0.221845 -0.705378
O11   O     O_3   0.885328 0.270805 0.903273 -0.653671
C47   C     C_3   0.875738 0.140105 0.892530 0.059296
H30   H     H_    0.958457 0.110091 0.826260 0.187630
H31   H     H_    0.772118 0.111170 0.887162 0.129650
C48   C     C_3   0.904524 0.071944 0.971077 -0.340622
H32   H     H_    0.007984 0.101102 0.975647 0.236040
H33   H     H_    0.818197 0.097174 0.037745 0.229078
C49   C     C_3   0.910290 0.930519 0.955475 -0.965828
H34   H     H_    0.808486 0.899108 0.949662 0.264723
H35   H     H_    0.927384 0.883957 0.014690 0.272666
H36   H     H_    0.000068 0.902321 0.891408 0.259967

loop_
_geom_bond_atom_site_label_1
_geom_bond_atom_site_label_2
_geom_bond_distance
_ccdc_geom_bond_type
C5    C8    1.400140 A    
C33   C34   1.378691 A    
C49   H34   1.110974 S    
C9    C10   1.396207 A    
C43   H20   1.110564 S    
C1    C29   1.453585 S    
C47   C48   1.532160 S    
C25   H10   1.082383 S    
C6    C21   1.404748 A    
Zn1   O7    1.940856 S    
C16   C17   1.400897 A    
C13   C19   1.408476 A    
C18   C19   1.412991 A    
C19   C22   1.393430 A    
C41   H16   1.098904 S    
O3    Zn1   1.961468 S    
C20   C21   1.395987 A    
O7    C4    1.305574 A    
C45   H26   1.110942 S    
C16   H7    1.080134 S    
C24   F1    1.356071 S    
C33   C38   1.422508 A    
C34   H13   1.083575 S    
C41   H17   1.116537 S    
O5    C3    1.299595 A    
C9    H5    1.078605 S    
C2    C5    1.457997 S    
C36   O10   1.379604 S    
C47   H30   1.102897 S    
O9    C41   1.422828 S    
C30   C31   1.360454 A    
C13   C14   1.409614 A    
O6    C3    1.293211 A    
C33   F3    1.339272 S    
C27   C32   1.406299 A    
C40   N2    1.366913 A    
C49   H35   1.110409 S    
C23   O9    1.380146 S    
C37   C38   1.440382 A    
C42   C43   1.521836 S    
C25   C26   1.377213 A    
C3    C32   1.438525 S    
H11   C31   1.084243 S    
C27   C28   1.418052 A    
C14   C15   1.387253 A    
O3    C2    1.301225 A    
C45   H25   1.109205 S    
C35   H14   1.078486 S    
C21   F4    1.356067 S    
O10   C44   1.417460 S    
C7    C11   1.401051 A    
C36   C37   1.440200 A    
O1    C1    1.284352 A    
C39   C40   1.420386 A    
C41   C42   1.539604 S    
C5    C9    1.395534 A    
C24   C25   1.376540 A    
C38   N1    1.384178 A    
C37   N2    1.399358 A    
C14   H6    1.080339 S    
C44   H23   1.111014 S    
Zn2   O8    1.961465 S    
C7    C8    1.389606 A    
C20   H8    1.081840 S    
C23   C28   1.454294 A    
C46   H29   1.109176 S    
C43   H21   1.110587 S    
C42   H19   1.109135 S    
C28   C29   1.456061 A    
C44   H24   1.107441 S    
C10   C12   1.415238 A    
C48   H32   1.111742 S    
C49   H36   1.108832 S    
C48   H33   1.110906 S    
C4    C6    1.465238 S    
C46   H28   1.110704 S    
C23   C24   1.411084 A    
H9    C30   1.083470 S    
C31   C32   1.380959 A    
Zn1   O5    1.990212 S    
C11   C15   1.391138 A    
C26   C27   1.413377 A    
O1    Zn1   2.010927 S    
O2    Zn2   1.990213 S    
O8    C4    1.303239 A    
C42   H18   1.112179 S    
C45   C46   1.529369 S    
O4    Zn2   1.940856 S    
C47   H31   1.117266 S    
C6    C22   1.392538 A    
C48   C49   1.525872 S    
C18   C20   1.405779 A    
O2    C1    1.319461 A    
C26   F2    1.355371 S    
C8    H4    1.080830 S    
O4    C2    1.304808 A    
H12   C39   1.081067 S    
C34   C35   1.368191 A    
H15   C40   1.079801 S    
O11   C47   1.416610 S    
C43   H22   1.107737 S    
Zn2   N1    2.037709 S    
Zn1   N2    2.035843 S    
N1    C39   1.366720 A    
C44   C45   1.538412 S    
C10   C11   1.418823 A    
Zn2   O6    2.010926 S    
C29   C30   1.405824 A    
C12   C16   1.413016 A    
C15   H1    1.079538 S    
C17   C18   1.402111 A    
C12   C13   1.407472 A    
C17   O11   1.381832 S    
C7    H3    1.082234 S    
C46   H27   1.111258 S    
C35   C36   1.407716 A    
C22   H2    1.077856 S    
