data_mof_unit_44865.cif
_audit_creation_date              2012-12-11T14:08:10-0500
_audit_creation_method            fapswitch 2.2
_symmetry_space_group_name_H-M    P1
_symmetry_Int_Tables_number       1
_space_group_crystal_system       triclinic
_cell_length_a                    10.878928
_cell_length_b                    10.930363
_cell_length_c                    18.606896
_cell_angle_alpha                 90.28611
_cell_angle_beta                  89.708767
_cell_angle_gamma                 60.511143
_cell_volume                      1925.82781935

loop_
_atom_site_label
_atom_site_type_symbol
_atom_type_description
_atom_site_fract_x
_atom_site_fract_y
_atom_site_fract_z
_atom_type_partial_charge
C1    C     C_R   0.235687 0.645752 0.608733 0.542958
C2    C     C_3   0.658712 0.562587 0.800851 -0.256514
C3    C     C_3   0.701402 0.676029 0.811722 0.055711
C4    C     C_3   0.671289 0.649753 0.675672 0.062499
C5    C     C_3   0.823731 0.618989 0.689822 -0.245269
C6    C     C_3   0.639299 0.547886 0.720494 -0.214881
C7    C     C_2   0.676954 0.153367 0.670225 -0.103761
C8    C     C_2   0.694909 0.161549 0.826783 -0.135958
C9    C     C_2   0.807539 0.100206 0.782266 -0.155974
C10   C     C_2   0.795687 0.130387 0.704673 -0.043664
C11   C     C_2   0.180343 0.662529 0.681618 -0.124520
C12   C     C_R   0.654980 0.623763 0.600466 0.540374
C13   C     C_2   0.196721 0.661716 0.839567 -0.123452
C14   C     C_2   0.193808 0.560180 0.800217 -0.179059
C15   C     C_2   0.221210 0.548362 0.722842 -0.177631
C16   C     C_2   0.648934 0.644219 0.316337 -0.108159
C17   C     C_2   0.629254 0.659811 0.157917 -0.117198
C18   C     C_2   0.694816 0.538250 0.194850 -0.037361
C19   C     C_2   0.663294 0.540477 0.271668 -0.149346
C20   C     C_2   0.680419 0.124360 0.337961 -0.112699
C21   C     C_2   0.680180 0.084352 0.185785 -0.099999
C22   C     C_2   0.632831 0.023698 0.232074 -0.172461
C23   C     C_R   0.629291 0.225928 0.601517 0.542926
C24   C     C_2   0.606782 0.070079 0.306964 -0.150651
C25   C     C_2   0.114948 0.687766 0.346372 -0.105154
C26   C     C_2   0.041437 0.725986 0.195292 -0.101465
C27   C     C_2   0.012267 0.833656 0.239845 -0.164808
C28   C     C_2   0.062505 0.812359 0.313850 -0.152894
C29   C     C_R   0.703603 0.102622 0.897672 0.552536
C30   C     C_R   0.724648 0.688981 0.887970 0.544864
C31   C     C_R   0.120089 0.705945 0.907633 0.560293
C32   C     C_R   0.701550 0.042064 0.111819 0.551172
C33   C     C_R   0.691703 0.687608 0.094561 0.524601
C34   C     C_R   0.215158 0.651893 0.404259 0.557756
C35   C     C_R   0.022089 0.749226 0.118982 0.557172
C36   C     C_R   0.642073 0.621731 0.392686 0.549296
C37   C     C_R   0.622078 0.220650 0.398168 0.552033
C38   C     C_3   0.584265 0.818132 0.780411 -0.229788
C39   C     C_3   0.567065 0.802687 0.699664 -0.246198
C40   C     C_3   0.841671 0.633879 0.770263 -0.220975
Cr1   Cr    Cr6+3 0.393010 0.398050 0.501480 1.014527
Cr2   Cr    Cr6+3 0.398820 0.707980 0.501630 1.010341
Cr3   Cr    Cr6+3 0.708140 0.393940 0.496850 0.999021
Cr4   Cr    Cr6+3 0.937950 0.938450 0.008940 0.981150
Cr5   Cr    Cr6+3 0.626180 0.937030 0.994750 1.003235
Cr6   Cr    Cr6+3 0.937790 0.625760 0.001410 1.012665
H1    H     H_    0.612514 0.902231 0.788765 0.141602
H2    H     H_    0.710424 0.436939 0.704057 0.143208
H3    H     H_    0.927913 0.531751 0.790034 0.135827
H4    H     H_    0.902199 0.510526 0.672116 0.137312
H5    H     H_    0.910172 0.022953 0.802640 0.148522
H6    H     H_    0.591585 0.238406 0.807148 0.099606
H7    H     H_    0.600309 0.134203 0.698398 0.088005
H8    H     H_    0.163128 0.488520 0.823923 0.148625
H9    H     H_    0.276020 0.443125 0.699766 0.157347
H10   H     H_    0.234668 0.728136 0.816240 0.100909
H11   H     H_    0.481753 0.851588 0.808442 0.125272
H12   H     H_    0.123327 0.767790 0.704602 0.101315
H13   H     H_    0.670652 0.444977 0.293627 0.148176
H14   H     H_    0.538424 0.750239 0.181944 0.095509
H15   H     H_    0.642646 0.740789 0.297223 0.081302
H16   H     H_    0.601772 0.948550 0.213460 0.124105
H17   H     H_    0.515340 0.074643 0.333414 0.153820
H18   H     H_    0.706321 0.164290 0.202219 0.112091
H19   H     H_    0.777801 0.110639 0.314084 0.093599
H20   H     H_    0.969307 0.939214 0.218656 0.142281
H21   H     H_    0.455893 0.829363 0.689446 0.143003
H22   H     H_    0.074915 0.896620 0.337606 0.150052
H23   H     H_    0.086796 0.618429 0.213312 0.113185
H24   H     H_    0.095858 0.605235 0.326609 0.100697
H25   H     H_    0.587915 0.877861 0.668980 0.113105
H26   H     H_    0.874591 0.714479 0.779071 0.126037
H27   H     H_    0.845996 0.693280 0.659199 0.114997
H28   H     H_    0.741467 0.459955 0.822205 0.131587
H29   H     H_    0.558493 0.591997 0.830324 0.112190
H30   H     H_    0.529100 0.570500 0.710838 0.126316
O1    O     O_R   0.507110 0.256280 0.580300 -0.526188
O2    O     O_R   0.524640 0.695370 0.425100 -0.489621
O3    O     O_R   0.735890 0.504390 0.415980 -0.514433
O4    O     O_R   0.690560 0.277820 0.422350 -0.508030
O5    O     O_3   0.499990 0.499990 0.499980 -0.241861
O6    O     O_R   0.089190 0.825870 0.932320 -0.521523
O7    O     O_R   0.819070 0.053960 0.931440 -0.505741
O8    O     O_R   0.607070 0.076440 0.916460 -0.510619
O9    O     O_R   0.647110 0.806550 0.917690 -0.507436
O10   O     O_R   0.837080 0.593860 0.915300 -0.531054
O11   O     O_R   0.064770 0.636080 0.932550 -0.490507
O12   O     O_R   0.280830 0.527190 0.577940 -0.499867
O13   O     O_R   0.068250 0.829200 0.092940 -0.513736
O14   O     O_R   0.799650 0.057040 0.080330 -0.522345
O15   O     O_R   0.586130 0.079760 0.077080 -0.491485
O16   O     O_R   0.627700 0.809630 0.066580 -0.518872
O17   O     O_R   0.816140 0.597180 0.075920 -0.504271
O18   O     O_R   0.045360 0.639170 0.081440 -0.487156
O19   O     O_3   0.833980 0.833750 0.001700 -0.284863
O20   O     O_R   0.261360 0.738990 0.584270 -0.524750
O21   O     O_R   0.532590 0.694780 0.574370 -0.507632
O22   O     O_R   0.744470 0.503750 0.577000 -0.535136
O23   O     O_R   0.698520 0.277230 0.571620 -0.500910
O24   O     O_R   0.498530 0.256920 0.419280 -0.510210
O25   O     O_R   0.272880 0.527780 0.428680 -0.496430
O26   O     O_R   0.252780 0.739630 0.423250 -0.513970
C41   C     C_3   0.920904 0.126045 0.666772 -0.367050
H31   H     H_    0.013941 0.084213 0.702668 0.108154
H32   H     H_    0.950570 0.055974 0.618820 0.144896
H33   H     H_    0.897206 0.232801 0.650504 0.159976
C42   C     C_R   0.809523 0.403070 0.164047 0.060607
C43   C     C_R   0.933716 0.321552 0.203306 -0.106148
C44   C     C_R   0.045835 0.200749 0.172737 -0.129365
C45   C     C_R   0.036290 0.161273 0.102415 -0.086582
C46   C     C_R   0.913205 0.240530 0.063205 -0.064750
C47   C     C_R   0.798253 0.357612 0.094678 -0.046291
H34   H     H_    0.945448 0.353178 0.256934 0.118639
H35   H     H_    0.141214 0.139189 0.203132 0.114220
H36   H     H_    0.124164 0.069222 0.078319 0.121191
H37   H     H_    0.906063 0.210056 0.008655 0.125926
H38   H     H_    0.702929 0.416636 0.063786 0.110328

loop_
_geom_bond_atom_site_label_1
_geom_bond_atom_site_label_2
_ccdc_geom_bond_type
C7    C10   D    
C23   O23   A    
C42   C47   A    
C46   C47   A    
C1    C11   S    
Cr3   O22   S    
Cr4   O7    S    
C25   C28   D    
C26   C27   D    
C34   O26   A    
C31   O6    A    
C6    H2    S    
Cr2   O20   S    
C8    C29   S    
C10   C41   S    
C28   H22   S    
Cr3   O23   S    
C29   O7    A    
Cr4   O6    S    
C16   C19   D    
Cr1   O1    S    
C38   C39   S    
C32   O15   A    
Cr3   O3    S    
C40   H3    S    
C43   C44   A    
C18   C19   S    
Cr5   O16   S    
C18   C42   S    
C21   H18   S    
C45   C46   A    
C11   C15   D    
C32   O14   A    
Cr6   O19   S    
C20   C24   D    
C3    C38   S    
C8    C9    D    
C9    H5    S    
C42   C43   A    
C46   H37   S    
C30   O10   A    
C11   H12   S    
C9    C10   S    
C8    H6    S    
C12   O22   A    
C2    H28   S    
C25   C34   S    
C13   H10   S    
C1    O12   A    
C21   C22   D    
C2    C6    S    
Cr2   O5    S    
C17   C33   S    
Cr2   O26   S    
C21   C32   S    
C37   O4    A    
C34   O25   A    
C31   O11   A    
C20   H19   S    
C29   O8    A    
C4    C6    S    
Cr2   O21   S    
C19   H13   S    
Cr3   O4    S    
C15   H9    S    
C43   H34   S    
C3    C30   S    
Cr5   O9    S    
C22   H16   S    
C38   H11   S    
Cr6   O18   S    
C4    C39   S    
Cr1   O5    S    
C17   C18   D    
C12   O21   A    
Cr1   O24   S    
C41   H32   S    
C23   O1    A    
C30   O9    A    
C38   H1    S    
C44   H35   S    
C35   O13   A    
C14   H8    S    
C3    C40   S    
Cr2   O2    S    
C24   H17   S    
Cr3   O5    S    
C22   C24   S    
C5    H4    S    
C33   O16   A    
Cr5   O8    S    
C4    C12   S    
C16   H15   S    
C7    H7    S    
Cr5   O19   S    
C27   C28   S    
Cr4   O14   S    
Cr6   O11   S    
C35   O18   A    
Cr1   O12   S    
C40   H26   S    
C39   H21   S    
C13   C31   S    
C4    C5    S    
C36   O3    A    
C33   O17   A    
C6    H30   S    
C2    C3    S    
C27   H20   S    
C36   O2    A    
C44   C45   A    
C16   C36   S    
C20   C37   S    
C47   H38   S    
Cr6   O17   S    
C1    O20   A    
C7    C23   S    
Cr1   O25   S    
C41   H33   S    
C5    H27   S    
Cr5   O15   S    
C2    H29   S    
C17   H14   S    
C26   C35   S    
C5    C40   S    
C41   H31   S    
Cr4   O19   S    
C26   H23   S    
C39   H25   S    
C14   C15   S    
C25   H24   S    
C13   C14   D    
C45   H36   S    
C37   O24   A    
Cr4   O13   S    
Cr6   O10   S    
