data_mof_unit_21793.cif
_audit_creation_date              2013-03-05T15:56:36-0500
_audit_creation_method            fapswitch 2.2
_symmetry_space_group_name_H-M    P1
_symmetry_Int_Tables_number       1
_space_group_crystal_system       triclinic
_cell_length_a                    6.928201
_cell_length_b                    14.571954
_cell_length_c                    15.964735
_cell_angle_alpha                 90.471393
_cell_angle_beta                  89.871655
_cell_angle_gamma                 90.142956
_cell_volume                      1611.69502077

loop_
_atom_site_label
_atom_site_type_symbol
_atom_site_description
_atom_site_fract_x
_atom_site_fract_y
_atom_site_fract_z
_atom_type_partial_charge
O1    O     O_R   0.361600 0.167310 0.164620 -0.607720
O2    O     O_R   0.638400 0.832690 0.835380 -0.607721
O3    O     O_R   0.691080 0.157570 0.338750 -0.570022
O4    O     O_R   0.308920 0.842430 0.661250 -0.570017
O5    O     O_R   0.861410 0.336420 0.339360 -0.574104
O6    O     O_R   0.138590 0.663580 0.660640 -0.574112
C1    C     C_R   0.521170 0.136234 0.368217 1.007125
C2    C     C_R   0.478830 0.863768 0.631785 1.007127
O7    O     O_R   0.691320 0.156280 0.165240 -0.611113
O8    O     O_R   0.308680 0.843720 0.834760 -0.611112
O9    O     O_R   0.861640 0.335130 0.164600 -0.593844
O10   O     O_R   0.138360 0.664870 0.835400 -0.593846
C3    C     C_R   0.522263 0.133785 0.136072 0.903949
C4    C     C_R   0.477737 0.866215 0.863928 0.903948
O11   O     O_R   0.361370 0.168600 0.339370 -0.564227
O12   O     O_R   0.638630 0.831400 0.660630 -0.564235
O13   O     O_3   0.527990 0.310540 0.251980 -0.263498
O14   O     O_3   0.472010 0.689460 0.748020 -0.263503
V1    V     V_3+5 0.802830 0.240980 0.251990 1.235293
V2    V     V_3+5 0.197170 0.759020 0.748010 1.235290
O15   O     O_R   0.191360 0.346160 0.165220 -0.608955
O16   O     O_R   0.808640 0.653840 0.834780 -0.608955
C5    C     C_R   0.022468 0.368297 0.136068 0.938164
C6    C     C_R   0.977531 0.631703 0.863932 0.938170
O17   O     O_R   0.191130 0.347440 0.338740 -0.593116
O18   O     O_R   0.808870 0.652560 0.661260 -0.593113
C7    C     C_R   0.022252 0.369920 0.367146 1.095341
C8    C     C_R   0.977747 0.630080 0.632854 1.095339
V3    V     V_3+5 0.302840 0.262750 0.251990 1.229272
V4    V     V_3+5 0.697160 0.737250 0.748010 1.229270
O19   O     O_3   0.027820 0.193180 0.251990 -0.261457
O20   O     O_3   0.972180 0.806820 0.748010 -0.261460
C9    C     C_3   0.933287 0.417463 0.525424 -0.198975
C10   C     C_3   0.066711 0.582537 0.474575 -0.198978
C11   C     C_3   0.104803 0.471215 0.562799 0.426349
C12   C     C_3   0.895196 0.528785 0.437200 0.426344
H1    H     H_    0.881330 0.349509 0.547070 0.196482
H2    H     H_    0.118668 0.650491 0.452929 0.196481
C13   C     C_3   0.988193 0.560507 0.563110 -0.303300
C14   C     C_3   0.011805 0.439493 0.436890 -0.303304
C15   C     C_3   0.813822 0.508179 0.524911 -0.226394
C16   C     C_3   0.186176 0.491821 0.475089 -0.226409
H3    H     H_    0.660411 0.515438 0.544055 0.177548
H4    H     H_    0.339587 0.484562 0.455944 0.177550
C17   C     C_R   0.820309 0.525612 0.968105 -0.128117
C18   C     C_R   0.179690 0.474388 0.031895 -0.128118
H5    H     H_    0.679363 0.544336 0.944693 0.126005
H6    H     H_    0.320637 0.455664 0.055307 0.126006
C19   C     C_R   0.831541 0.462685 0.033846 -0.088507
C20   C     C_R   0.168459 0.537315 0.966154 -0.088506
H7    H     H_    0.698605 0.434753 0.058840 0.126590
H8    H     H_    0.301395 0.565247 0.941160 0.126589
C21   C     C_R   0.011398 0.436140 0.066723 -0.119359
C22   C     C_R   0.988601 0.563860 0.933277 -0.119357
C23   C     C_R   0.652619 0.000623 0.442828 -0.183724
C24   C     C_R   0.347383 0.999382 0.557178 -0.183703
H9    H     H_    0.771046 0.999529 0.398385 0.193306
H10   H     H_    0.228959 0.000476 0.601622 0.193316
C25   C     C_R   0.647590 0.934287 0.505854 0.404277
C26   C     C_R   0.352411 0.065718 0.494152 0.404266
C27   C     C_R   0.492583 0.932963 0.564035 -0.358023
C28   C     C_R   0.507417 0.067042 0.435969 -0.358014
C29   C     C_R   0.679476 0.025532 0.032772 -0.127688
C30   C     C_R   0.320524 0.974468 0.967228 -0.127688
H11   H     H_    0.820265 0.044155 0.056919 0.121133
H12   H     H_    0.179735 0.955845 0.943081 0.121133
C31   C     C_R   0.668476 0.961499 0.967030 -0.120860
C32   C     C_R   0.331524 0.038501 0.032970 -0.120860
H13   H     H_    0.801330 0.932614 0.942738 0.122785
H14   H     H_    0.198670 0.067386 0.057262 0.122785
C33   C     C_R   0.488845 0.935070 0.933299 -0.116859
C34   C     C_R   0.511155 0.064930 0.066700 -0.116860
N1    N     N_R   0.222616 0.436878 0.631217 0.233814
O21   O     O_R   0.328768 0.364404 0.619625 -0.352230
O22   O     O_R   0.219541 0.476666 0.704396 -0.417753
N2    N     N_R   0.777384 0.563123 0.368781 0.233807
O23   O     O_R   0.671277 0.635612 0.380365 -0.352206
O24   O     O_R   0.780417 0.523319 0.295608 -0.417755
N3    N     N_R   0.798991 0.867675 0.507946 0.225554
O25   O     O_R   0.937496 0.877262 0.562164 -0.397233
O26   O     O_R   0.825707 0.814035 0.443467 -0.375907
N4    N     N_R   0.201013 0.132332 0.492064 0.225550
O27   O     O_R   0.062530 0.122760 0.437830 -0.397223
O28   O     O_R   0.174255 0.185948 0.556557 -0.375913

loop_
_geom_bond_atom_site_label_1
_geom_bond_atom_site_label_2
_geom_bond_distance
_ccdc_geom_bond_type
C29   H11   1.082744 S    
C23   C25   1.401326 A    
O13   V3    1.706687 S    
N1    O21   1.300186 A    
C10   C16   1.561479 S    
O4    C2    1.304526 A    
V1    O19   1.708908 S    
C13   C15   1.550431 S    
O9    V1    2.005213 S    
C20   C22   1.409436 A    
C30   C32   1.400675 A    
N2    O24   1.300124 A    
O3    C1    1.304526 A    
C6    C22   1.492524 S    
C23   C28   1.402796 A    
C26   C28   1.418517 A    
C4    C33   1.490274 S    
C30   C33   1.406524 A    
O9    C5    1.296646 A    
C11   C16   1.539899 S    
O7    C3    1.301595 A    
C12   N2    1.457644 S    
C9    C11   1.540274 S    
O5    C7    1.293364 A    
C26   N4    1.431558 S    
O7    V1    2.002545 S    
O6    C8    1.293366 A    
O8    V2    2.002544 S    
C19   H7    1.082722 S    
C20   H8    1.082722 S    
O3    V1    2.003359 S    
O14   V4    1.706689 S    
C31   C33   1.408666 A    
C2    C27   1.487485 S    
C14   C16   1.550429 S    
C2    O12   1.291792 A    
C15   H3    1.110342 S    
C12   C15   1.539899 S    
C16   H4    1.110342 S    
O11   V3    2.007364 S    
C18   H6    1.082745 S    
C17   H5    1.082745 S    
O17   V3    2.002973 S    
C29   C31   1.400675 A    
C25   C27   1.418512 A    
C9    C14   1.549157 S    
C10   C13   1.549159 S    
C12   C14   1.533241 S    
N2    O23   1.300174 A    
O8    C4    1.301595 A    
C25   N3    1.431553 S    
N3    O26   1.300575 A    
C8    C13   1.501417 S    
O15   V3    2.007477 S    
C9    H1    1.110330 S    
C24   C26   1.401332 A    
C31   H13   1.082785 S    
C30   H12   1.082744 S    
C11   C13   1.533242 S    
C1    C28   1.487490 S    
C17   C19   1.401785 A    
C7    C14   1.501414 S    
C32   C34   1.408666 A    
O10   V2    2.005215 S    
O1    V3    2.003457 S    
C5    C21   1.492524 S    
C17   C22   1.406483 A    
O18   V4    2.002971 S    
N4    O28   1.300581 A    
O15   C5    1.302544 A    
O16   C6    1.302543 A    
O1    C3    1.296982 A    
N1    O22   1.300129 A    
V2    O20   1.708908 S    
O10   C6    1.296646 A    
C11   N1    1.457635 S    
O16   V4    2.007480 S    
C10   H2    1.110330 S    
O5    V1    2.003065 S    
C3    C34   1.490275 S    
O17   C7    1.295762 A    
O6    V2    2.003065 S    
C18   C20   1.401785 A    
O18   C8    1.295762 A    
O2    V4    2.003460 S    
C9    C15   1.561482 S    
C23   H9    1.083578 S    
V3    O19   2.156067 S    
V4    O20   2.156064 S    
C19   C21   1.409436 A    
C18   C21   1.406483 A    
C1    O11   1.291792 A    
O13   V1    2.159362 S    
C10   C12   1.540273 S    
C24   H10   1.083576 S    
O14   V2    2.159363 S    
O2    C4    1.296980 A    
N3    O25   1.300240 A    
O4    V2    2.003356 S    
C29   C34   1.406523 A    
C32   H14   1.082786 S    
N4    O27   1.300271 A    
C24   C27   1.402791 A    
O12   V4    2.007362 S    
