data_mof_unit_29530.cif
_audit_creation_date              2012-12-10T20:34:53-0500
_audit_creation_method            fapswitch 2.2
_symmetry_space_group_name_H-M    P1
_symmetry_Int_Tables_number       1
_space_group_crystal_system       triclinic
_cell_length_a                    10.678361
_cell_length_b                    10.695212
_cell_length_c                    9.894684
_cell_angle_alpha                 90.768506
_cell_angle_beta                  89.823795
_cell_angle_gamma                 91.256513
_cell_volume                      1129.66775972

loop_
_atom_site_label
_atom_site_type_symbol
_atom_type_description
_atom_site_fract_x
_atom_site_fract_y
_atom_site_fract_z
_atom_type_partial_charge
C1    C     C_R   0.496743 0.260055 0.499275 0.936686
C2    C     C_3   0.879116 0.497520 0.496964 -0.055703
C3    C     C_3   0.934393 0.633166 0.464123 -0.038945
C4    C     C_3   0.928750 0.394039 0.395682 -0.200315
C5    C     C_R   0.453455 0.065102 0.616933 0.164226
C6    C     C_R   0.478376 0.128266 0.497250 -0.086213
C7    C     C_R   0.481522 0.062375 0.374198 -0.143912
C8    C     C_R   0.480738 0.933549 0.374868 -0.175959
C9    C     C_R   0.478398 0.871182 0.498908 -0.116940
C10   C     C_R   0.453197 0.937114 0.617928 0.172207
C11   C     C_3   0.516439 0.934951 0.752969 -0.233837
C12   C     C_R   0.258070 0.494934 0.500447 0.922638
C13   C     C_3   0.515823 0.076885 0.751734 -0.550802
C14   C     C_R   0.445623 0.402928 0.069461 0.132933
C15   C     C_R   0.569739 0.584636 0.074760 -0.079179
C16   C     C_R   0.573782 0.583262 0.930763 0.033782
C17   C     C_R   0.443043 0.405090 0.927543 0.183861
C18   C     C_3   0.309091 0.365193 0.922057 -0.555925
C19   C     C_3   0.312714 0.357039 0.075515 -0.251636
C20   C     C_R   0.496675 0.739940 0.500423 0.925609
C21   C     C_R   0.742149 0.497435 0.499292 0.850411
C22   C     C_3   0.068264 0.445552 0.640328 -0.149969
C23   C     C_3   0.925410 0.457287 0.639714 -0.498933
C24   C     C_3   0.079656 0.629352 0.481624 -0.457663
C25   C     C_3   0.071019 0.410277 0.383514 -0.390567
C26   C     C_3   0.121856 0.493071 0.501855 0.072652
H1    H     H_    0.104369 0.508299 0.722666 0.140755
H2    H     H_    0.131131 0.672162 0.395437 0.228436
H3    H     H_    0.491880 0.884272 0.279333 0.174799
H4    H     H_    0.612458 0.897422 0.747912 0.188898
H5    H     H_    0.453944 0.120060 0.828961 0.195595
H6    H     H_    0.623351 0.653484 0.132645 0.175214
H7    H     H_    0.295653 0.274147 0.868129 0.209148
H8    H     H_    0.878351 0.367191 0.668097 0.183371
H9    H     H_    0.897773 0.525202 0.719805 0.186120
H10   H     H_    0.096226 0.455679 0.286408 0.185937
H11   H     H_    0.114169 0.317052 0.382445 0.262222
N1    N     N_R   0.499150 0.499140 0.142800 -0.127633
N2    N     N_R   0.499150 0.499180 0.857150 -0.137694
O1    O     O_R   0.500020 0.316790 0.614690 -0.613701
O2    O     O_R   0.500000 0.316760 0.385350 -0.607508
O3    O     O_R   0.314800 0.500000 0.614670 -0.605238
O4    O     O_R   0.314790 0.499960 0.385330 -0.632480
O5    O     O_R   0.500000 0.683240 0.614650 -0.630004
O6    O     O_R   0.499980 0.683210 0.385310 -0.636131
O7    O     O_R   0.685210 0.500040 0.614670 -0.655696
O8    O     O_R   0.685200 0.500000 0.385330 -0.633293
Zn1   Zn    Zn3+2 0.500010 0.500020 0.653130 0.972418
Zn2   Zn    Zn3+2 0.499990 0.499980 0.346870 0.979168
C27   C     C_2   0.871206 0.386015 0.255753 0.459756
H12   H     H_    0.886989 0.459547 0.183098 0.095574
O9    O     O_2   0.807499 0.294677 0.222099 -0.551867
C28   C     C_2   0.898552 0.672432 0.321116 0.483687
H13   H     H_    0.801154 0.688858 0.297862 0.104250
O10   O     O_2   0.975902 0.687717 0.231269 -0.570799
H14   H     H_    0.494725 0.109320 0.278866 0.169056
C29   C     C_2   0.436429 0.880104 0.864099 0.473887
H15   H     H_    0.463232 0.896539 0.968636 0.066448
O11   O     O_2   0.343041 0.816160 0.838734 -0.548973
H16   H     H_    0.611368 0.120026 0.745467 0.217839
C30   C     C_2   0.103555 0.313516 0.677951 0.385349
H17   H     H_    0.065258 0.273691 0.769979 0.090866
O12   O     O_2   0.175287 0.251448 0.609709 -0.573996
C31   C     C_2   0.662672 0.671285 0.864487 0.327209
H18   H     H_    0.672909 0.673949 0.756982 0.150984
O13   O     O_2   0.728839 0.743183 0.931279 -0.590682
H19   H     H_    0.248734 0.441261 0.886718 0.216166
H20   H     H_    0.249539 0.423225 0.127569 0.196073
C32   C     C_2   0.303246 0.224208 0.122985 0.484977
H21   H     H_    0.364744 0.154049 0.080832 0.038440
O14   O     O_2   0.225620 0.193520 0.207473 -0.559261
H22   H     H_    0.111235 0.686430 0.570801 0.165807
C33   C     C_2   0.883824 0.730705 0.563781 0.331196
H23   H     H_    0.912620 0.730144 0.668811 0.117726
O15   O     O_2   0.811538 0.811184 0.528845 -0.592256
H24   H     H_    0.909406 0.301107 0.442266 0.201332

loop_
_geom_bond_atom_site_label_1
_geom_bond_atom_site_label_2
_ccdc_geom_bond_type
C11   C13   S    
C33   H23   S    
C4    C25   S    
C15   H6    S    
O8    Zn2   S    
N1    Zn2   S    
C28   H13   S    
C8    H3    S    
C24   C26   S    
C12   O4    A    
C5    C6    A    
C29   O11   D    
C15   C16   A    
C32   O14   D    
C18   C19   S    
C17   N2    A    
C30   O12   D    
C12   O3    A    
C1    O1    A    
C25   H11   S    
C11   H4    S    
C8    C9    A    
C27   O9    D    
C9    C10   A    
C5    C13   S    
C20   O6    A    
C33   O15   D    
C14   C17   A    
C3    C24   S    
C32   H21   S    
C7    H14   S    
O2    Zn2   S    
C20   O5    A    
C27   H12   S    
C28   O10   D    
O7    Zn1   S    
C1    C6    S    
C7    C8    A    
C13   H16   S    
O4    Zn2   S    
C25   H10   S    
C18   H19   S    
C12   C26   S    
C31   O13   D    
C2    C4    S    
C15   N1    A    
C14   N1    A    
C9    C20   S    
O6    Zn2   S    
C23   H8    S    
C2    C21   S    
C17   C18   S    
C19   H20   S    
O3    Zn1   S    
C1    O2    A    
C23   H9    S    
C22   H1    S    
C19   C32   S    
C24   H22   S    
C21   O7    A    
O1    Zn1   S    
C14   C19   S    
C13   H5    S    
C24   H2    S    
C6    C7    A    
C31   H18   S    
C2    C3    S    
C25   C26   S    
C5    C10   A    
C22   C30   S    
C3    C28   S    
C29   H15   S    
C30   H17   S    
C3    C33   S    
C18   H7    S    
C4    H24   S    
C10   C11   S    
C16   N2    A    
C22   C26   S    
C4    C27   S    
C2    C23   S    
C22   C23   S    
C16   C31   S    
C11   C29   S    
O5    Zn1   S    
N2    Zn1   S    
C21   O8    A    
