data_mof_unit_62514.cif
_audit_creation_date              2012-10-26T17:22:14-0400
_audit_creation_method            fapswitch 2.2
_symmetry_space_group_name_H-M    P1
_symmetry_Int_Tables_number       1
_space_group_crystal_system       monoclinic
_cell_length_a                    21.776962
_cell_length_b                    21.776962
_cell_length_c                    18.359822
_cell_angle_alpha                 90.0
_cell_angle_beta                  90.0
_cell_angle_gamma                 90.000048
_cell_volume                      8706.88990369

loop_
_atom_site_label
_atom_site_type_symbol
_atom_type_description
_atom_site_fract_x
_atom_site_fract_y
_atom_site_fract_z
_atom_type_partial_charge
C1    C     C_R   1.000000 0.381330 0.500000 0.551386
C2    C     C_R   0.500000 0.000000 0.360312 0.546750
C3    C     C_1   0.815227 0.083302 0.592217 0.222426
C4    C     C_1   0.083302 0.815227 0.407784 0.222425
C5    C     C_1   0.184773 0.083302 0.407784 0.222425
C6    C     C_1   0.916698 0.184773 0.407783 0.222426
C7    C     C_1   0.815227 0.916698 0.407783 0.222426
C8    C     C_1   0.583301 0.684773 0.092217 0.222425
C9    C     C_1   0.684773 0.416698 0.092216 0.222425
C10   C     C_1   0.416698 0.315227 0.092216 0.222425
C11   C     C_1   0.315227 0.583302 0.092217 0.222426
C12   C     C_1   0.583302 0.315227 0.907784 0.222425
C13   C     C_R   0.000000 0.500000 0.639688 0.546750
C14   C     C_1   0.684773 0.583302 0.907783 0.222425
C15   C     C_1   0.416698 0.684773 0.907783 0.222426
C16   C     C_1   0.315227 0.416698 0.907783 0.222426
C17   C     C_R   0.500000 0.000000 0.639688 0.546751
C18   C     C_R   0.500000 0.000000 0.860312 0.546751
C19   C     C_R   1.000000 0.500000 0.860312 0.546750
C20   C     C_R   0.500000 0.000000 0.139688 0.546750
C21   C     C_R   0.000000 0.500000 0.139688 0.546751
C22   C     C_1   0.000000 0.500000 0.282682 -0.052192
C23   C     C_1   0.500000 0.000000 0.282682 -0.052192
C24   C     C_1   0.000000 0.500000 0.717318 -0.052192
C25   C     C_R   0.381330 1.000000 0.500000 0.551386
C26   C     C_1   0.500000 0.000000 0.717318 -0.052192
C27   C     C_1   0.500000 0.000000 0.782682 -0.052192
C28   C     C_1   0.000000 0.500000 0.782682 -0.052192
C29   C     C_1   0.500000 0.000000 0.217318 -0.052192
C30   C     C_1   0.000000 0.500000 0.217318 -0.052192
C31   C     C_R   0.036945 0.282459 0.550955 -0.036219
C32   C     C_R   0.282459 0.963054 0.550954 -0.036219
C33   C     C_R   0.963055 0.717541 0.550954 -0.036219
C34   C     C_R   0.717541 0.036946 0.550954 -0.036219
C35   C     C_R   0.036946 0.717541 0.449046 -0.036219
C36   C     C_R   0.000000 0.618670 0.500000 0.551386
C37   C     C_R   0.282459 0.036945 0.449046 -0.036219
C38   C     C_R   0.963054 0.282459 0.449045 -0.036219
C39   C     C_R   0.717541 0.963055 0.449045 -0.036219
C40   C     C_R   0.536945 0.782459 0.050954 -0.036219
C41   C     C_R   0.782459 0.463054 0.050954 -0.036219
C42   C     C_R   0.463054 0.217541 0.050954 -0.036219
C43   C     C_R   0.217541 0.536946 0.050954 -0.036219
C44   C     C_R   0.536946 0.217541 0.949046 -0.036219
C45   C     C_R   0.782459 0.536945 0.949046 -0.036219
C46   C     C_R   0.463054 0.782459 0.949045 -0.036219
C47   C     C_R   0.618670 0.000000 0.500000 0.551386
C48   C     C_R   0.217541 0.463055 0.949045 -0.036219
C49   C     C_R   0.039023 0.218083 0.548159 -0.015813
C50   C     C_R   0.218082 0.960977 0.548159 -0.015812
C51   C     C_R   0.960977 0.781917 0.548159 -0.015813
C52   C     C_R   0.781918 0.039023 0.548159 -0.015812
C53   C     C_R   0.039023 0.781917 0.451841 -0.015812
C54   C     C_R   0.218083 0.039023 0.451841 -0.015813
C55   C     C_R   0.960977 0.218082 0.451841 -0.015812
C56   C     C_R   0.781917 0.960977 0.451841 -0.015812
C57   C     C_R   0.539023 0.718083 0.048159 -0.015813
C58   C     C_R   0.500000 0.881330 1.000000 0.551386
C59   C     C_R   0.718082 0.460977 0.048159 -0.015812
C60   C     C_R   0.460977 0.281917 0.048159 -0.015813
C61   C     C_R   0.281917 0.539023 0.048159 -0.015812
C62   C     C_R   0.539023 0.281917 0.951841 -0.015812
C63   C     C_R   0.718083 0.539023 0.951841 -0.015813
C64   C     C_R   0.460977 0.718082 0.951841 -0.015812
C65   C     C_R   0.281917 0.460977 0.951841 -0.015812
C66   C     C_R   1.000000 0.186106 0.500000 -0.014763
C67   C     C_R   0.186106 1.000000 0.500000 -0.014763
C68   C     C_R   0.000000 0.813894 0.500000 -0.014763
C69   C     C_R   0.881330 0.500000 0.000000 0.551386
C70   C     C_R   0.813894 0.000000 0.500000 -0.014763
C71   C     C_R   0.500000 0.686106 0.000000 -0.014763
C72   C     C_R   0.686106 0.500000 0.000000 -0.014763
C73   C     C_R   0.500000 0.313894 0.000000 -0.014763
C74   C     C_R   0.313894 0.500000 0.000000 -0.014763
C75   C     C_R   0.880995 0.000000 0.500000 0.549971
C76   C     C_R   1.000000 0.119005 0.500000 0.549970
C77   C     C_R   0.119005 0.000000 0.500000 0.549970
C78   C     C_R   0.000000 0.880995 0.500000 0.549971
C79   C     C_R   0.380995 0.500000 0.000000 0.549971
C80   C     C_R   0.500000 0.118670 1.000000 0.551386
C81   C     C_R   0.500000 0.619005 0.000000 0.549970
C82   C     C_R   0.619005 0.500000 0.000000 0.549970
C83   C     C_R   0.500000 0.380995 0.000000 0.549971
C84   C     C_R   1.000000 0.314354 0.500000 0.035078
C85   C     C_R   0.314354 1.000000 0.500000 0.035078
C86   C     C_R   0.000000 0.685646 0.500000 0.035078
C87   C     C_R   0.685646 0.000000 0.500000 0.035078
C88   C     C_R   0.500000 0.814354 0.000000 0.035078
C89   C     C_R   0.814354 0.500000 0.000000 0.035078
C90   C     C_R   0.500000 0.185645 0.000000 0.035078
C91   C     C_R   0.118670 0.500000 0.000000 0.551386
C92   C     C_R   0.185645 0.500000 0.000000 0.035078
C93   C     C_3   0.073001 0.317356 0.608597 -0.361799
C94   C     C_3   0.317356 0.926998 0.608596 -0.361800
C95   C     C_3   0.926998 0.682644 0.608596 -0.361800
C96   C     C_3   0.682644 0.073001 0.608597 -0.361801
C97   C     C_3   0.073002 0.682644 0.391404 -0.361800
C98   C     C_3   0.317356 0.073001 0.391403 -0.361800
C99   C     C_3   0.926999 0.317356 0.391403 -0.361801
C100  C     C_3   0.682644 0.926999 0.391403 -0.361799
C101  C     C_3   0.573001 0.817356 0.108597 -0.361799
C102  C     C_R   0.000000 0.500000 0.360312 0.546751
C103  C     C_3   0.817356 0.426998 0.108596 -0.361800
C104  C     C_3   0.426998 0.182644 0.108596 -0.361800
C105  C     C_3   0.182644 0.573001 0.108597 -0.361801
C106  C     C_3   0.573002 0.182644 0.891404 -0.361800
C107  C     C_3   0.817356 0.573002 0.891403 -0.361800
C108  C     C_3   0.426999 0.817356 0.891403 -0.361801
C109  C     C_3   0.182644 0.426999 0.891403 -0.361799
C110  C     C_1   0.083301 0.184773 0.592217 0.222425
C111  C     C_1   0.184773 0.916698 0.592216 0.222425
C112  C     C_1   0.916698 0.815227 0.592216 0.222425
Cu1   Cu    Cu3+1 0.938190 0.500000 0.500000 0.946758
Cu2   Cu    Cu3+1 0.000000 0.000000 0.427470 1.052603
Cu3   Cu    Cu3+1 0.500000 0.500000 0.072530 1.052603
Cu4   Cu    Cu3+1 0.500000 0.500000 0.927470 1.052603
Cu5   Cu    Cu3+1 0.500000 0.061810 0.500000 0.946758
Cu6   Cu    Cu3+1 0.061810 0.500000 0.500000 0.946758
Cu7   Cu    Cu3+1 0.500000 0.938190 0.500000 0.946758
Cu8   Cu    Cu3+1 0.438190 0.000000 0.000000 0.946758
Cu9   Cu    Cu3+1 0.000000 0.561810 0.000000 0.946758
Cu10  Cu    Cu3+1 0.561810 0.000000 0.000000 0.946758
Cu11  Cu    Cu3+1 1.000000 0.438190 0.000000 0.946758
Cu12  Cu    Cu3+1 0.000000 0.000000 0.572530 1.052603
H1    H     H_    0.089280 0.287716 0.653711 0.140092
H2    H     H_    0.712284 0.089284 0.653709 0.140093
H3    H     H_    0.660492 0.113706 0.583469 0.162633
H4    H     H_    0.647103 0.043493 0.634250 0.137591
H5    H     H_    0.089284 0.712284 0.346292 0.140092
H6    H     H_    0.113706 0.660492 0.416531 0.162633
H7    H     H_    0.043494 0.647103 0.365751 0.137591
H8    H     H_    0.287716 0.089280 0.346290 0.140092
H9    H     H_    0.339505 0.113708 0.416530 0.162631
H10   H     H_    0.352899 0.043495 0.365753 0.137592
H11   H     H_    0.910716 0.287716 0.346291 0.140093
H12   H     H_    0.113708 0.339505 0.583470 0.162631
H13   H     H_    0.886294 0.339508 0.416531 0.162633
H14   H     H_    0.956506 0.352897 0.365750 0.137591
H15   H     H_    0.712284 0.910720 0.346289 0.140092
H16   H     H_    0.660495 0.886292 0.416530 0.162631
H17   H     H_    0.647101 0.956505 0.365753 0.137592
H18   H     H_    0.589280 0.787716 0.153711 0.140092
H19   H     H_    0.613708 0.839505 0.083470 0.162631
H20   H     H_    0.543495 0.852899 0.134247 0.137592
H21   H     H_    0.787716 0.410716 0.153708 0.140092
H22   H     H_    0.839508 0.386294 0.083469 0.162633
H23   H     H_    0.043495 0.352899 0.634247 0.137592
H24   H     H_    0.852897 0.456506 0.134249 0.137591
H25   H     H_    0.410720 0.212284 0.153710 0.140092
H26   H     H_    0.386292 0.160495 0.083470 0.162631
H27   H     H_    0.456505 0.147101 0.134247 0.137592
H28   H     H_    0.212284 0.589284 0.153709 0.140093
H29   H     H_    0.160492 0.613706 0.083469 0.162633
H30   H     H_    0.147103 0.543493 0.134249 0.137591
H31   H     H_    0.589284 0.212284 0.846292 0.140092
H32   H     H_    0.613706 0.160492 0.916531 0.162633
H33   H     H_    0.543494 0.147103 0.865751 0.137591
H34   H     H_    0.287716 0.910716 0.653708 0.140092
H35   H     H_    0.787716 0.589280 0.846290 0.140092
H36   H     H_    0.839505 0.613708 0.916530 0.162631
H37   H     H_    0.852899 0.543495 0.865753 0.137592
H38   H     H_    0.410716 0.787716 0.846291 0.140093
H39   H     H_    0.386294 0.839508 0.916531 0.162633
H40   H     H_    0.456506 0.852897 0.865750 0.137591
H41   H     H_    0.212284 0.410720 0.846289 0.140092
H42   H     H_    0.160495 0.386292 0.916530 0.162631
H43   H     H_    0.147101 0.456505 0.865753 0.137592
H44   H     H_    0.339508 0.886294 0.583468 0.162633
H45   H     H_    0.352897 0.956506 0.634249 0.137591
H46   H     H_    0.910720 0.712284 0.653710 0.140092
H47   H     H_    0.886292 0.660495 0.583470 0.162631
H48   H     H_    0.956505 0.647101 0.634247 0.137592
N1    N     N_1   0.118650 0.158175 0.627170 -0.280214
N2    N     N_1   0.658175 0.381349 0.127169 -0.280214
N3    N     N_1   0.381350 0.341825 0.127169 -0.280214
N4    N     N_1   0.341825 0.618650 0.127170 -0.280214
N5    N     N_1   0.618651 0.341825 0.872831 -0.280214
N6    N     N_1   0.658175 0.618650 0.872831 -0.280214
N7    N     N_1   0.381350 0.658175 0.872830 -0.280214
N8    N     N_1   0.341825 0.381350 0.872830 -0.280214
N9    N     N_1   0.158174 0.881349 0.627169 -0.280214
N10   N     N_1   0.881350 0.841825 0.627169 -0.280214
N11   N     N_1   0.841825 0.118650 0.627170 -0.280214
N12   N     N_1   0.118651 0.841825 0.372831 -0.280214
N13   N     N_1   0.158175 0.118650 0.372831 -0.280214
N14   N     N_1   0.881350 0.158175 0.372830 -0.280214
N15   N     N_1   0.841825 0.881350 0.372830 -0.280214
N16   N     N_1   0.618650 0.658175 0.127170 -0.280214
O1    O     O_R   0.947800 0.409840 0.500040 -0.511864
O2    O     O_R   0.909840 0.552200 0.000040 -0.511863
O3    O     O_R   0.552200 0.090160 0.000040 -0.511864
O4    O     O_R   0.090160 0.447800 0.000040 -0.511862
O5    O     O_R   0.447800 0.090160 0.999960 -0.511863
O6    O     O_R   0.909840 0.447800 0.999960 -0.511864
O7    O     O_R   0.552200 0.909840 0.999960 -0.511862
O8    O     O_R   0.090160 0.552200 0.999960 -0.511864
O9    O     O_R   0.947800 0.500020 0.394230 -0.503919
O10   O     O_R   0.500020 0.052200 0.394230 -0.503919
O11   O     O_R   0.052200 0.499980 0.394230 -0.503920
O12   O     O_R   0.409840 0.052200 0.500040 -0.511863
O13   O     O_R   0.499980 0.947800 0.394230 -0.503919
O14   O     O_R   0.947800 0.499980 0.605770 -0.503919
O15   O     O_R   0.500020 0.947800 0.605770 -0.503919
O16   O     O_R   0.052200 0.500020 0.605770 -0.503919
O17   O     O_R   0.499980 0.052200 0.605770 -0.503920
O18   O     O_R   0.447800 0.000020 0.894230 -0.503919
O19   O     O_R   0.000020 0.552200 0.894230 -0.503919
O20   O     O_R   0.552200 0.999980 0.894230 -0.503920
O21   O     O_R   0.999980 0.447800 0.894230 -0.503919
O22   O     O_R   0.447800 0.999980 0.105770 -0.503919
O23   O     O_R   0.052200 0.590160 0.500040 -0.511864
O24   O     O_R   0.000020 0.447800 0.105770 -0.503919
O25   O     O_R   0.552200 0.000020 0.105770 -0.503919
O26   O     O_R   0.999980 0.552200 0.105770 -0.503920
O27   O     O_R   0.909720 0.000020 0.561240 -0.497558
O28   O     O_R   0.000020 0.090280 0.561240 -0.497558
O29   O     O_R   0.090280 0.999980 0.561240 -0.497558
O30   O     O_R   0.999980 0.909720 0.561240 -0.497558
O31   O     O_R   0.909720 0.999980 0.438760 -0.497558
O32   O     O_R   0.000020 0.909720 0.438760 -0.497558
O33   O     O_R   0.090280 0.000020 0.438760 -0.497558
O34   O     O_R   0.590160 0.947800 0.500040 -0.511862
O35   O     O_R   0.999980 0.090280 0.438760 -0.497558
O36   O     O_R   0.409720 0.500020 0.061240 -0.497558
O37   O     O_R   0.500020 0.590280 0.061240 -0.497558
O38   O     O_R   0.590280 0.499980 0.061240 -0.497558
O39   O     O_R   0.499980 0.409720 0.061240 -0.497558
O40   O     O_R   0.409720 0.499980 0.938760 -0.497558
O41   O     O_R   0.500020 0.409720 0.938760 -0.497558
O42   O     O_R   0.590280 0.500020 0.938760 -0.497558
O43   O     O_R   0.499980 0.590280 0.938760 -0.497558
O44   O     O_R   0.947800 0.590160 0.499960 -0.511863
O45   O     O_R   0.409840 0.947800 0.499960 -0.511864
O46   O     O_R   0.052200 0.409840 0.499960 -0.511862
O47   O     O_R   0.590160 0.052200 0.499960 -0.511864
O48   O     O_R   0.447800 0.909840 0.000040 -0.511864

loop_
_geom_bond_atom_site_label_1
_geom_bond_atom_site_label_2
_ccdc_geom_bond_type
C41   C89   A    
C51   C112  S    
C15   N7    T    
Cu4   O41   S    
C35   C53   A    
C60   C73   A    
C105  H29   S    
C67   C77   S    
C39   C87   A    
Cu10  O7    S    
C93   H12   S    
C77   O29   A    
C3    N11   T    
C107  H36   S    
C79   O36   A    
C83   O39   A    
C8    N16   T    
C1    C84   S    
C80   O5    A    
C82   O38   A    
C98   H9    S    
C43   C61   A    
C11   N4    T    
C81   O37   A    
Cu4   O40   S    
C17   C26   S    
C23   C29   T    
C104  H27   S    
C37   C85   A    
C34   C96   S    
C97   H6    S    
Cu3   O37   S    
Cu5   O17   S    
C100  H17   S    
Cu5   Cu7   S    
C94   H45   S    
C4    C53   S    
C101  H20   S    
Cu5   O47   S    
C91   O4    A    
Cu3   Cu4   S    
C58   O7    A    
C111  N9    T    
C56   C70   A    
C13   O14   A    
C96   H4    S    
C18   O20   A    
C43   C105  S    
C64   C71   A    
C104  H26   S    
C17   O15   A    
C53   C68   A    
Cu6   O46   S    
C69   O6    A    
Cu7   O13   S    
C109  H43   S    
C78   O32   A    
C40   C101  S    
Cu7   O45   S    
C38   C55   A    
C107  H37   S    
C46   C108  S    
C15   C64   S    
C62   C73   A    
C93   H23   S    
C20   O22   A    
Cu2   O35   S    
C14   C63   S    
C45   C89   A    
C95   H48   S    
Cu2   O31   S    
Cu9   O8    S    
C47   O47   A    
C59   C72   A    
C34   C87   A    
Cu2   Cu12  S    
C75   O27   A    
C12   N5    T    
C82   O42   A    
C25   O45   A    
C94   H34   S    
C19   O21   A    
C19   O19   A    
C2    O13   A    
C7    C56   S    
C31   C49   A    
C6    C55   S    
C69   C89   S    
Cu6   O11   S    
C33   C95   S    
Cu9   O26   S    
C37   C98   S    
C13   C24   S    
Cu8   Cu10  S    
C103  H24   S    
C46   C88   A    
C20   C29   S    
C76   O35   A    
C68   C78   S    
C108  H39   S    
Cu12  O30   S    
C49   C66   A    
C96   H2    S    
Cu10  O20   S    
Cu3   O36   S    
Cu10  O3    S    
Cu7   O15   S    
C97   H7    S    
Cu3   O38   S    
C102  O9    A    
C94   H44   S    
C91   C92   S    
Cu10  O25   S    
C112  N10   T    
C54   C67   A    
C83   O41   A    
C44   C62   A    
C31   C93   S    
C108  H38   S    
C45   C63   A    
Cu7   O34   S    
C57   C71   A    
C65   C74   A    
C41   C103  S    
C50   C67   A    
C46   C64   A    
Cu6   O23   S    
C42   C90   A    
C47   C87   S    
C104  H25   S    
C10   C60   S    
C33   C86   A    
Cu3   O39   S    
C100  H15   S    
C8    C57   S    
C12   C62   S    
C101  H18   S    
C76   O28   A    
C32   C94   S    
C39   C56   A    
C75   O31   A    
C1    O46   A    
C36   O44   A    
C66   C76   S    
Cu11  O24   S    
C2    C23   S    
C25   C85   S    
C26   C27   T    
C99   H11   S    
C9    N2    T    
C99   H14   S    
Cu1   O14   S    
C4    N12   T    
C19   C28   S    
C32   C50   A    
C14   N6    T    
Cu5   O12   S    
C109  H41   S    
C37   C54   A    
C43   C92   A    
C77   O33   A    
C47   O34   A    
C106  H32   S    
C74   C79   S    
C100  H16   S    
Cu4   O43   S    
C81   O43   A    
C48   C65   A    
C80   O3    A    
Cu11  O6    S    
Cu9   O19   S    
C42   C60   A    
C79   O40   A    
Cu9   O2    S    
C55   C66   A    
C44   C90   A    
C103  H21   S    
Cu1   O44   S    
Cu12  O28   S    
C110  N1    T    
C7    N15   T    
C10   N3    T    
C105  H28   S    
C6    N14   T    
Cu12  O29   S    
C40   C57   A    
C22   C30   T    
Cu4   O42   S    
C2    O10   A    
C34   C52   A    
Cu6   O16   S    
C18   C27   S    
C24   C28   T    
Cu2   O32   S    
C38   C99   S    
C11   C61   S    
C42   C104  S    
C69   O2    A    
C107  H35   S    
C3    C52   S    
C13   O16   A    
C44   C106  S    
C61   C74   A    
C33   C51   A    
C106  H33   S    
Cu1   O1    S    
C21   C30   S    
C98   H10   S    
C58   O48   A    
Cu8   O5    S    
C22   C102  S    
C21   O24   A    
C5    N13   T    
C18   O18   A    
C36   C86   S    
C20   O25   A    
C105  H30   S    
Cu8   O22   S    
C17   O17   A    
Cu8   O18   S    
C25   O12   A    
C102  O11   A    
Cu8   O48   S    
C91   O8    A    
C101  H19   S    
C40   C88   A    
C39   C100  S    
C95   H47   S    
C72   C82   S    
C32   C85   A    
Cu11  O21   S    
C38   C84   A    
C50   C111  S    
C108  H40   S    
C48   C109  S    
C5    C54   S    
C51   C68   A    
Cu2   O33   S    
C80   C90   S    
C95   H46   S    
C93   H1    S    
Cu9   Cu11  S    
C52   C70   A    
C109  H42   S    
C31   C84   A    
C36   O23   A    
C97   H5    S    
Cu1   Cu6   S    
C16   N8    T    
C63   C72   A    
C96   H3    S    
C106  H31   S    
C48   C92   A    
C41   C59   A    
C98   H8    S    
C70   C75   S    
Cu1   O9    S    
C21   O26   A    
C99   H13   S    
C16   C65   S    
C9    C59   S    
Cu11  O4    S    
C35   C97   S    
C58   C88   S    
C35   C86   A    
C73   C83   S    
C78   O30   A    
Cu5   O10   S    
C45   C107  S    
C103  H22   S    
C49   C110  S    
C71   C81   S    
Cu12  O27   S    
C1    O1    A    
