data_mof_unit_30449.cif
_audit_creation_date              2012-12-11T14:52:38-0500
_audit_creation_method            fapswitch 2.2
_symmetry_space_group_name_H-M    P1
_symmetry_Int_Tables_number       1
_space_group_crystal_system       triclinic
_cell_length_a                    8.241133
_cell_length_b                    15.155367
_cell_length_c                    26.953857
_cell_angle_alpha                 96.792918
_cell_angle_beta                  93.34901
_cell_angle_gamma                 80.151817
_cell_volume                      3291.06586148

loop_
_atom_site_label
_atom_site_type_symbol
_atom_type_description
_atom_site_fract_x
_atom_site_fract_y
_atom_site_fract_z
_atom_type_partial_charge
Ba1   Ba    Ba6+2 0.860900 0.457020 0.523210 1.806913
Ba2   Ba    Ba6+2 0.328940 0.542910 0.476780 1.794049
C1    C     C_3   0.571998 0.160644 0.668418 -0.196207
C2    C     C_3   0.533967 0.263468 0.665219 0.251987
C3    C     C_3   0.549514 0.683558 0.632535 0.343659
C4    C     C_3   0.614590 0.711885 0.684984 -0.304019
C5    C     C_3   0.930557 0.849660 0.351365 0.311382
C6    C     C_3   0.910033 0.820357 0.295691 -0.282412
C7    C     C_3   0.453952 0.779691 0.350330 0.369150
C8    C     C_3   0.412356 0.856086 0.317537 -0.287961
C9    C     C_R   0.041493 0.454626 0.179950 0.631245
C10   C     C_R   0.913953 0.609253 0.181366 0.611715
C11   C     C_2   0.761722 0.574792 0.274184 0.019771
C12   C     C_3   0.045264 0.166320 0.639243 0.322297
C13   C     C_3   0.734514 0.596830 0.329636 -0.089797
C14   C     C_1   0.987429 0.489875 0.343566 0.045821
C15   C     C_2   0.031630 0.490281 0.296599 -0.043763
C16   C     C_2   0.911422 0.532590 0.258060 0.228959
C17   C     C_R   0.039658 0.531891 0.104896 -0.091204
C18   C     C_R   0.088351 0.454586 0.129985 -0.022182
C19   C     C_R   0.182713 0.378679 0.104466 -0.031607
C20   C     C_R   0.951688 0.609475 0.130829 -0.107484
C21   C     C_2   0.847251 0.535259 0.361070 -0.206738
C22   C     C_2   0.351733 0.487729 0.643474 -0.233285
C23   C     C_3   0.071083 0.147659 0.693593 -0.338047
C24   C     C_R   0.239487 0.461566 0.980980 0.052059
C25   C     C_R   0.046384 0.603441 0.975612 -0.049007
C26   C     C_R   0.164841 0.533045 0.953252 -0.015907
C27   C     C_R   0.366826 0.397279 0.958723 -0.091548
C28   C     C_R   0.414520 0.401451 0.910342 -0.037052
C29   C     C_R   0.334204 0.468326 0.881350 -0.012960
C30   C     C_R   0.207633 0.533490 0.902539 -0.087613
C31   C     C_R   0.124093 0.599105 0.873117 -0.114720
C32   C     C_R   0.166707 0.598051 0.822682 0.622872
C33   C     C_R   0.377732 0.470434 0.831488 0.622596
C34   C     C_3   0.220091 0.263819 0.412525 0.294549
C35   C     C_2   0.476995 0.508064 0.730181 -0.079168
C36   C     C_3   0.506778 0.497825 0.674255 -0.123823
C37   C     C_1   0.209673 0.529240 0.660562 0.022448
C38   C     C_2   0.179638 0.538558 0.709041 -0.076106
C39   C     C_2   0.320901 0.526754 0.747592 0.213170
C40   C     C_R   0.185329 0.457086 0.029926 0.048899
C41   C     C_R   0.081009 0.532160 0.054029 -0.020916
C42   C     C_R   0.020696 0.608337 0.028058 -0.054370
C43   C     C_R   0.232100 0.380203 0.055871 -0.089565
C44   C     C_R   0.909054 0.687522 0.106406 -0.098137
C45   C     C_3   0.230203 0.163193 0.397418 -0.335903
C46   C     C_R   0.954119 0.663766 0.943914 0.665278
C47   C     C_R   0.994923 0.662445 0.894168 -0.094235
C48   C     C_R   0.944744 0.687831 0.056452 0.667265
C49   C     C_R   0.751991 0.765932 0.478501 -0.203393
C50   C     C_R   0.839291 0.825753 0.460787 0.031312
C51   C     C_R   0.775704 0.918561 0.465886 -0.090245
C52   C     C_R   0.622645 0.952496 0.488607 0.054507
C53   C     C_R   0.542652 0.889200 0.508126 -0.095202
C54   C     C_R   0.609004 0.797780 0.504078 0.010390
C55   C     C_R   0.405923 0.085928 0.521315 -0.174894
C56   C     C_3   0.069825 0.741881 0.593877 0.793693
C57   C     C_R   0.347238 0.178317 0.529984 -0.036568
C58   C     C_R   0.577870 0.210054 0.488938 0.058354
C59   C     C_R   0.632189 0.117325 0.476761 -0.199147
C60   C     C_R   0.552706 0.052497 0.495242 0.040133
C61   C     C_R   0.438342 0.239862 0.516475 0.345763
C62   C     C_3   0.999304 0.840965 0.608440 -0.177218
C63   C     C_3   0.696848 0.342966 0.372864 0.316156
C64   C     C_3   0.687438 0.318044 0.316414 1.058378
H1    H     H_    0.484444 0.276307 0.626968 0.021593
H2    H     H_    0.309680 0.141668 0.364821 0.163410
H3    H     H_    0.282464 0.124688 0.428599 0.056181
H4    H     H_    0.104862 0.147674 0.387274 0.140508
H5    H     H_    0.203433 0.730952 0.602449 -0.027506
H6    H     H_    0.867467 0.853541 0.595646 0.112517
H7    H     H_    0.005445 0.856607 0.649796 0.033489
H8    H     H_    0.821539 0.356951 0.384401 -0.137037
H9    H     H_    0.603914 0.403706 0.382872 0.051801
H10   H     H_    0.780095 0.257288 0.305913 -0.017741
H11   H     H_    0.455412 0.133135 0.668570 0.070542
H12   H     H_    0.428892 0.662386 0.635270 -0.096786
H13   H     H_    0.635501 0.625203 0.616106 0.064254
H14   H     H_    0.523116 0.765688 0.704061 0.130428
H15   H     H_    0.638082 0.653664 0.707236 0.051955
H16   H     H_    0.731960 0.737767 0.683051 0.146720
H17   H     H_    0.641081 0.147546 0.704227 0.103582
H18   H     H_    0.084953 0.210391 0.717991 0.150517
H19   H     H_    0.813130 0.843725 0.367658 -0.123842
H20   H     H_    0.892942 0.748841 0.290786 0.138181
H21   H     H_    0.799724 0.861374 0.279219 0.121856
H22   H     H_    0.020713 0.826600 0.275621 0.122508
H23   H     H_    0.590010 0.768345 0.356862 -0.123803
H24   H     H_    0.396016 0.800863 0.386942 0.086970
H25   H     H_    0.476516 0.837251 0.281765 0.115180
H26   H     H_    0.453039 0.917841 0.336995 0.100688
H27   H     H_    0.027426 0.102267 0.616770 0.075058
H28   H     H_    0.277757 0.870373 0.309315 0.146677
H29   H     H_    0.156558 0.461930 0.286248 0.149943
H30   H     H_    0.221167 0.317689 0.122324 0.142115
H31   H     H_    0.583632 0.504779 0.755847 0.122147
H32   H     H_    0.513701 0.350633 0.895362 0.135675
H33   H     H_    0.435666 0.344267 0.978554 0.079691
H34   H     H_    0.303273 0.318866 0.038822 0.084118
H35   H     H_    0.667110 0.603212 0.248189 0.105053
H36   H     H_    0.850123 0.750023 0.126323 0.163065
H37   H     H_    0.936112 0.219564 0.636117 0.133386
H38   H     H_    0.921219 0.710328 0.871660 0.157802
H39   H     H_    0.053354 0.546756 0.720430 0.113745
H40   H     H_    0.823713 0.542105 0.400643 0.046106
H41   H     H_    0.356857 0.443778 0.608535 0.130644
H42   H     H_    0.333671 0.042740 0.535466 0.086437
H43   H     H_    0.850284 0.962648 0.453457 0.080829
H44   H     H_    0.737266 0.098064 0.453536 0.100062
H45   H     H_    0.431693 0.908498 0.528400 0.121903
H46   H     H_    0.963077 0.121605 0.705385 0.094177
H47   H     H_    0.801338 0.694684 0.475469 0.094521
H48   H     H_    0.183091 0.096450 0.698109 0.138126
H49   H     H_    0.345572 0.279186 0.420897 0.015044
H50   H     H_    0.144150 0.282982 0.446036 0.052908
N1    N     N_R   0.955528 0.531790 0.205686 -0.429803
N2    N     N_R   0.289841 0.532435 0.801420 -0.428363
O1    O     O_2   0.905540 0.548000 0.618290 -0.469451
O2    O     O_3   0.666055 0.269350 0.395365 -0.678825
O3    O     O_3   0.184149 0.195627 0.623879 -0.614627
O4    O     O_2   0.284150 0.451970 0.381680 -0.447620
O5    O     O_3   0.052160 0.451990 0.441880 -0.490449
O6    O     O_3   0.501140 0.616030 0.412450 -0.496885
O7    O     O_3   0.149833 0.308674 0.372226 -0.603136
O8    O     O_3   0.615020 0.608480 0.525380 -0.489377
O9    O     O_3   0.085020 0.662210 0.437090 -0.431002
O10   O     O_2   0.182758 0.819519 0.462684 -0.448078
O11   O     O_3   0.067052 0.792379 0.370669 -0.598577
O12   O     O_3   0.137550 0.547930 0.558110 -0.415835
O13   O     O_3   0.574690 0.391440 0.474610 -0.424848
O14   O     O_2   0.341330 0.720570 0.525000 -0.415898
O15   O     O_3   0.532387 0.757289 0.604665 -0.603376
O16   O     O_2   0.435313 0.526775 0.323753 -0.424292
O17   O     O_3   0.393320 0.703020 0.326714 -0.572635
O18   O     O_2   0.075881 0.385425 0.200150 -0.545272
O19   O     O_2   0.494110 0.416218 0.815029 -0.548211
O20   O     O_2   0.845299 0.679050 0.203802 -0.622984
O21   O     O_2   0.095333 0.656711 0.798039 -0.593553
O22   O     O_3   0.688580 0.383890 0.587540 -0.426981
O23   O     O_2   0.844462 0.429003 0.671963 -0.470838
O24   O     O_3   0.994377 0.690533 0.622170 -0.669809
O25   O     O_3   0.679297 0.300750 0.677955 -0.609470
O26   O     O_2   0.848360 0.279400 0.474970 -0.476262
O27   O     O_3   0.104690 0.337720 0.562900 -0.381925
O28   O     O_2   0.009184 0.177455 0.536786 -0.527613
P1    P     P_3+3 0.070480 0.574800 0.610950 1.051450
P2    P     P_3+3 0.668430 0.292880 0.460530 1.050232
P3    P     P_3+3 0.155071 0.220693 0.561757 1.026987
P4    P     P_3+3 0.119230 0.425130 0.389040 1.055252
P5    P     P_3+3 0.041150 0.778687 0.433342 1.060831
P6    P     P_3+3 0.675415 0.403915 0.653030 1.009853
P7    P     P_3+3 0.527650 0.721714 0.540341 1.018075
P8    P     P_3+3 0.515886 0.607519 0.347496 1.008776
F1    F     F_    0.034955 0.719979 0.543680 -0.714645
C65   C     C_2   0.091334 0.902338 0.585827 0.855286
O29   O     O_2   0.232491 0.908662 0.600463 -0.621838
O30   O     O_R   0.013499 0.953452 0.548821 -0.757373
H51   H     H_    0.087739 0.991129 0.535507 0.304094
C66   C     C_2   0.669115 0.107360 0.626659 0.810661
O31   O     O_2   0.706559 0.025755 0.626668 -0.600917
O32   O     O_R   0.716325 0.149541 0.588050 -0.784138
H52   H     H_    0.787195 0.105105 0.563986 0.338433
F2    F     F_    0.719009 0.387618 0.291799 -0.740668
F3    F     F_    0.531865 0.299839 0.301596 -0.657183
C67   C     C_2   0.403984 0.300210 0.702681 0.825843
O33   O     O_2   0.432112 0.289087 0.746689 -0.551747
O34   O     O_R   0.247051 0.339286 0.686605 -0.766315
H53   H     H_    0.168362 0.356661 0.715002 0.312160
C68   C     C_2   0.955273 0.946735 0.359530 0.799564
O35   O     O_2   0.082471 0.966960 0.379848 -0.628821
O36   O     O_R   0.829554 0.013872 0.344738 -0.767080
H54   H     H_    0.858176 0.076565 0.352835 0.313636
F4    F     F_    0.812112 0.717569 0.958423 -0.632355
F5    F     F_    0.921779 0.769214 0.038589 -0.622489
F6    F     F_    0.386424 0.329352 0.527919 -0.727336

loop_
_geom_bond_atom_site_label_1
_geom_bond_atom_site_label_2
_ccdc_geom_bond_type
C25   C46   A    
C32   N2    Am   
C53   C54   A    
Ba2   P4    S    
C4    H16   S    
O6    P8    S    
Ba1   O27   S    
C17   C18   A    
O26   P2    D    
C2    O25   S    
C35   H31   S    
C12   H37   S    
C55   C60   A    
C5    H19   S    
Ba2   O5    S    
C50   C51   A    
C3    O15   S    
C44   H36   S    
C49   H47   S    
O17   P8    S    
C11   C16   D    
C58   C61   A    
O15   P7    S    
C3    C4    S    
O4    P4    D    
C65   O29   D    
C35   C36   S    
O11   P5    S    
C28   C29   A    
C56   H5    S    
C55   C57   A    
C68   O35   D    
C8    H28   S    
O1    P1    D    
C10   C20   A    
C32   O21   D    
C22   C37   D    
C34   C45   S    
C49   C54   A    
Ba1   O1    S    
C45   H3    S    
C13   P8    S    
C42   C48   A    
C23   H46   S    
O9    P5    S    
C4    H14   S    
C25   C42   A    
C34   O7    S    
O3    P3    S    
C14   C15   D    
C23   H18   S    
C22   C36   S    
C62   H7    S    
C15   H29   S    
C39   N2    S    
C3    H13   S    
C7    C8    S    
O22   P6    S    
C12   H27   S    
C19   C43   A    
Ba2   O9    S    
Ba2   O4    S    
O5    P4    S    
C8    H26   S    
C12   O3    S    
C67   O34   S    
C47   H38   S    
C59   H44   S    
C36   P6    S    
C17   C41   A    
Ba2   O13   S    
C46   F4    S    
C57   P3    S    
C56   C62   S    
C9    C18   A    
C27   H33   S    
C49   C50   A    
C61   F6    S    
C17   C20   A    
C31   C32   A    
Ba1   O8    S    
Ba1   O12   S    
C56   F1    S    
C7    H23   S    
C37   C38   D    
C52   C60   S    
C51   C52   A    
C21   H40   S    
C63   H8    S    
C48   F5    S    
C6    H22   S    
C40   C43   A    
C66   O32   S    
O30   H51   S    
C41   C42   A    
Ba1   O5    S    
C45   H4    S    
C27   C28   A    
O28   P3    D    
C56   O24   S    
O10   P5    D    
Ba2   O14   S    
C29   C30   A    
C26   C30   A    
C64   H10   S    
C15   C16   S    
C64   F2    S    
O13   P2    S    
C22   H41   S    
C16   N1    S    
Ba1   O22   S    
C7    O17   S    
O34   H53   S    
C20   C44   A    
O14   P7    D    
C8    H25   S    
O2    P2    S    
C14   C21   D    
C11   C13   S    
C1    H17   S    
C67   O33   D    
C10   O20   D    
Ba1   P1    S    
C40   C41   A    
C33   N2    Am   
C11   H35   S    
C1    C2    S    
C34   H50   S    
Ba2   O8    S    
C45   H2    S    
O36   H54   S    
C24   C40   A    
O32   H52   S    
C51   H43   S    
C44   C48   A    
C52   C53   A    
O25   P6    S    
C64   F3    S    
C53   H45   S    
O12   P1    S    
C57   C61   A    
O24   P1    S    
C54   P7    S    
Ba1   O13   S    
C43   H34   S    
C7    H24   S    
C2    H1    S    
C14   P4    S    
C19   H30   S    
Ba2   O6    S    
C28   H32   S    
C24   C26   A    
C63   H9    S    
C6    H21   S    
C30   C31   A    
C65   O30   S    
Ba1   O26   S    
C9    O18   D    
C66   O31   D    
C6    H20   S    
C1    C66   S    
O16   P8    D    
C68   O36   S    
C50   P5    S    
C46   C47   A    
Ba1   Ba2   S    
C13   C21   S    
Ba2   O12   S    
C63   O2    S    
C2    C67   S    
C62   C65   S    
C29   C33   A    
C62   H6    S    
C12   C23   S    
C35   C39   D    
C59   C60   A    
O27   P3    S    
C5    O11   S    
C5    C6    S    
O7    P4    S    
C10   N1    Am   
O8    P7    S    
C55   H42   S    
C18   C19   A    
C24   C27   A    
C63   C64   S    
C5    C68   S    
C37   P1    S    
C25   C26   A    
C4    H15   S    
C58   C59   A    
Ba1   P2    S    
C38   C39   S    
C58   P2    S    
C3    H12   S    
C23   H48   S    
C34   H49   S    
C31   C47   A    
C9    N1    Am   
C33   O19   D    
O23   P6    D    
C38   H39   S    
C1    H11   S    
