data_mof_unit_52553.cif
_audit_creation_date              2012-10-26T20:21:30-0400
_audit_creation_method            fapswitch 2.2
_symmetry_space_group_name_H-M    P1
_symmetry_Int_Tables_number       1
_space_group_crystal_system       triclinic
_cell_length_a                    10.849682
_cell_length_b                    9.607656
_cell_length_c                    11.686403
_cell_angle_alpha                 89.993685
_cell_angle_beta                  91.930397
_cell_angle_gamma                 90.01295
_cell_volume                      1217.49941483

loop_
_atom_site_label
_atom_site_type_symbol
_atom_type_description
_atom_site_fract_x
_atom_site_fract_y
_atom_site_fract_z
_atom_type_partial_charge
C1    C     C_R   0.262355 0.500389 0.501646 0.527870
C2    C     C_R   0.936067 0.628809 0.500112 -0.137817
C3    C     C_R   0.936418 0.376660 0.495197 -0.152604
C4    C     C_R   0.064024 0.628797 0.501378 -0.137721
C5    C     C_R   0.871623 0.502124 0.497094 0.014410
C6    C     C_R   0.128372 0.502074 0.503106 0.014559
C7    C     C_R   0.433790 0.075150 0.417914 0.309651
C8    C     C_R   0.557180 0.925730 0.587739 0.304730
C9    C     C_R   0.566268 0.075165 0.582043 0.309615
C10   C     C_R   0.442887 0.925725 0.412229 0.304795
C11   C     C_3   0.240984 0.116116 0.335790 0.002384
C12   C     C_R   0.737644 0.500414 0.498420 0.527846
C13   C     C_3   0.168807 0.223809 0.265443 -0.372247
C14   C     C_3   0.559937 0.881177 0.781712 -0.002602
C15   C     C_3   0.646074 0.832338 0.879193 -0.375934
C16   C     C_3   0.759258 0.116337 0.663676 0.002402
C17   C     C_3   0.831583 0.223950 0.733994 -0.372017
C18   C     C_3   0.440569 0.881224 0.218268 -0.002620
C19   C     C_3   0.354623 0.832465 0.120616 -0.375960
C20   C     C_R   0.500008 0.499883 0.284181 0.541014
C21   C     C_R   0.499999 0.499873 0.715820 0.540968
C22   C     C_1   0.500436 0.499275 0.162465 -0.033999
C23   C     C_1   0.499587 0.499251 0.837536 -0.034041
C24   C     C_1   0.500294 0.498856 0.059913 -0.059268
C25   C     C_1   0.499738 0.498845 0.940088 -0.059279
C26   C     C_R   0.063470 0.376604 0.503851 -0.152680
Cu1   Cu    Cu3+1 0.500000 0.640660 0.500000 1.019470
Cu2   Cu    Cu3+1 0.500000 0.359340 0.500000 1.030892
H1    H     H_    0.110433 0.278185 0.510122 0.120377
H2    H     H_    0.470889 0.824664 0.786299 0.143042
H3    H     H_    0.540526 0.993122 0.796240 0.152955
H4    H     H_    0.731461 0.896101 0.882007 0.136378
H5    H     H_    0.600574 0.843278 0.962273 0.089991
H6    H     H_    0.671652 0.721710 0.866724 0.170218
H7    H     H_    0.793027 0.113317 0.575108 0.107139
H8    H     H_    0.778781 0.014134 0.703918 0.164649
H9    H     H_    0.807355 0.216120 0.825381 0.143094
H10   H     H_    0.932080 0.205335 0.726980 0.090461
H11   H     H_    0.809341 0.330547 0.703324 0.179358
H12   H     H_    0.888027 0.727626 0.500926 0.132051
H13   H     H_    0.529595 0.824696 0.213845 0.143086
H14   H     H_    0.460092 0.993166 0.203795 0.152863
H15   H     H_    0.400423 0.843194 0.037672 0.090016
H16   H     H_    0.328747 0.721920 0.133116 0.170341
H17   H     H_    0.269380 0.896413 0.117495 0.136205
H18   H     H_    0.889370 0.278314 0.487970 0.120252
H19   H     H_    0.112140 0.727618 0.501598 0.131775
H20   H     H_    0.206961 0.112766 0.424263 0.106928
H21   H     H_    0.221635 0.013992 0.295336 0.164897
H22   H     H_    0.193114 0.216001 0.174097 0.143053
H23   H     H_    0.068310 0.205220 0.272342 0.090339
H24   H     H_    0.191080 0.330384 0.296137 0.179399
N1    N     N_R   0.500000 0.852070 0.500000 -0.253676
N2    N     N_R   0.500000 0.147930 0.500000 -0.252949
O1    O     O_R   0.319640 0.618740 0.499990 -0.487440
O2    O     O_3   0.615913 0.853183 0.676133 -0.538298
O3    O     O_3   0.632488 0.149834 0.664929 -0.529228
O4    O     O_3   0.384336 0.853183 0.323730 -0.538229
O5    O     O_R   0.680360 0.381260 0.500010 -0.494538
O6    O     O_R   0.680360 0.618740 0.500010 -0.487413
O7    O     O_R   0.319640 0.381260 0.499990 -0.494556
O8    O     O_R   0.500010 0.618790 0.337200 -0.469317
O9    O     O_R   0.499990 0.381210 0.662800 -0.448234
O10   O     O_R   0.499990 0.618790 0.662800 -0.469429
O11   O     O_R   0.500010 0.381210 0.337200 -0.448159
O12   O     O_3   0.367740 0.149807 0.334915 -0.529215

loop_
_geom_bond_atom_site_label_1
_geom_bond_atom_site_label_2
_ccdc_geom_bond_type
C8    N1    A    
C7    C10   A    
C14   O2    S    
C18   H14   S    
Cu1   N1    S    
C11   H21   S    
Cu1   O8    S    
C13   H24   S    
C1    C6    S    
C15   H6    S    
C2    C4    A    
C11   O12   S    
C14   H3    S    
C16   O3    S    
Cu2   O7    S    
C8    O2    S    
C21   C23   S    
Cu2   O11   S    
C1    O1    A    
C19   H16   S    
C15   H4    S    
C16   H7    S    
C17   H9    S    
C16   H8    S    
C7    O12   S    
C9    O3    S    
C11   C13   S    
C11   H20   S    
C6    C26   A    
C14   H2    S    
C10   O4    S    
C19   H15   S    
Cu1   O1    S    
C17   H10   S    
C23   C25   T    
Cu1   O6    S    
C20   O8    A    
C22   C24   T    
C21   O9    A    
C2    C5    A    
Cu1   O10   S    
C20   C22   S    
C1    O7    A    
C13   H22   S    
C12   O6    A    
Cu2   O9    S    
C2    H12   S    
C20   O11   A    
C24   C25   S    
C26   H1    S    
C4    C6    A    
C18   C19   S    
C17   H11   S    
Cu2   O5    S    
Cu1   Cu2   S    
C10   N1    A    
Cu2   N2    S    
C14   C15   S    
C16   C17   S    
C21   O10   A    
C9    N2    A    
C3    H18   S    
C7    N2    A    
C13   H23   S    
C12   O5    A    
C18   O4    S    
C3    C26   A    
C19   H17   S    
C18   H13   S    
C15   H5    S    
C8    C9    A    
C3    C5    A    
C4    H19   S    
C5    C12   S    
