data_mof_unit_35341.cif
_audit_creation_date              2012-10-26T19:21:30-0400
_audit_creation_method            fapswitch 2.2
_symmetry_space_group_name_H-M    P1
_symmetry_Int_Tables_number       1
_space_group_crystal_system       triclinic
_cell_length_a                    9.887069
_cell_length_b                    11.096645
_cell_length_c                    15.78166
_cell_angle_alpha                 95.321397
_cell_angle_beta                  79.092076
_cell_angle_gamma                 112.523744
_cell_volume                      1570.09541304

loop_
_atom_site_label
_atom_site_type_symbol
_atom_type_description
_atom_site_fract_x
_atom_site_fract_y
_atom_site_fract_z
_atom_type_partial_charge
C1    C     C_R   0.558309 0.745915 0.505653 0.578674
C2    C     C_2   0.489659 0.061388 0.517563 0.218135
C3    C     C_2   0.920525 0.486965 0.494831 0.504703
C4    C     C_2   0.079481 0.513053 0.505153 0.504747
C5    C     C_R   0.409788 0.482277 0.663274 0.585252
C6    C     C_R   0.590212 0.517726 0.336725 0.585265
C7    C     C_R   0.353025 0.464189 0.757752 -0.016810
C8    C     C_R   0.646976 0.535816 0.242245 -0.016736
C9    C     C_R   0.156877 0.427270 0.885190 0.315255
C10   C     C_R   0.843158 0.572836 0.114819 0.315260
C11   C     C_R   0.207657 0.455526 0.796245 0.192591
C12   C     C_R   0.441695 0.254084 0.494335 0.578662
C13   C     C_R   0.792381 0.544572 0.203766 0.192622
C14   C     C_R   0.447574 0.456513 0.811839 0.251609
C15   C     C_R   0.552399 0.543413 0.188146 0.251584
C16   C     C_R   0.411404 0.470624 0.901652 -0.036625
C17   C     C_R   0.588598 0.529309 0.098334 -0.036579
C18   C     C_R   0.259640 0.432264 0.938554 -0.010076
C19   C     C_R   0.740378 0.567750 0.061443 -0.010098
C20   C     C_R   0.521635 0.513347 0.955620 0.009401
C21   C     C_R   0.478376 0.486558 0.044357 0.009486
C22   C     C_R   0.328079 0.409193 0.075643 0.306469
C23   C     C_R   0.671931 0.590720 0.924340 0.306212
C24   C     C_R   0.217125 0.393725 0.026011 0.289623
C25   C     C_R   0.782882 0.606275 0.973985 0.289605
C26   C     C_2   0.590182 0.885809 0.516347 0.255693
C27   C     C_2   0.409837 0.114188 0.483590 0.255579
C28   C     C_2   0.510347 0.938586 0.482373 0.218220
Cl1   Cl    Cl    0.028237 0.318118 0.074211 -0.390394
Cl2   Cl    Cl    0.741340 0.977452 0.569914 -0.422902
Cl3   Cl    Cl    0.971791 0.681948 0.925750 -0.390062
Cl4   Cl    Cl    0.410327 0.605523 0.228007 -0.374225
Cl5   Cl    Cl    0.589581 0.394336 0.771963 -0.374002
Cl6   Cl    Cl    0.913325 0.519471 0.263701 -0.388447
Cl7   Cl    Cl    0.086765 0.480745 0.736325 -0.388305
Cl8   Cl    Cl    0.545099 0.130724 0.617731 -0.421537
Cl9   Cl    Cl    0.454924 0.869219 0.382217 -0.421494
Cl10  Cl    Cl    0.258778 0.022596 0.429841 -0.422708
Cu1   Cu    Cu3+1 0.362980 0.479380 0.485080 1.210438
Cu2   Cu    Cu3+1 0.637020 0.520620 0.514920 1.210436
H1    H     H_    0.946419 0.368428 0.877422 0.390068
H2    H     H_    0.053619 0.631804 0.122616 0.390063
H3    H     H_    0.198297 0.272520 0.157053 0.387625
H4    H     H_    0.801378 0.727710 0.843180 0.387384
H5    H     H_    0.146047 0.691474 0.542371 0.359445
H6    H     H_    0.853892 0.308550 0.457607 0.359469
H7    H     H_    0.182445 0.333545 0.372834 0.395524
H8    H     H_    0.817516 0.666371 0.627215 0.395556
N1    N     N_2   0.842890 0.551600 0.537350 -0.059642
N2    N     N_2   0.157110 0.448400 0.462650 -0.059584
O1    O     O_R   0.426810 0.668300 0.492040 -0.460771
O2    O     O_3   0.989035 0.596067 0.078286 -0.535611
O3    O     O_3   0.294717 0.346700 0.153233 -0.614083
O4    O     O_3   0.705344 0.653135 0.846726 -0.613919
O5    O     O_3   0.147636 0.609464 0.561505 -0.578136
O6    O     O_3   0.852387 0.390589 0.438457 -0.578121
O7    O     O_3   0.106614 0.371270 0.395801 -0.546107
O8    O     O_3   0.893349 0.628654 0.604231 -0.545999
O9    O     O_R   0.573190 0.331700 0.507960 -0.460777
O10   O     O_R   0.658240 0.703130 0.517240 -0.491463
O11   O     O_R   0.341760 0.296870 0.482760 -0.491498
O12   O     O_R   0.319390 0.472820 0.610170 -0.442145
O13   O     O_R   0.680610 0.527180 0.389830 -0.442119
O14   O     O_R   0.550820 0.507640 0.635370 -0.462054
O15   O     O_R   0.449180 0.492360 0.364630 -0.462036
O16   O     O_3   0.011025 0.404139 0.921738 -0.535591

loop_
_geom_bond_atom_site_label_1
_geom_bond_atom_site_label_2
_ccdc_geom_bond_type
C6    O13   A    
C25   Cl3   S    
Cu1   O1    S    
C5    C7    S    
H8    O8    S    
C8    C13   A    
Cu2   O10   S    
H7    O7    S    
C9    C11   A    
C3    O6    S    
C26   C28   D    
Cu2   O14   S    
C20   C23   A    
C10   C19   A    
C16   C20   A    
C10   O2    S    
C14   Cl5   S    
C11   Cl7   S    
C3    N1    D    
C13   Cl6   S    
Cu2   O9    S    
C21   C22   A    
C12   O9    A    
C7    C11   A    
C12   O11   A    
Cu1   O15   S    
C2    C27   D    
Cu2   O13   S    
C28   Cl9   S    
C18   C24   A    
C6    C8    S    
H2    O2    S    
C17   C19   A    
C24   Cl1   S    
C5    O12   A    
C26   Cl2   S    
C22   O3    S    
C22   C24   A    
C1    O1    A    
C23   C25   A    
C4    O5    S    
C12   C27   S    
C1    C26   S    
C19   C25   A    
C14   C16   A    
C27   Cl10  S    
C2    Cl8   S    
C3    C4    S    
H4    O4    S    
C9    C18   A    
C15   Cl4   S    
Cu1   N2    S    
C20   C21   A    
H5    O5    S    
C23   O4    S    
C16   C18   A    
C1    O10   A    
H6    O6    S    
Cu1   Cu2   S    
C15   C17   A    
Cu1   O12   S    
C9    O16   S    
C2    C28   S    
C8    C15   A    
H1    O16   S    
Cu1   O11   S    
N2    O7    S    
H3    O3    S    
C6    O15   A    
C7    C14   A    
N1    O8    S    
Cu2   N1    S    
C5    O14   A    
C4    N2    D    
C10   C13   A    
C17   C21   A    
