data_mof_unit_10797.cif
_audit_creation_date              2013-03-05T16:42:12-0500
_audit_creation_method            fapswitch 2.2
_symmetry_space_group_name_H-M    P1
_symmetry_Int_Tables_number       1
_space_group_crystal_system       triclinic
_cell_length_a                    14.897265
_cell_length_b                    10.664252
_cell_length_c                    9.994961
_cell_angle_alpha                 89.492075
_cell_angle_beta                  91.2452
_cell_angle_gamma                 91.555728
_cell_volume                      1586.8668015

loop_
_atom_site_label
_atom_site_type_symbol
_atom_site_description
_atom_site_fract_x
_atom_site_fract_y
_atom_site_fract_z
_atom_type_partial_charge
O1    O     O_R   0.500010 0.316790 0.614690 -0.617579
O2    O     O_R   0.500000 0.316760 0.385350 -0.595546
C1    C     C_R   0.504014 0.260565 0.500843 0.895566
O3    O     O_R   0.367850 0.499990 0.614680 -0.583162
O4    O     O_R   0.367840 0.499950 0.385340 -0.637487
C2    C     C_R   0.327626 0.496703 0.498787 0.850421
Zn1   Zn    Zn3+2 0.500010 0.500020 0.653130 0.984651
Zn2   Zn    Zn3+2 0.499990 0.499980 0.346870 1.057284
O5    O     O_R   0.500000 0.683240 0.614650 -0.638727
O6    O     O_R   0.499990 0.683210 0.385310 -0.593478
O7    O     O_R   0.632160 0.500050 0.614660 -0.645966
O8    O     O_R   0.632150 0.500010 0.385320 -0.540777
C3    C     C_R   0.501917 0.739841 0.499694 0.909807
C4    C     C_R   0.672461 0.502282 0.501092 1.010467
C5    C     C_R   0.816482 0.614957 0.485490 0.244009
C6    C     C_R   0.767916 0.501574 0.502156 -0.286965
C7    C     C_R   0.809191 0.385863 0.511775 0.215637
C8    C     C_R   0.902429 0.382823 0.511284 0.014820
C9    C     C_R   0.952925 0.495261 0.489955 -0.047975
C10   C     C_R   0.909771 0.611525 0.468950 -0.098765
C11   C     C_R   0.945991 0.269544 0.533031 -0.068267
C12   C     C_R   0.038589 0.266125 0.534631 -0.190242
C13   C     C_R   0.090719 0.376115 0.514009 0.106047
C14   C     C_R   0.046879 0.491284 0.490287 0.082027
C15   C     C_R   0.097023 0.602889 0.467397 0.071024
C16   C     C_R   0.054833 0.715039 0.438037 -0.268701
C17   C     C_R   0.961725 0.719944 0.433441 0.344934
C18   C     C_R   0.185401 0.374777 0.516758 0.079867
C19   C     C_R   0.232379 0.489505 0.495978 -0.028927
C20   C     C_R   0.189388 0.600950 0.470501 -0.231070
H1    H     H_    0.908915 0.182545 0.551110 0.232162
H2    H     H_    0.067803 0.175759 0.552215 0.182557
H3    H     H_    0.228612 0.686814 0.453410 0.136745
H4    H     H_    0.094565 0.798449 0.413150 0.179696
C21   C     C_R   0.520543 0.063006 0.623642 0.213668
C22   C     C_R   0.520726 0.129852 0.503264 -0.125047
C23   C     C_R   0.538214 0.067772 0.384159 -0.072505
H5    H     H_    0.548385 0.118125 0.291386 0.248990
C24   C     C_R   0.533386 0.938342 0.382053 -0.089059
H6    H     H_    0.536906 0.891893 0.286988 0.231905
C25   C     C_R   0.516263 0.872105 0.500772 -0.133587
C26   C     C_R   0.518999 0.934949 0.622280 0.148245
C27   C     C_3   0.456746 0.924327 0.737176 -0.456812
C28   C     C_3   0.458297 0.066291 0.738690 -0.475918
H7    H     H_    0.389970 0.882348 0.708504 0.209773
H8    H     H_    0.489399 0.882069 0.827286 0.236942
H9    H     H_    0.392238 0.106337 0.711172 0.194057
H10   H     H_    0.492080 0.105502 0.829824 0.267522
C29   C     C_R   0.425661 0.462980 0.067658 -0.002551
N1    N     N_R   0.499390 0.499140 0.142800 -0.148190
C30   C     C_R   0.568557 0.555303 0.075592 0.335756
C31   C     C_R   0.570567 0.552540 0.931918 0.013688
N2    N     N_R   0.499390 0.499180 0.857150 -0.133287
C32   C     C_R   0.423738 0.469344 0.926784 0.120030
C33   C     C_3   0.366878 0.352172 0.915971 0.050933
C34   C     C_3   0.374560 0.340139 0.068228 0.066461
H11   H     H_    0.398486 0.278067 0.858079 0.127337
H12   H     H_    0.309807 0.343501 0.121337 0.135891
N3    N     N_R   0.771973 0.732179 0.499252 0.213685
O9    O     O_R   0.703488 0.758963 0.422627 -0.306016
O10   O     O_R   0.799238 0.812043 0.590081 -0.365421
N4    N     N_R   0.635778 0.625847 0.149282 0.230524
O11   O     O_R   0.626418 0.745932 0.161081 -0.370511
O12   O     O_R   0.714681 0.579684 0.171524 -0.365902
C35   C     C_3   0.653442 0.610123 0.868200 -0.318845
C36   C     C_3   0.731633 0.517189 0.873056 -0.300232
C37   C     C_3   0.822700 0.583744 0.857125 -0.754003
H13   H     H_    0.824052 0.637893 0.762441 0.273336
H14   H     H_    0.836663 0.648368 0.942057 0.302015
H15   H     H_    0.876298 0.513433 0.855447 0.254467
H16   H     H_    0.733259 0.464484 0.969048 0.262802
H17   H     H_    0.723123 0.444135 0.796011 0.266871
H18   H     H_    0.638800 0.649666 0.768423 0.239344
H19   H     H_    0.674669 0.696445 0.922769 0.231734
N5    N     N_R   0.274312 0.374784 0.871700 0.202505
O13   O     O_R   0.248638 0.486522 0.837422 -0.366592
O14   O     O_R   0.215297 0.282716 0.873868 -0.393732
N6    N     N_R   0.755887 0.271985 0.522568 0.184551
O15   O     O_R   0.752990 0.192052 0.424895 -0.324030
O16   O     O_R   0.712832 0.246232 0.631658 -0.401001
N7    N     N_R   0.429488 0.234017 0.108381 0.208225
O17   O     O_R   0.512186 0.227742 0.069755 -0.418763
O18   O     O_R   0.390692 0.134886 0.160222 -0.424210
C38   C     C_3   0.235913 0.253094 0.538353 -0.440216
C39   C     C_3   0.235389 0.175710 0.409578 -0.341618
C40   C     C_3   0.270002 0.044124 0.435602 -0.806741
H20   H     H_    0.339569 0.049128 0.477058 0.250001
H21   H     H_    0.226153 0.992530 0.507159 0.251184
H22   H     H_    0.269905 0.991389 0.340300 0.280571
H23   H     H_    0.166511 0.166984 0.365236 0.247682
H24   H     H_    0.278672 0.224626 0.335472 0.255703
H25   H     H_    0.306744 0.270930 0.570531 0.195172
H26   H     H_    0.206696 0.198171 0.622329 0.247886
N8    N     N_R   0.922101 0.831390 0.379727 0.254734
O19   O     O_R   0.867008 0.823150 0.277149 -0.272626
O20   O     O_R   0.954545 0.941239 0.414219 -0.370863

loop_
_geom_bond_atom_site_label_1
_geom_bond_atom_site_label_2
_geom_bond_distance
_ccdc_geom_bond_type
C33   C34   1.528137 S    
C18   C38   1.528966 S    
C8    C11   1.399826 A    
C25   C26   1.391600 A    
C21   C22   1.393075 A    
N5    O13   1.302074 A    
C3    C25   1.420954 S    
N7    O17   1.302640 A    
C39   H24   1.110018 S    
C34   N7    1.462670 S    
C24   C25   1.400185 A    
N2    C32   1.366185 A    
Zn1   O7    2.014047 S    
C11   H1    1.082607 S    
C16   C17   1.389208 A    
N4    O11   1.298625 A    
C12   H2    1.079554 S    
C22   C23   1.400057 A    
C23   H5    1.078880 S    
O4    C2    1.293654 A    
O7    C4    1.295317 A    
N6    O16   1.300462 A    
C29   C32   1.408770 A    
C35   H18   1.099105 S    
C8    C9    1.415128 A    
C21   C26   1.365380 A    
O5    C3    1.293637 A    
N4    O12   1.300587 A    
C16   H4    1.085048 S    
C36   H17   1.103192 S    
C9    C10   1.423883 A    
C6    C7    1.395182 A    
C13   C14   1.422278 A    
C28   H9    1.111516 S    
C33   N5    1.464641 S    
C36   C37   1.524698 S    
N3    O9    1.298851 A    
C11   C12   1.380666 A    
C30   N4    1.431117 S    
O3    Zn1   1.997759 S    
N7    O18   1.300084 A    
N1    C30   1.364234 A    
C5    C10   1.404615 A    
N3    O10   1.301308 A    
C5    C6    1.402640 A    
C30   C31   1.437558 A    
C38   C39   1.534847 S    
O3    C2    1.292855 A    
C24   H6    1.078363 S    
C40   H20   1.107842 S    
C15   C16   1.392166 A    
C39   C40   1.526329 S    
O6    C3    1.297103 A    
C35   H19   1.109280 S    
C37   H13   1.104529 S    
C37   H14   1.110735 S    
C27   C28   1.513687 S    
C19   C20   1.384335 A    
N5    O14   1.300380 A    
C36   H16   1.107784 S    
Zn2   O8    1.997758 S    
C7    C8    1.390366 A    
C13   C18   1.410638 A    
C14   C15   1.407564 A    
N8    O20   1.301511 A    
C21   C28   1.494045 S    
C27   H7    1.112576 S    
O8    C4    1.292166 A    
C35   C36   1.549454 S    
C33   H11   1.105084 S    
C4    C6    1.422053 S    
C26   C27   1.493291 S    
Zn1   N2    2.039334 S    
Zn2   N1    2.039595 S    
C31   N2    1.395330 A    
C15   C20   1.376367 A    
Zn1   O5    1.988052 S    
C32   C33   1.493830 S    
C18   C19   1.408959 A    
C20   H3    1.087011 S    
O1    Zn1   1.994764 S    
C5    N3    1.439896 S    
O2    Zn2   1.988052 S    
C40   H22   1.110406 S    
O4    Zn2   2.014047 S    
C39   H23   1.110737 S    
C10   C17   1.420521 A    
C29   C34   1.497192 S    
C37   H15   1.110567 S    
C9    C14   1.401377 A    
C23   C24   1.380511 A    
N6    O15   1.300942 A    
C1    C22   1.422558 S    
C7    N6    1.437381 S    
C34   H12   1.112685 S    
O2    C1    1.296881 A    
C40   H21   1.111212 S    
C38   H26   1.109190 S    
N8    O19   1.301381 A    
C27   H8    1.111993 S    
C2    C19   1.418587 S    
Zn2   O6    1.994765 S    
C29   N1    1.365816 A    
C12   C13   1.405206 A    
C17   N8    1.436024 S    
C38   H25   1.108373 S    
O1    C1    1.294167 A    
C31   C35   1.514267 S    
C28   H10   1.110511 S    
