data_mof_unit_66888.cif
_audit_creation_date              2013-03-05T15:57:24-0500
_audit_creation_method            fapswitch 2.2
_symmetry_space_group_name_H-M    P1
_symmetry_Int_Tables_number       1
_space_group_crystal_system       triclinic
_cell_length_a                    17.49441
_cell_length_b                    19.290093
_cell_length_c                    8.452664
_cell_angle_alpha                 89.918436
_cell_angle_beta                  102.533524
_cell_angle_gamma                 90.176199
_cell_volume                      2784.51873702

loop_
_atom_site_label
_atom_site_type_symbol
_atom_site_description
_atom_site_fract_x
_atom_site_fract_y
_atom_site_fract_z
_atom_type_partial_charge
P1    P     P_3+3 0.834140 0.419320 0.003900 1.030347
P2    P     P_3+3 0.834140 0.580680 0.503900 1.027457
P3    P     P_3+3 0.334140 0.919320 0.003900 1.021484
P4    P     P_3+3 0.334140 0.080680 0.503900 1.024013
O1    O     O_2   0.841960 0.394640 0.833410 -0.387078
O2    O     O_2   0.841960 0.605360 0.333410 -0.400693
O3    O     O_2   0.341960 0.894640 0.833410 -0.399380
O4    O     O_2   0.341960 0.105360 0.333410 -0.399781
O5    O     O_3   0.907950 0.463080 0.102990 -0.505477
O6    O     O_3   0.907950 0.536920 0.602990 -0.505830
O7    O     O_3   0.407950 0.963080 0.102990 -0.500635
O8    O     O_3   0.407950 0.036920 0.602990 -0.501708
O9    O     O_3   0.972780 0.329600 0.629720 -0.482766
O10   O     O_3   0.972780 0.670400 0.129720 -0.491287
O11   O     O_3   0.472780 0.829600 0.629720 -0.522791
O12   O     O_3   0.472780 0.170400 0.129720 -0.516619
O13   O     O_2   0.840939 0.279065 0.695907 -0.400724
O14   O     O_2   0.839060 0.718963 0.192208 -0.400454
O15   O     O_2   0.339915 0.780727 0.696861 -0.402216
O16   O     O_2   0.348706 0.228905 0.200214 -0.387481
O17   O     O_3   0.761667 0.479710 0.925049 -0.612134
O18   O     O_3   0.760727 0.520852 0.428891 -0.608851
O19   O     O_3   0.263614 0.981480 0.928145 -0.616959
O20   O     O_3   0.263420 0.018282 0.428344 -0.615661
O21   O     O_3   0.942512 0.193303 0.645032 -0.539240
O22   O     O_3   0.940433 0.805950 0.141066 -0.539523
O23   O     O_3   0.435205 0.688662 0.640958 -0.554562
O24   O     O_3   0.451558 0.311957 0.123206 -0.522495
H1    H     H_    0.018486 0.225391 0.492764 -0.201736
H2    H     H_    0.017549 0.773832 0.991011 -0.190429
H3    H     H_    0.545921 0.724424 0.750291 0.061371
H4    H     H_    0.558715 0.256998 0.182351 0.009317
C1    C     C_3   0.070631 0.153172 0.672874 0.199018
C2    C     C_3   0.068954 0.846654 0.170158 0.192751
C3    C     C_3   0.549519 0.619800 0.670149 0.139003
C4    C     C_3   0.578055 0.362555 0.212731 0.169248
H5    H     H_    0.554750 0.602662 0.797233 0.153365
H6    H     H_    0.593078 0.349226 0.342528 0.153197
H7    H     H_    0.092775 0.193025 0.765796 0.133213
H8    H     H_    0.090535 0.807078 0.263991 0.136036
P5    P     P_3+3 0.165830 0.418670 0.685610 0.988272
P6    P     P_3+3 0.165830 0.581330 0.185610 1.008160
P7    P     P_3+3 0.665830 0.918670 0.685610 1.053459
P8    P     P_3+3 0.665830 0.081330 0.185610 1.052885
P9    P     P_3+3 0.094987 0.264002 0.115300 1.150007
P10   P     P_3+3 0.098987 0.733063 0.610536 1.126438
P11   P     P_3+3 0.593097 0.763111 0.113127 1.107534
P12   P     P_3+3 0.593240 0.236761 0.615212 1.127277
O25   O     O_2   0.157990 0.394030 0.856030 -0.413560
O26   O     O_2   0.157990 0.605970 0.356030 -0.426083
O27   O     O_2   0.657990 0.894030 0.856030 -0.399177
O28   O     O_2   0.657990 0.105970 0.356030 -0.403388
O29   O     O_3   0.027110 0.329490 0.059550 -0.468235
O30   O     O_3   0.027110 0.670510 0.559550 -0.504616
O31   O     O_3   0.527110 0.829490 0.059550 -0.464211
O32   O     O_3   0.527110 0.170510 0.559550 -0.453637
O33   O     O_2   0.155714 0.273378 0.008143 -0.391294
O34   O     O_2   0.155724 0.723610 0.495315 -0.399984
O35   O     O_2   0.654918 0.773924 0.009029 -0.391281
O36   O     O_2   0.648758 0.235367 0.495138 -0.426563
O37   O     O_3   0.250455 0.469500 0.725274 -0.650182
O38   O     O_3   0.247978 0.528776 0.242219 -0.639641
O39   O     O_3   0.751256 0.967647 0.727206 -0.626117
O40   O     O_3   0.750755 0.032002 0.227322 -0.626062
O41   O     O_3   0.047521 0.186441 0.046669 -0.513100
O42   O     O_3   0.053056 0.812027 0.549310 -0.508393
O43   O     O_3   0.543634 0.687710 0.033527 -0.561032
O44   O     O_3   0.537078 0.311600 0.568547 -0.548678
C5    C     C_3   0.978021 0.180308 0.104011 0.413784
C6    C     C_3   0.982224 0.816250 0.602184 0.413807
C7    C     C_3   0.466491 0.688287 0.058495 0.251442
C8    C     C_3   0.472679 0.307361 0.643643 0.402018
H9    H     H_    0.927747 0.194063 0.004354 0.054946
H10   H     H_    0.933296 0.800657 0.501158 0.055829
H11   H     H_    0.426564 0.668096 0.948396 0.148099
H12   H     H_    0.419667 0.292744 0.551550 0.071523
H13   H     H_    0.975730 0.213950 0.209554 -0.165479
H14   H     H_    0.980264 0.783028 0.708794 -0.148892
H15   H     H_    0.442662 0.739715 0.079938 -0.019876
H16   H     H_    0.479062 0.268705 0.743297 -0.177856
C9    C     C_3   0.969349 0.105481 0.154438 -0.299335
C10   C     C_3   0.970203 0.890901 0.648931 -0.298158
C11   C     C_3   0.462597 0.641900 0.199719 -0.290882
C12   C     C_3   0.460377 0.377513 0.714418 -0.242746
H17   H     H_    0.403114 0.641788 0.224648 0.087103
H18   H     H_    0.407138 0.376426 0.765533 0.094337
H19   H     H_    0.911181 0.097383 0.184301 0.082054
H20   H     H_    0.911440 0.896999 0.677047 0.072939
H21   H     H_    0.976461 0.069800 0.056700 0.202945
H22   H     H_    0.976257 0.926399 0.549922 0.202192
H23   H     H_    0.479065 0.588605 0.174305 0.250956
H24   H     H_    0.453908 0.417357 0.618967 0.208574
C13   C     C_3   0.228558 0.471963 0.327660 0.599613
C14   C     C_3   0.243425 0.528766 0.815585 0.629111
C15   C     C_3   0.740779 0.970084 0.306344 0.586753
C16   C     C_3   0.741649 0.029889 0.804690 0.586008
H25   H     H_    0.190812 0.486176 0.411485 0.024075
H26   H     H_    0.189873 0.529748 0.866064 -0.057752
H27   H     H_    0.726323 0.980283 0.424909 0.030926
H28   H     H_    0.726422 0.020291 0.922980 0.028996
C17   C     C_3   0.302894 0.440792 0.428253 0.132066
C18   C     C_3   0.315497 0.532265 0.952483 0.192835
C19   C     C_3   0.817201 0.931274 0.327656 0.164376
C20   C     C_3   0.818633 0.068141 0.826798 0.166886
H29   H     H_    0.338911 0.482026 0.499136 0.175793
H30   H     H_    0.315569 0.487192 0.033269 0.152185
H31   H     H_    0.863333 0.961495 0.408035 0.105568
H32   H     H_    0.863931 0.037810 0.908634 0.104696
H33   H     H_    0.290153 0.401335 0.512590 -0.013591
H34   H     H_    0.315730 0.581071 0.021387 -0.003729
H35   H     H_    0.812863 0.878742 0.379182 0.005135
H36   H     H_    0.814646 0.120877 0.876963 0.004523
Ba1   Ba    Ba6+2 1.000000 0.447380 0.844850 1.781218
Ba2   Ba    Ba6+2 0.000000 0.552620 0.344850 1.789001
Ba3   Ba    Ba6+2 0.500000 0.947380 0.844850 1.791041
Ba4   Ba    Ba6+2 0.500000 0.052620 0.344850 1.801073
C21   C     C_3   0.741199 0.522428 0.040288 0.496202
C22   C     C_3   0.741590 0.480126 0.549616 0.511738
C23   C     C_3   0.242983 0.019500 0.051015 0.542764
C24   C     C_3   0.242494 0.980196 0.551149 0.543242
H37   H     H_    0.785344 0.522278 0.154150 0.107464
H38   H     H_    0.782524 0.486761 0.666667 0.103076
H39   H     H_    0.288438 0.018303 0.162702 0.089001
H40   H     H_    0.288514 0.980503 0.661769 0.089152
C25   C     C_3   0.662096 0.500347 0.067214 -0.249376
C26   C     C_3   0.657846 0.494913 0.562409 -0.245372
C27   C     C_3   0.167273 0.990617 0.081890 -0.209817
C28   C     C_3   0.167856 0.009706 0.584576 -0.209380
H41   H     H_    0.631991 0.463659 0.974114 0.168919
H42   H     H_    0.631257 0.534018 0.472258 0.197022
H43   H     H_    0.129663 0.969323 0.970660 0.182826
H44   H     H_    0.128972 0.029631 0.473321 0.183642
H45   H     H_    0.620926 0.544137 0.062330 0.219569
H46   H     H_    0.619389 0.448672 0.538297 0.219488
H47   H     H_    0.131728 0.029407 0.127543 0.223119
H48   H     H_    0.133420 0.971509 0.635860 0.220506
H49   H     H_    0.671503 0.476253 0.187801 0.144819
H50   H     H_    0.656760 0.513435 0.685400 0.136537
H51   H     H_    0.183187 0.949120 0.171990 0.105093
H52   H     H_    0.185181 0.052107 0.671703 0.100346
O45   O     O_3   0.092100 0.536880 0.086720 -0.462313
O46   O     O_3   0.092100 0.463120 0.586720 -0.493405
O47   O     O_3   0.592100 0.036880 0.086720 -0.438948
O48   O     O_3   0.592100 0.963120 0.586720 -0.439414
P13   P     P_3+3 0.895362 0.728610 0.075975 1.065923
P14   P     P_3+3 0.896586 0.269858 0.578231 1.072682
P15   P     P_3+3 0.401831 0.233882 0.075897 1.065463
P16   P     P_3+3 0.395763 0.769456 0.580636 1.038207
C29   C     C_3   0.999730 0.180008 0.556511 0.419296
C30   C     C_3   0.998260 0.819297 0.053452 0.409684
C31   C     C_3   0.515883 0.691904 0.647288 0.418135
C32   C     C_3   0.531194 0.304115 0.120236 0.389972
H53   H     H_    0.976842 0.139525 0.466671 0.052744
H54   H     H_    0.975732 0.859502 0.962590 0.053152
H55   H     H_    0.528679 0.714260 0.534872 -0.133739
H56   H     H_    0.538780 0.303981 0.994029 -0.089540
H57   H     H_    0.608419 0.621777 0.642260 0.020514
H58   H     H_    0.633033 0.368009 0.169376 -0.001933
H59   H     H_    0.116459 0.143108 0.605280 -0.005793
H60   H     H_    0.115406 0.856487 0.103545 0.002244
H61   H     H_    0.505130 0.660787 0.306507 0.123726
H62   H     H_    0.511503 0.392034 0.811003 0.174998
H63   H     H_    0.015923 0.092210 0.261027 0.164448
H64   H     H_    0.015679 0.906277 0.755748 0.166800
C33   C     C_R   0.143143 0.672847 0.920913 -0.279942
C34   C     C_R   0.132353 0.320109 0.433188 -0.264607
C35   C     C_R   0.633728 0.178836 0.930773 -0.300974
C36   C     C_R   0.630426 0.819025 0.432446 -0.281056
C37   C     C_R   0.857483 0.323212 0.261688 -0.218893
C38   C     C_R   0.856456 0.676287 0.760211 -0.221408
C39   C     C_R   0.352931 0.826451 0.268627 -0.242849
C40   C     C_R   0.354249 0.174513 0.766791 -0.226954
C41   C     C_R   0.789832 0.216118 0.300241 -0.082368
C42   C     C_R   0.788885 0.782953 0.798984 -0.076372
C43   C     C_R   0.288313 0.717122 0.303914 -0.061274
C44   C     C_R   0.288944 0.283040 0.803334 -0.073883
C45   C     C_R   0.845282 0.267837 0.360601 0.032957
C46   C     C_R   0.844200 0.731211 0.859008 0.032507
C47   C     C_R   0.341774 0.770184 0.365907 0.046145
C48   C     C_R   0.343908 0.230982 0.863803 0.037470
C49   C     C_R   0.809621 0.334657 0.108189 0.046737
C50   C     C_R   0.808665 0.664953 0.606939 0.049723
C51   C     C_R   0.308131 0.835697 0.111434 0.035120
C52   C     C_R   0.307823 0.164154 0.611435 0.033437
C53   C     C_R   0.749355 0.282292 0.047637 -0.068883
C54   C     C_R   0.747402 0.716603 0.547175 -0.059316
C55   C     C_R   0.250323 0.781513 0.048715 -0.058333
C56   C     C_R   0.248038 0.216953 0.551038 -0.054156
C57   C     C_R   0.242078 0.720337 0.145113 -0.101398
C58   C     C_R   0.239785 0.278131 0.647467 -0.092176
C59   C     C_R   0.741443 0.220745 0.143744 -0.101562
C60   C     C_R   0.739840 0.778234 0.643119 -0.095258
C61   C     C_R   0.185561 0.665905 0.080456 -0.000115
C62   C     C_R   0.180234 0.330728 0.586404 0.013139
C63   C     C_R   0.681921 0.168091 0.083331 -0.005786
C64   C     C_R   0.680191 0.830847 0.583572 -0.001324
C65   C     C_R   0.151836 0.730416 0.826797 0.064850
C66   C     C_R   0.144368 0.264938 0.334847 0.060695
C67   C     C_R   0.645934 0.233931 0.831927 0.060327
C68   C     C_R   0.641433 0.763340 0.333812 0.039494
C69   C     C_R   0.199007 0.785978 0.895494 0.314133
C70   C     C_R   0.195504 0.211640 0.399239 0.301983
C71   C     C_R   0.696377 0.287912 0.896012 0.299976
C72   C     C_R   0.693385 0.710391 0.396628 0.309421
H65   H     H_    0.283504 0.673473 0.381310 0.160105
H66   H     H_    0.284252 0.326654 0.880712 0.137486
H67   H     H_    0.782865 0.173781 0.379006 0.151307
H68   H     H_    0.782256 0.825214 0.877811 0.153682
H69   H     H_    0.103197 0.632109 0.867345 0.061976
H70   H     H_    0.088019 0.358090 0.384725 0.084232
H71   H     H_    0.588101 0.141552 0.884157 0.096864
H72   H     H_    0.585174 0.856431 0.385783 0.095329
H73   H     H_    0.901746 0.361323 0.311201 0.047272
H74   H     H_    0.900796 0.638402 0.809616 0.040395
H75   H     H_    0.395573 0.865626 0.319742 0.048154
H76   H     H_    0.398188 0.136338 0.816406 0.043345
Br1   Br    Br    0.360800 0.392932 0.296905 -0.468378
Br2   Br    Br    0.409771 0.526687 0.868895 -0.529263
Br3   Br    Br    0.844624 0.925836 0.118322 -0.552275
Br4   Br    Br    0.847254 0.072494 0.618385 -0.558296
Br5   Br    Br    0.730391 0.613900 0.948390 -0.623976
Br6   Br    Br    0.747034 0.387463 0.477061 -0.607495
Br7   Br    Br    0.230620 0.113914 0.976813 -0.549382
Br8   Br    Br    0.226867 0.886446 0.474603 -0.544118
Cl1   Cl    Cl    0.674291 0.366073 0.797809 -0.738355
Cl2   Cl    Cl    0.674078 0.633030 0.294198 -0.714705
Cl3   Cl    Cl    0.172246 0.865114 0.808987 -0.749812
Cl4   Cl    Cl    0.172679 0.133120 0.306684 -0.748109
Br9   Br    Br    0.041633 0.070128 0.774848 -0.590394
Br10  Br    Br    0.039842 0.929929 0.270161 -0.592729
Br11  Br    Br    0.482399 0.554570 0.530063 -0.554022
Br12  Br    Br    0.520261 0.448136 0.197598 -0.509222
Cl5   Cl    Cl    0.178782 0.412291 0.185941 -0.681470
Cl6   Cl    Cl    0.244744 0.602145 0.689496 -0.689357
Cl7   Cl    Cl    0.668570 0.917065 0.187812 -0.675249
Cl8   Cl    Cl    0.670715 0.083050 0.683616 -0.684489

loop_
_geom_bond_atom_site_label_1
_geom_bond_atom_site_label_2
_geom_bond_distance
_ccdc_geom_bond_type
O25   Ba1   2.934495 S    
P1    O17   1.746110 S    
C13   H25   1.103634 S    
C22   Br6   1.899949 S    
P2    Ba2   3.496372 S    
C5    H13   1.111737 S    
C36   H72   1.081719 S    
P3    O19   1.741865 S    
C37   H73   1.082581 S    
P5    O37   1.744176 S    
C8    H12   1.109620 S    
O14   P13   1.545446 D    
C33   H69   1.082225 S    
C7    H15   1.107552 S    
C2    C30   1.499714 S    
P7    O39   1.736046 S    
C2    Br10  1.936530 S    
P8    O40   1.737090 S    
O10   P13   1.744259 S    
P9    O33   1.548478 D    
C1    H7    1.107172 S    
O31   Ba3   2.882929 S    
P1    Ba1   3.493015 S    
C38   C46   1.395537 A    
O12   P15   1.734895 S    
P1    O1    1.552432 D    
O5    Ba2   2.884456 S    
Ba2   O46   2.886842 S    
P8    Ba4   3.495370 S    
C19   H35   1.111282 S    
C3    H5    1.108188 S    
C12   H18   1.108644 S    
P10   O42   1.748848 S    
P3    O3    1.552432 D    
C28   H48   1.097018 S    
C23   C27   1.509281 S    
C22   H38   1.095622 S    
O11   P16   1.755749 S    
P4    O20   1.742826 S    
O41   C5    1.407826 S    
H2    C30   1.114477 S    
C6    H14   1.111555 S    
C40   C48   1.399932 A    
C14   H26   1.110735 S    
C15   H27   1.103596 S    
C17   H33   1.097068 S    
Ba3   Ba4   4.686012 S    
O12   Ba4   2.883473 S    
Ba1   O46   2.994964 S    
O21   C29   1.398153 S    
C50   C54   1.471976 A    
C44   H66   1.080576 S    
P4    O4    1.550916 D    
C29   H53   1.102098 S    
O2    Ba2   2.930796 S    
O17   C21   1.382587 S    
P7    Ba3   3.498802 S    
Ba4   O48   2.886842 S    
C21   Br5   1.920180 S    
P15   C48   1.858871 S    
P6    Ba2   3.495370 S    
C20   Br4   1.934762 S    
C32   H56   1.103225 S    
C56   C58   1.460410 A    
C15   C19   1.510500 S    
O23   P16   1.736884 S    
O24   P15   1.740024 S    
P13   C46   1.858652 S    
C6    H10   1.110981 S    
O23   C31   1.401977 S    
C65   C69   1.398315 A    
O21   P14   1.718479 S    
C31   H55   1.108862 S    
P4    O8    1.617633 S    
P6    O38   1.741015 S    
P4    Ba4   3.496372 S    
C3    Br11  1.938002 S    
C36   C64   1.399525 A    
C57   C61   1.462696 A    
C4    H58   1.105749 S    
O8    Ba3   2.886900 S    
C39   H75   1.082519 S    
P8    O28   1.551734 D    
C11   H61   1.099514 S    
P9    O29   1.729929 S    
C9    H21   1.103862 S    
C24   Br8   1.920244 S    
C42   C46   1.407643 A    
C38   C50   1.398163 A    
C67   C71   1.394624 A    
C9    H63   1.105970 S    
C39   C47   1.399319 A    
P7    O48   1.623107 S    
P2    O2    1.550916 D    
P12   O36   1.549927 D    
C3    C31   1.507682 S    
O9    P14   1.741978 S    
C1    Br9   1.935800 S    
C28   H44   1.103525 S    
C37   C45   1.399687 A    
O29   Ba1   2.882929 S    
C53   C59   1.460705 A    
C7    C11   1.504054 S    
O28   Ba4   2.928620 S    
C17   H29   1.105936 S    
Ba3   O47   2.884395 S    
O20   C24   1.382897 S    
P12   C67   1.864257 S    
Ba2   O45   2.996599 S    
P2    C50   1.943406 S    
O22   C30   1.400421 S    
P1    O5    1.614730 S    
O40   C15   1.396514 S    
C41   H67   1.076189 S    
C13   C17   1.516287 S    
C20   H36   1.110865 S    
C58   C62   1.467237 A    
O37   C14   1.396053 S    
C14   Cl6   1.773760 S    
P10   C65   1.861573 S    
C70   Cl4   1.711658 S    
O30   Ba2   2.884702 S    
O32   Ba4   2.884702 S    
C13   Cl5   1.750229 S    
P9    C66   1.869403 S    
O10   Ba2   2.883473 S    
H1    C29   1.112670 S    
O39   C16   1.396432 S    
C41   C59   1.410157 A    
O27   Ba3   2.934495 S    
C52   C56   1.471460 A    
P14   C45   1.863984 S    
O44   C8    1.410154 S    
O26   Ba2   2.928620 S    
P6    C61   1.922610 S    
C1    H59   1.098622 S    
C3    H57   1.106325 S    
P2    O18   1.738658 S    
P5    C62   1.934648 S    
C33   C65   1.392193 A    
C68   C72   1.394964 A    
Ba4   O47   2.996599 S    
H3    C31   1.108456 S    
C40   C52   1.400306 A    
C12   H24   1.101653 S    
C44   C58   1.411540 A    
H4    C32   1.106878 S    
C41   C45   1.406176 A    
C4    Br12  1.928096 S    
P10   O30   1.726225 S    
P6    O45   1.620171 S    
C23   Br7   1.922867 S    
C16   Cl8   1.758561 S    
O16   P15   1.549266 D    
C54   C72   1.415798 A    
C34   C66   1.395531 A    
P11   O43   1.749121 S    
C69   Cl3   1.713714 S    
P4    C52   1.954828 S    
C5    H9    1.110299 S    
O7    Ba4   2.884456 S    
C37   C49   1.400747 A    
C8    C12   1.515068 S    
O6    Ba1   2.886900 S    
C15   Cl7   1.758216 S    
C5    C9    1.520895 S    
C66   C70   1.395101 A    
C2    H8    1.106576 S    
C11   H17   1.105637 S    
P6    O26   1.551734 D    
O24   C32   1.407468 S    
P16   C47   1.855432 S    
C23   H39   1.094691 S    
C16   C20   1.509394 S    
P9    O41   1.746513 S    
O11   Ba3   2.885244 S    
P11   C68   1.873529 S    
C18   H34   1.107309 S    
C43   H65   1.079774 S    
C72   Cl2   1.721715 S    
P2    O6    1.617633 S    
C60   C64   1.466086 A    
C20   H32   1.101170 S    
C12   H62   1.107765 S    
P11   O31   1.719834 S    
Ba1   Ba2   4.686012 S    
C25   H45   1.106666 S    
P12   O32   1.717381 S    
C17   Br1   1.899493 S    
O18   C22   1.383822 S    
Ba3   O48   2.994964 S    
C26   H50   1.103844 S    
P8    C63   1.930364 S    
C49   C53   1.467862 A    
C36   C68   1.399830 A    
O1    Ba1   2.924983 S    
C39   C51   1.399899 A    
C35   C63   1.394672 A    
O3    Ba3   2.924983 S    
C35   C67   1.395250 A    
C4    C32   1.507577 S    
C34   C62   1.396328 A    
O22   P13   1.719582 S    
C27   H47   1.096963 S    
P12   O44   1.744697 S    
C71   Cl1   1.724057 S    
C33   C61   1.397498 A    
C43   C57   1.410202 A    
C43   C47   1.407100 A    
C24   C28   1.507984 S    
P1    C49   1.945246 S    
C38   H74   1.082679 S    
C21   H37   1.095507 S    
P5    O25   1.550219 D    
C11   H23   1.102442 S    
C55   C69   1.409333 A    
O4    Ba4   2.930796 S    
O15   P16   1.544498 D    
C10   H22   1.103121 S    
C19   H31   1.101388 S    
C25   H49   1.099249 S    
C53   C71   1.413513 A    
C27   H43   1.102965 S    
C4    H6    1.101516 S    
O13   P14   1.546119 D    
C28   H52   1.098416 S    
C35   H71   1.081852 S    
P5    O46   1.623107 S    
C8    H16   1.111729 S    
P3    Ba3   3.493015 S    
C34   H70   1.082070 S    
C7    H11   1.105852 S    
C9    H19   1.110871 S    
P7    O27   1.550219 D    
O42   C6    1.408186 S    
C10   H64   1.106197 S    
P8    O47   1.620171 S    
C10   H20   1.110857 S    
C16   H28   1.104429 S    
P5    Ba1   3.498802 S    
Ba1   O45   2.884395 S    
C18   H30   1.104619 S    
O43   C7    1.410563 S    
C54   C60   1.462486 A    
C6    C10   1.521059 S    
C59   C63   1.463185 A    
C55   C57   1.457592 A    
P3    O7    1.614730 S    
C18   Br2   1.933377 S    
P11   O35   1.548734 D    
C42   H68   1.075952 S    
C25   H41   1.103144 S    
O9    Ba1   2.885244 S    
C44   C48   1.409055 A    
O19   C23   1.383222 S    
C26   H46   1.107744 S    
C30   H54   1.102498 S    
O38   C13   1.392846 S    
C42   C60   1.410484 A    
C26   H42   1.101246 S    
P7    C64   1.943669 S    
C56   C70   1.410494 A    
C1    C29   1.498978 S    
C22   C26   1.520144 S    
C40   H76   1.082477 S    
C21   C25   1.510325 S    
P3    C51   1.950933 S    
C27   H51   1.098143 S    
P10   O34   1.545373 D    
C51   C55   1.469242 A    
C24   H40   1.093503 S    
C14   C18   1.516500 S    
C19   Br3   1.934248 S    
C2    H60   1.100337 S    
