data_mof_unit_10184.cif
_audit_creation_date              2012-12-11T14:24:58-0500
_audit_creation_method            fapswitch 2.2
_symmetry_space_group_name_H-M    P1
_symmetry_Int_Tables_number       1
_space_group_crystal_system       triclinic
_cell_length_a                    19.27924
_cell_length_b                    11.275598
_cell_length_c                    18.699085
_cell_angle_alpha                 89.995974
_cell_angle_beta                  90.702287
_cell_angle_gamma                 89.997891
_cell_volume                      4064.59448123

loop_
_atom_site_label
_atom_site_type_symbol
_atom_type_description
_atom_site_fract_x
_atom_site_fract_y
_atom_site_fract_z
_atom_type_partial_charge
C1    C     C_R   0.728697 0.373290 0.145276 0.535330
C2    C     C_R   0.241209 0.902444 0.069873 -0.008669
C3    C     C_R   0.659937 0.574650 0.429490 -0.077835
C4    C     C_R   0.900493 0.109045 0.537092 -0.141193
C5    C     C_R   0.099543 0.109156 0.462736 -0.141050
C6    C     C_R   0.400499 0.609035 0.537064 -0.141212
C7    C     C_R   0.599546 0.609163 0.462727 -0.141045
C8    C     C_R   0.919022 0.057455 0.472105 -0.141639
C9    C     C_R   0.081006 0.057622 0.527737 -0.141686
C10   C     C_R   0.419027 0.557436 0.472080 -0.141619
C11   C     C_R   0.581006 0.557632 0.527727 -0.141693
C12   C     C_R   0.874084 0.981181 0.437344 -0.078530
C13   C     C_R   0.258788 0.402453 0.930125 -0.008694
C14   C     C_R   0.125954 0.981428 0.562562 -0.078569
C15   C     C_R   0.374092 0.481142 0.437329 -0.078526
C16   C     C_R   0.625955 0.481444 0.562556 -0.078572
C17   C     C_R   0.753150 0.916190 0.426372 -0.013401
C18   C     C_R   0.246872 0.916310 0.573590 -0.013347
C19   C     C_R   0.253154 0.416168 0.426364 -0.013406
C20   C     C_R   0.746872 0.416318 0.573588 -0.013346
C21   C     C_R   0.731663 0.380554 0.353377 0.534378
C22   C     C_R   0.268349 0.380531 0.646607 0.534351
C23   C     C_R   0.231663 0.880553 0.353378 0.534378
C24   C     C_R   0.741209 0.402444 0.069873 -0.008668
C25   C     C_R   0.768347 0.880536 0.646609 0.534348
C26   C     C_R   0.531781 0.157773 0.352546 0.532705
C27   C     C_R   0.468245 0.157786 0.647475 0.532726
C28   C     C_R   0.031780 0.657774 0.352545 0.532707
C29   C     C_R   0.968244 0.657785 0.647474 0.532726
C30   C     C_R   0.742850 0.968739 0.355424 0.537838
C31   C     C_R   0.257154 0.968763 0.644564 0.537837
C32   C     C_R   0.242851 0.468735 0.355422 0.537842
C33   C     C_R   0.757154 0.468764 0.644564 0.537835
C34   C     C_3   0.527903 0.257738 0.969755 -0.066198
C35   C     C_R   0.699868 0.857684 0.967517 0.008112
C36   C     C_3   0.472090 0.257753 0.030221 -0.066200
C37   C     C_3   0.027902 0.757740 0.969755 -0.066196
C38   C     C_3   0.972090 0.757750 0.030221 -0.066201
C39   C     C_3   0.567609 0.160229 0.010340 -0.006344
C40   C     C_3   0.432385 0.160239 0.989657 -0.006368
C41   C     C_3   0.067611 0.660233 0.010339 -0.006345
C42   C     C_3   0.932387 0.660233 0.989656 -0.006369
C43   C     C_3   0.512677 0.160389 0.069147 0.054131
C44   C     C_3   0.487317 0.160366 0.930851 0.054139
C45   C     C_3   0.012679 0.660388 0.069145 0.054132
C46   C     C_R   0.300143 0.857698 0.032494 0.008120
C47   C     C_3   0.987319 0.660366 0.930850 0.054137
C48   C     C_3   0.645125 0.154339 0.022061 -0.361577
C49   C     C_3   0.354868 0.154363 0.977934 -0.361570
C50   C     C_3   0.145128 0.654345 0.022060 -0.361578
C51   C     C_3   0.854871 0.654350 0.977932 -0.361573
C52   C     C_3   0.609256 0.844144 0.860199 -0.365444
C53   C     C_3   0.390740 0.844196 0.139835 -0.365444
C54   C     C_3   0.109256 0.344138 0.860200 -0.365444
C55   C     C_3   0.890739 0.344205 0.139836 -0.365445
C56   C     C_R   0.199869 0.357682 0.967517 0.008110
C57   C     C_R   0.800143 0.357701 0.032494 0.008124
C58   C     C_R   0.705874 0.849805 0.043589 -0.012601
C59   C     C_R   0.294147 0.849809 0.956423 -0.012606
C60   C     C_R   0.205874 0.349805 0.043589 -0.012602
C61   C     C_R   0.271302 0.373289 0.854723 0.535319
C62   C     C_R   0.794147 0.349810 0.956423 -0.012607
C63   C     C_R   0.814053 0.954726 0.043849 -0.133788
C64   C     C_R   0.185940 0.954664 0.956139 -0.133785
C65   C     C_R   0.314053 0.454726 0.043849 -0.133792
C66   C     C_R   0.685940 0.454663 0.956139 -0.133784
C67   C     C_R   0.817137 0.945882 0.970877 0.067153
C68   C     C_R   0.182854 0.945832 0.029111 0.067144
C69   C     C_R   0.317137 0.445881 0.970877 0.067155
C70   C     C_R   0.682854 0.445832 0.029111 0.067143
C71   C     C_R   0.636194 0.815693 0.935084 0.023546
C72   C     C_R   0.228697 0.873290 0.145276 0.535331
C73   C     C_R   0.363827 0.815757 0.064940 0.023525
C74   C     C_R   0.136195 0.315690 0.935085 0.023545
C75   C     C_R   0.863827 0.315763 0.064941 0.023526
C76   C     C_R   0.087489 0.260615 0.978542 -0.104472
C77   C     C_R   0.912565 0.260763 0.021493 -0.104449
C78   C     C_R   0.587489 0.760619 0.978541 -0.104472
C79   C     C_R   0.412565 0.760759 0.021491 -0.104449
C80   C     C_R   0.595561 0.756878 0.052008 -0.100913
C81   C     C_R   0.404500 0.756999 0.948024 -0.100869
C82   C     C_R   0.095562 0.256875 0.052009 -0.100914
C83   C     C_R   0.771302 0.873290 0.854723 0.535319
C84   C     C_R   0.904501 0.257001 0.948026 -0.100868
C85   C     C_R   0.656891 0.788022 0.082796 -0.063045
C86   C     C_R   0.343155 0.788063 0.917229 -0.062993
C87   C     C_R   0.156892 0.288021 0.082796 -0.063044
C88   C     C_R   0.843156 0.288064 0.917230 -0.062995
C89   C     C_R   0.533459 0.154867 0.144580 0.542017
C90   C     C_R   0.466538 0.154859 0.855420 0.541991
C91   C     C_R   0.033460 0.654867 0.144579 0.542018
C92   C     C_R   0.966539 0.654859 0.855419 0.541992
C93   C     C_R   0.757326 0.912936 0.080614 -0.045923
C94   C     C_3   0.472592 0.063450 0.029505 -0.125956
C95   C     C_R   0.242681 0.912908 0.919385 -0.045926
C96   C     C_R   0.257326 0.412937 0.080613 -0.045925
C97   C     C_R   0.742681 0.412907 0.919385 -0.045927
C98   C     C_R   0.499214 0.167333 0.575543 -0.013823
C99   C     C_R   0.500909 0.167281 0.424525 -0.013789
C100  C     C_R   0.999211 0.667331 0.575541 -0.013821
C101  C     C_R   0.000905 0.667283 0.424522 -0.013789
C102  C     C_R   0.508640 0.062423 0.536550 0.043833
C103  C     C_R   0.491604 0.062370 0.463567 0.043892
C104  C     C_R   0.008633 0.562421 0.536546 0.043833
C105  C     C_3   0.527400 0.063430 0.970512 -0.125943
C106  C     C_R   0.991596 0.562371 0.463563 0.043891
C107  C     C_R   0.503458 0.275045 0.462661 -0.146694
C108  C     C_R   0.496620 0.275068 0.537370 -0.146707
C109  C     C_R   0.003453 0.775046 0.462660 -0.146694
C110  C     C_R   0.996616 0.775067 0.537368 -0.146707
C111  C     C_R   0.529079 0.955466 0.568655 -0.079722
C112  C     C_R   0.471166 0.955354 0.431542 -0.079774
C113  C     C_R   0.029070 0.455461 0.568649 -0.079727
C114  C     C_R   0.971157 0.455359 0.431536 -0.079772
C115  C     C_R   0.016752 0.349664 0.533480 -0.140867
C116  C     C_3   0.972598 0.563446 0.029503 -0.125953
C117  C     C_R   0.983394 0.349624 0.466817 -0.141053
C118  C     C_R   0.516762 0.849667 0.533489 -0.140867
C119  C     C_R   0.483404 0.849623 0.466826 -0.141064
C120  C     C_R   0.747994 0.923832 0.575593 -0.014358
C121  C     C_R   0.252053 0.923921 0.424366 -0.014358
C122  C     C_R   0.248002 0.423816 0.575587 -0.014353
C123  C     C_R   0.752055 0.423925 0.424364 -0.014360
C124  C     C_R   0.797468 0.988895 0.537947 0.044313
C125  C     C_R   0.202604 0.989072 0.461989 0.044274
C126  C     C_R   0.297482 0.488863 0.537937 0.044320
C127  C     C_3   0.027404 0.563433 0.970510 -0.125948
C128  C     C_R   0.702608 0.489081 0.461985 0.044271
C129  C     C_R   0.809329 0.957533 0.467056 0.043611
C130  C     C_R   0.190723 0.957756 0.532886 0.043636
C131  C     C_R   0.309339 0.457494 0.467047 0.043602
C132  C     C_R   0.690725 0.457769 0.532883 0.043640
C133  C     C_R   0.696036 0.867534 0.462110 -0.141518
C134  C     C_R   0.303981 0.867600 0.537868 -0.141531
C135  C     C_R   0.196039 0.367519 0.462106 -0.141519
C136  C     C_R   0.803980 0.367604 0.537867 -0.141530
C137  C     C_R   0.743220 0.967571 0.150394 0.529051
C138  C     C_R   0.758788 0.902455 0.930125 -0.008694
C139  C     C_R   0.256782 0.967562 0.849606 0.529076
C140  C     C_R   0.243220 0.467571 0.150394 0.529051
C141  C     C_R   0.756782 0.467562 0.849606 0.529072
C142  C     C_R   0.696284 0.863143 0.536628 -0.141882
C143  C     C_R   0.303755 0.863222 0.463349 -0.141915
C144  C     C_R   0.196288 0.363132 0.536623 -0.141880
C145  C     C_R   0.803754 0.363223 0.463349 -0.141915
C146  C     C_R   0.840142 0.074496 0.570392 -0.077832
C147  C     C_R   0.159932 0.074641 0.429495 -0.077833
C148  C     C_R   0.340155 0.574473 0.570374 -0.077831
Cr1   Cr    Cr6+3 0.772820 0.169820 0.252640 0.994223
Cr2   Cr    Cr6+3 0.383280 0.011130 0.749340 0.997814
Cr3   Cr    Cr6+3 0.116720 0.511130 0.250660 0.997773
Cr4   Cr    Cr6+3 0.883280 0.511130 0.749340 0.997812
Cr5   Cr    Cr6+3 0.227180 0.169820 0.747360 0.994201
Cr6   Cr    Cr6+3 0.272820 0.669820 0.252640 0.994224
Cr7   Cr    Cr6+3 0.727180 0.669820 0.747360 0.994202
Cr8   Cr    Cr6+3 0.615040 0.323610 0.249150 1.039086
Cr9   Cr    Cr6+3 0.384960 0.323610 0.750850 1.039084
Cr10  Cr    Cr6+3 0.115040 0.823610 0.249150 1.039087
Cr11  Cr    Cr6+3 0.884960 0.823610 0.750850 1.039084
Cr12  Cr    Cr6+3 0.616720 0.011130 0.250660 0.997773
H1    H     H_    0.510596 0.358311 0.434959 0.145124
H2    H     H_    0.968624 0.269345 0.440295 0.099586
H3    H     H_    0.531436 0.769416 0.560118 0.099568
H4    H     H_    0.468634 0.769342 0.440307 0.099582
H5    H     H_    0.651281 0.835252 0.432689 0.145410
H6    H     H_    0.348712 0.835238 0.567304 0.145330
H7    H     H_    0.151280 0.335247 0.432686 0.145408
H8    H     H_    0.848710 0.335241 0.567303 0.145339
H9    H     H_    0.828035 0.111502 0.622250 0.121346
H10   H     H_    0.172048 0.111590 0.377623 0.121313
H11   H     H_    0.328049 0.611489 0.622230 0.121350
H12   H     H_    0.489423 0.358344 0.565041 0.145118
H13   H     H_    0.672055 0.611595 0.377617 0.121311
H14   H     H_    0.657347 0.811255 0.563539 0.146305
H15   H     H_    0.342695 0.811316 0.436452 0.146208
H16   H     H_    0.157346 0.311256 0.563536 0.146300
H17   H     H_    0.842691 0.311311 0.436452 0.146213
H18   H     H_    0.933005 0.172368 0.563909 0.101109
H19   H     H_    0.067005 0.172386 0.435858 0.101117
H20   H     H_    0.433004 0.672383 0.563869 0.101112
H21   H     H_    0.567008 0.672388 0.435845 0.101119
H22   H     H_    0.966614 0.077607 0.446197 0.103252
H23   H     H_    0.010591 0.858313 0.434958 0.145118
H24   H     H_    0.033389 0.077735 0.553597 0.103279
H25   H     H_    0.466614 0.577602 0.446164 0.103249
H26   H     H_    0.533387 0.577743 0.553582 0.103287
H27   H     H_    0.888452 0.945459 0.385792 0.123156
H28   H     H_    0.111557 0.945719 0.614110 0.123212
H29   H     H_    0.388455 0.445420 0.385776 0.123147
H30   H     H_    0.611555 0.445737 0.614104 0.123215
H31   H     H_    0.552166 0.331944 0.940351 0.159770
H32   H     H_    0.447820 0.331968 0.059608 0.159797
H33   H     H_    0.052164 0.831948 0.940350 0.159772
H34   H     H_    0.989420 0.858343 0.565040 0.145119
H35   H     H_    0.947818 0.831962 0.059607 0.159796
H36   H     H_    0.449689 0.984930 0.052359 0.136840
H37   H     H_    0.550297 0.984873 0.947691 0.136831
H38   H     H_    0.949700 0.484921 0.052356 0.136842
H39   H     H_    0.050305 0.484880 0.947687 0.136830
H40   H     H_    0.856825 0.996578 0.072269 0.176034
H41   H     H_    0.143160 0.996489 0.927710 0.175994
H42   H     H_    0.356825 0.496579 0.072269 0.176034
H43   H     H_    0.643160 0.496487 0.927709 0.175995
H44   H     H_    0.042656 0.220815 0.955101 0.133169
H45   H     H_    0.552771 0.953262 0.621481 0.122329
H46   H     H_    0.957426 0.221072 0.044940 0.133076
H47   H     H_    0.542655 0.720822 0.955099 0.133166
H48   H     H_    0.457425 0.721065 0.044937 0.133079
H49   H     H_    0.056681 0.222190 0.086872 0.133320
H50   H     H_    0.943402 0.222362 0.913174 0.133263
H51   H     H_    0.556679 0.722193 0.086871 0.133319
H52   H     H_    0.443401 0.722360 0.913171 0.133263
H53   H     H_    0.664612 0.766683 0.138790 0.139872
H54   H     H_    0.335446 0.766707 0.861237 0.139915
H55   H     H_    0.164613 0.266683 0.138791 0.139871
H56   H     H_    0.447446 0.953053 0.378732 0.122407
H57   H     H_    0.835449 0.266708 0.861238 0.139915
H58   H     H_    0.660111 0.214473 0.065819 0.168784
H59   H     H_    0.658476 0.064107 0.038957 0.151436
H60   H     H_    0.672716 0.176559 0.972106 0.128320
H61   H     H_    0.339891 0.214498 0.934161 0.168793
H62   H     H_    0.341516 0.064119 0.961048 0.151432
H63   H     H_    0.327274 0.176605 0.027890 0.128323
H64   H     H_    0.160112 0.714474 0.065820 0.168785
H65   H     H_    0.158479 0.564112 0.038953 0.151431
H66   H     H_    0.172718 0.676570 0.972105 0.128322
H67   H     H_    0.052763 0.453253 0.621474 0.122331
H68   H     H_    0.839891 0.714505 0.934172 0.168787
H69   H     H_    0.841524 0.564115 0.961029 0.151446
H70   H     H_    0.827276 0.676561 0.027892 0.128318
H71   H     H_    0.552719 0.862866 0.859624 0.106488
H72   H     H_    0.634515 0.924214 0.837835 0.132064
H73   H     H_    0.614041 0.765476 0.824920 0.168147
H74   H     H_    0.447276 0.862927 0.140433 0.106502
H75   H     H_    0.365466 0.924257 0.162192 0.132053
H76   H     H_    0.385956 0.765518 0.175111 0.168149
H77   H     H_    0.052719 0.362860 0.859626 0.106487
H78   H     H_    0.947438 0.453061 0.378726 0.122404
H79   H     H_    0.134514 0.424208 0.837835 0.132066
H80   H     H_    0.114041 0.265470 0.824921 0.168148
H81   H     H_    0.947275 0.362938 0.140435 0.106504
H82   H     H_    0.865464 0.424265 0.162192 0.132053
H83   H     H_    0.885956 0.265527 0.175113 0.168148
H84   H     H_    0.031426 0.269411 0.560107 0.099567
I1    I     I_    0.920713 0.983402 0.936012 -0.459561
I2    I     I_    0.079271 0.983295 0.063969 -0.459571
I3    I     I_    0.420713 0.483400 0.936011 -0.459559
I4    I     I_    0.579271 0.483297 0.063969 -0.459572
O1    O     O_R   0.788190 0.043000 0.172520 -0.525487
O2    O     O_R   0.454170 0.051610 0.669840 -0.523288
O3    O     O_R   0.045830 0.551610 0.330160 -0.523364
O4    O     O_R   0.954170 0.551610 0.669840 -0.523290
O5    O     O_R   0.681920 0.959720 0.327070 -0.505634
O6    O     O_R   0.318080 0.959720 0.672930 -0.505595
O7    O     O_R   0.181920 0.459720 0.327070 -0.505634
O8    O     O_R   0.818080 0.459720 0.672930 -0.505596
O9    O     O_3   0.668190 0.168190 0.250820 -0.257047
O10   O     O_3   0.331810 0.168190 0.749180 -0.257054
O11   O     O_3   0.168190 0.668190 0.250820 -0.257048
O12   O     O_R   0.211810 0.043000 0.827480 -0.525477
O13   O     O_3   0.831810 0.668190 0.749180 -0.257051
O14   O     O_R   0.766240 0.292300 0.176860 -0.518536
O15   O     O_R   0.233760 0.292300 0.823140 -0.518530
O16   O     O_R   0.266240 0.792300 0.176860 -0.518537
O17   O     O_R   0.733760 0.792300 0.823140 -0.518530
O18   O     O_R   0.670310 0.409160 0.168720 -0.477872
O19   O     O_R   0.329690 0.409160 0.831280 -0.477847
O20   O     O_R   0.170310 0.909160 0.168720 -0.477871
O21   O     O_R   0.829690 0.909160 0.831280 -0.477849
O22   O     O_R   0.556160 0.251900 0.173380 -0.480177
O23   O     O_R   0.288190 0.543000 0.172520 -0.525491
O24   O     O_R   0.443840 0.251900 0.826620 -0.480210
O25   O     O_R   0.056160 0.751900 0.173380 -0.480177
O26   O     O_R   0.943840 0.751900 0.826620 -0.480209
O27   O     O_R   0.545410 0.050140 0.168240 -0.532907
O28   O     O_R   0.454590 0.050140 0.831760 -0.532922
O29   O     O_R   0.045410 0.550140 0.168240 -0.532910
O30   O     O_R   0.954590 0.550140 0.831760 -0.532922
O31   O     O_R   0.681530 0.958350 0.176970 -0.513120
O32   O     O_R   0.318470 0.958350 0.823030 -0.513123
O33   O     O_R   0.181530 0.458350 0.176970 -0.513120
O34   O     O_R   0.711810 0.543000 0.827480 -0.525474
O35   O     O_R   0.818470 0.458350 0.823030 -0.513126
O36   O     O_R   0.788610 0.044480 0.334450 -0.521239
O37   O     O_R   0.211390 0.044480 0.665550 -0.521307
O38   O     O_R   0.288610 0.544480 0.334450 -0.521230
O39   O     O_R   0.711390 0.544480 0.665550 -0.521310
O40   O     O_R   0.766630 0.293670 0.326970 -0.508549
O41   O     O_R   0.233370 0.293670 0.673030 -0.508573
O42   O     O_R   0.266630 0.793670 0.326970 -0.508546
O43   O     O_R   0.733370 0.793670 0.673030 -0.508574
O44   O     O_R   0.670730 0.410640 0.330640 -0.517943
O45   O     O_R   0.556550 0.253260 0.323480 -0.501006
O46   O     O_R   0.329270 0.410640 0.669360 -0.517962
O47   O     O_R   0.170730 0.910640 0.330640 -0.517945
O48   O     O_R   0.829270 0.910640 0.669360 -0.517955
O49   O     O_R   0.443450 0.253260 0.676520 -0.501012
O50   O     O_R   0.056550 0.753260 0.323480 -0.501004
O51   O     O_R   0.943450 0.753260 0.676520 -0.501012
O52   O     O_R   0.545830 0.051610 0.330160 -0.523366

loop_
_geom_bond_atom_site_label_1
_geom_bond_atom_site_label_2
_ccdc_geom_bond_type
Cr4   O13   S    
C99   C103  A    
C49   H62   S    
Cr1   O14   S    
C143  H15   S    
C23   O42   A    
C50   H64   S    
C43   C89   S    
C25   O43   A    
C111  C118  A    
C94   H36   S    
C66   C97   A    
C115  H84   S    
Cr2   O28   S    
Cr3   O33   S    
Cr2   O6    S    
C82   C87   A    
C100  C104  A    
C10   H25   S    
C98   C108  A    
C88   H57   S    
C67   C138  A    
C78   H47   S    
C61   O19   A    
C38   C45   S    
C134  C143  A    
C54   C74   S    
C65   C96   A    
C123  C145  A    
C26   O45   A    
C81   C86   A    
Cr4   O35   S    
C82   H49   S    
C105  H37   S    
C35   C71   A    
C51   H70   S    
C17   C30   S    
C102  C111  A    
C20   C132  A    
C19   C32   S    
C22   C122  S    
C29   O4    A    
C83   O17   A    
Cr4   O8    S    
C68   I2    S    
C98   C102  A    
Cr9   O24   S    
C62   C88   A    
C34   C39   S    
C103  C112  A    
C37   H33   S    
Cr12  O5    S    
C21   C123  S    
C37   C38   S    
C91   O25   A    
C139  O12   A    
C30   O5    A    
C34   C44   S    
Cr12  O27   S    
Cr7   O17   S    
C20   C33   S    
C42   C116  S    
C17   C133  A    
C50   H66   S    
C14   C130  A    
C31   O6    A    
C84   C88   A    
C95   C139  S    
C28   O3    A    
C9    H24   S    
C29   O51   A    
C66   C70   A    
C32   O7    A    
Cr12  O9    S    
C92   O30   A    
C141  O34   A    
Cr7   O13   S    
Cr8   O18   S    
C51   H68   S    
C89   O27   A    
C41   C45   S    
C90   O28   A    
C18   C31   S    
Cr9   O49   S    
C77   H46   S    
C19   C135  A    
C53   H74   S    
C83   C138  S    
Cr10  O11   S    
C113  C115  A    
C48   H59   S    
Cr11  O21   S    
C55   H82   S    
C47   C92   S    
C27   O49   A    
C24   C70   A    
C44   C105  S    
C38   H35   S    
C5    C9    A    
C133  C142  A    
C74   C76   A    
Cr8   O45   S    
C35   C58   A    
C64   C68   A    
Cr10  O47   S    
C32   O38   A    
C93   C137  S    
C78   C80   A    
C113  H67   S    
C40   C49   S    
C72   O20   A    
C43   C94   S    
C69   I3    S    
C5    H19   S    
C33   O39   A    
C24   C57   A    
C107  C108  A    
C37   C47   S    
C26   C99   S    
C114  H78   S    
C13   C56   A    
C55   C75   S    
C15   H29   S    
Cr11  O51   S    
C16   C132  A    
C28   O50   A    
Cr2   O2    S    
C7    H21   S    
C89   O22   A    
C61   O15   A    
C76   C82   A    
C3    C128  A    
C77   C84   A    
C12   H27   S    
C124  C146  A    
C86   H54   S    
C121  C125  A    
C62   C97   A    
C8    C12   A    
C144  H16   S    
C73   C79   A    
C21   O44   A    
C20   C136  A    
C75   C77   A    
C53   H76   S    
Cr1   O9    S    
C108  H12   S    
Cr4   O4    S    
Cr10  O25   S    
Cr8   O9    S    
C101  C106  A    
C137  O31   A    
C6    H20   S    
C36   H32   S    
C40   C94   S    
C36   C43   S    
C127  H39   S    
C119  H4    S    
C96   C140  S    
C52   H71   S    
C47   C127  S    
C117  H2    S    
C140  O23   A    
C57   C75   A    
C67   I1    S    
C45   C116  S    
C13   C69   A    
Cr6   O38   S    
C34   C36   S    
C112  H56   S    
C37   C41   S    
C102  C103  A    
Cr5   O15   S    
C21   O40   A    
C114  C117  A    
Cr6   O16   S    
C104  C113  A    
C40   C44   S    
C15   C131  A    
C1    C24   S    
C146  H9    S    
C135  H7    S    
C92   O26   A    
C46   C73   A    
C70   I4    S    
C64   H41   S    
C94   C105  S    
C100  C110  A    
C5    C147  A    
C51   H69   S    
C11   H26   S    
C104  C106  A    
C23   C121  S    
C48   H58   S    
C55   H83   S    
C58   C93   A    
C54   H79   S    
C3    C7    A    
C84   H50   S    
Cr8   O22   S    
C101  C109  A    
C148  H11   S    
C63   H40   S    
Cr8   O44   S    
C91   O29   A    
C22   O41   A    
C41   C127  S    
Cr10  O50   S    
C28   C101  S    
C65   H42   S    
C107  H1    S    
Cr5   O41   S    
C115  C117  A    
C116  C127  S    
C134  H6    S    
C111  H45   S    
C147  H10   S    
C49   H61   S    
C109  H23   S    
C49   H63   S    
C31   O37   A    
C2    C72   S    
Cr5   O10   S    
C52   H73   S    
Cr1   O1    S    
C53   C73   S    
C118  H3    S    
C72   O16   A    
C56   C74   A    
C12   C129  A    
Cr3   O11   S    
C139  O32   A    
Cr11  O48   S    
C125  C147  A    
C4    H18   S    
C126  C148  A    
Cr3   O3    S    
C56   C60   A    
C9    C14   A    
C80   C85   A    
C133  H5    S    
C116  H38   S    
C11   C16   A    
Cr11  O13   S    
C26   O52   A    
C97   C141  S    
C16   H30   S    
C60   C96   A    
Cr1   O40   S    
Cr6   O23   S    
C22   O46   A    
C25   C120  S    
C41   C50   S    
C48   H60   S    
C8    H22   S    
C55   H81   S    
C29   C100  S    
Cr11  O26   S    
C33   O8    A    
C54   H77   S    
C6    C10   A    
C112  C119  A    
C137  O1    A    
C99   C107  A    
C63   C93   A    
C2    C68   A    
C52   C71   S    
C109  C110  A    
C65   C69   A    
C23   O47   A    
C124  C129  A    
Cr3   O29   S    
C45   C91   S    
Cr2   O32   S    
C81   H52   S    
C87   H55   S    
C50   H65   S    
Cr5   O12   S    
Cr6   O11   S    
C39   C48   S    
Cr9   O46   S    
C27   C98   S    
C46   C59   A    
C121  C143  A    
C122  C144  A    
C140  O33   A    
C4    C8    A    
C57   C62   A    
C142  H14   S    
C2    C46   A    
C7    C11   A    
C106  C114  A    
C34   H31   S    
C27   O2    A    
C38   C42   S    
C10   C15   A    
C35   C138  A    
C79   H48   S    
C14   H28   S    
C83   O21   A    
C118  C119  A    
C141  O35   A    
C125  C130  A    
C3    H13   S    
C1    O18   A    
C110  H34   S    
C18   C134  A    
C53   H75   S    
C136  C145  A    
C42   C51   S    
Cr12  O31   S    
C59   C95   A    
C128  C132  A    
C60   C87   A    
C19   C131  A    
Cr9   O19   S    
C63   C67   A    
Cr10  O20   S    
C17   C129  A    
C36   C40   S    
C120  C142  A    
C79   C81   A    
C52   H72   S    
C39   C43   S    
C136  H8    S    
Cr6   O42   S    
C1    O14   A    
C122  C126  A    
C85   H53   S    
C6    C148  A    
Cr9   O10   S    
C4    C146  A    
C30   O36   A    
Cr4   O30   S    
C80   H51   S    
C66   H43   S    
C135  C144  A    
C25   O48   A    
Cr7   O39   S    
C58   C85   A    
C44   C90   S    
Cr3   O7    S    
C39   C105  S    
Cr7   O43   S    
C90   O24   A    
C64   C95   A    
C76   H44   S    
Cr7   O34   S    
Cr12  O52   S    
C59   C86   A    
C54   H80   S    
Cr2   O10   S    
Cr5   O37   S    
C123  C128  A    
C126  C131  A    
Cr1   O36   S    
C42   C47   S    
C18   C130  A    
C13   C61   S    
C145  H17   S    
C71   C78   A    
C120  C124  A    
