data_mof_unit_38904.cif
_audit_creation_date              2012-12-11T16:19:16-0500
_audit_creation_method            fapswitch 2.2
_symmetry_space_group_name_H-M    P1
_symmetry_Int_Tables_number       1
_space_group_crystal_system       triclinic
_cell_length_a                    6.906318
_cell_length_b                    31.355523
_cell_length_c                    35.054676
_cell_angle_alpha                 90.001325
_cell_angle_beta                  90.041083
_cell_angle_gamma                 90.00157
_cell_volume                      7591.13064909

loop_
_atom_site_label
_atom_site_type_symbol
_atom_type_description
_atom_site_fract_x
_atom_site_fract_y
_atom_site_fract_z
_atom_type_partial_charge
O1    O     O_R   0.417270 0.211480 0.210950 -0.521956
O2    O     O_R   0.582730 0.788520 0.789050 -0.521957
O3    O     O_R   0.582730 0.788520 0.710950 -0.524555
O4    O     O_R   0.417270 0.211480 0.289050 -0.524560
O5    O     O_R   0.917270 0.288520 0.289050 -0.524576
O6    O     O_R   0.082730 0.711480 0.710950 -0.524564
O7    O     O_R   0.082730 0.711480 0.789050 -0.521877
O8    O     O_R   0.917270 0.288520 0.210950 -0.521879
O9    O     O_R   0.746940 0.206370 0.288750 -0.516670
O10   O     O_R   0.253060 0.793630 0.711250 -0.516671
O11   O     O_R   0.253060 0.793630 0.788750 -0.520305
O12   O     O_R   0.746940 0.206370 0.211250 -0.520303
O13   O     O_R   0.246940 0.293630 0.211250 -0.520233
O14   O     O_R   0.753060 0.706370 0.788750 -0.520238
O15   O     O_R   0.753060 0.706370 0.711250 -0.516639
O16   O     O_R   0.246940 0.293630 0.288750 -0.516651
C1    C     C_R   0.578085 0.196036 0.302120 0.835885
C2    C     C_R   0.421915 0.803964 0.697880 0.835886
C3    C     C_R   0.421985 0.804083 0.801992 0.827965
C4    C     C_R   0.578015 0.195917 0.198008 0.827972
C5    C     C_R   0.078017 0.304084 0.198008 0.827864
C6    C     C_R   0.921983 0.695916 0.801992 0.827851
C7    C     C_R   0.921912 0.696036 0.697879 0.835797
C8    C     C_R   0.078088 0.303964 0.302120 0.835815
O17   O     O_3   0.583760 0.276950 0.250000 -0.350616
O18   O     O_3   0.416240 0.723050 0.750000 -0.350603
O19   O     O_3   0.083760 0.223050 0.250000 -0.350727
O20   O     O_3   0.916240 0.776950 0.750000 -0.350728
V1    V     V_3+5 0.858600 0.245000 0.250000 1.787780
V2    V     V_3+5 0.141400 0.755000 0.750000 1.787796
V3    V     V_3+5 0.358600 0.255000 0.250000 1.787862
V4    V     V_3+5 0.641400 0.745000 0.750000 1.787885
C9    C     C_R   0.818795 0.570526 0.549011 0.613367
C10   C     C_R   0.181213 0.429473 0.450987 0.613377
C11   C     C_R   0.992417 0.412272 0.038765 0.608631
C12   C     C_R   0.007582 0.587728 0.961235 0.608632
C13   C     C_R   0.508803 0.912300 0.961190 0.608667
C14   C     C_R   0.491196 0.087700 0.038810 0.608668
C15   C     C_R   0.681263 0.070510 0.450975 0.613382
C16   C     C_R   0.318737 0.929492 0.549026 0.613373
N1    N     N_R   0.966985 0.573477 0.575016 -0.544647
N2    N     N_R   0.033017 0.426521 0.424984 -0.544657
N3    N     N_R   0.032826 0.426387 0.074987 -0.545471
N4    N     N_R   0.967174 0.573613 0.925013 -0.545471
N5    N     N_R   0.467199 0.926383 0.925013 -0.545510
N6    N     N_R   0.532801 0.073617 0.074987 -0.545509
N7    N     N_R   0.533003 0.073481 0.424987 -0.544653
N8    N     N_R   0.466995 0.926520 0.575015 -0.544650
C17   C     C_R   0.127731 0.547915 0.572033 0.624666
C18   C     C_R   0.872264 0.452080 0.427968 0.624679
C19   C     C_R   0.060672 0.468998 0.082172 0.603230
C20   C     C_R   0.939328 0.531002 0.917829 0.603227
C21   C     C_R   0.438151 0.968962 0.917871 0.603312
C22   C     C_R   0.561849 0.031037 0.082130 0.603312
C23   C     C_R   0.372190 0.047939 0.427986 0.624715
C24   C     C_R   0.627807 0.952064 0.572015 0.624709
C25   C     C_R   0.143856 0.518059 0.542149 -0.043186
C26   C     C_R   0.856142 0.481937 0.457851 -0.043189
C27   C     C_R   0.047901 0.499179 0.052453 -0.044307
C28   C     C_R   0.952098 0.500821 0.947547 -0.044305
C29   C     C_R   0.450865 0.999145 0.947591 -0.044329
C30   C     C_R   0.549134 0.000855 0.052409 -0.044330
C31   C     C_R   0.356076 0.018080 0.457867 -0.043200
C32   C     C_R   0.643922 0.981922 0.542134 -0.043199
C33   C     C_R   0.993253 0.514847 0.515194 -0.012940
C34   C     C_R   0.006748 0.485150 0.484805 -0.012941
C35   C     C_R   0.006704 0.485104 0.015170 -0.013011
C36   C     C_R   0.993295 0.514896 0.984830 -0.013011
C37   C     C_R   0.493302 0.985103 0.984829 -0.012953
C38   C     C_R   0.506698 0.014897 0.015171 -0.012952
C39   C     C_R   0.506743 0.014849 0.484806 -0.012923
C40   C     C_R   0.493255 0.985152 0.515195 -0.012923
C41   C     C_R   0.829246 0.541277 0.518544 -0.048337
C42   C     C_R   0.170758 0.458722 0.481455 -0.048341
C43   C     C_R   0.978852 0.441306 0.008159 -0.047544
C44   C     C_R   0.021147 0.558694 0.991841 -0.047544
C45   C     C_R   0.522405 0.941336 0.991796 -0.047562
C46   C     C_R   0.477595 0.058664 0.008204 -0.047563
C47   C     C_R   0.670810 0.041262 0.481443 -0.048356
C48   C     C_R   0.329189 0.958739 0.518558 -0.048352
C49   C     C_R   0.306392 0.491341 0.538637 -0.132287
C50   C     C_R   0.693606 0.508656 0.461363 -0.132290
C51   C     C_R   0.075666 0.542989 0.059099 -0.124119
C52   C     C_R   0.924334 0.457011 0.940901 -0.124120
C53   C     C_R   0.421844 0.042923 0.940991 -0.124166
C54   C     C_R   0.578156 0.957077 0.059009 -0.124166
C55   C     C_R   0.193488 0.991375 0.461391 -0.132316
C56   C     C_R   0.806510 0.008627 0.538610 -0.132315
C57   C     C_R   0.319557 0.462011 0.508697 -0.141691
C58   C     C_R   0.680447 0.537987 0.491302 -0.141688
C59   C     C_R   0.062461 0.572365 0.029181 -0.124082
C60   C     C_R   0.937538 0.427635 0.970819 -0.124082
C61   C     C_R   0.435036 0.072301 0.970910 -0.124142
C62   C     C_R   0.564964 0.927699 0.029090 -0.124141
C63   C     C_R   0.180333 0.962044 0.491328 -0.141749
C64   C     C_R   0.819666 0.037958 0.508672 -0.141750
O21   O     O_2   0.662641 0.596109 0.552342 -0.498070
O22   O     O_2   0.337377 0.403894 0.447653 -0.498057
O23   O     O_2   0.963581 0.370318 0.032387 -0.491007
O24   O     O_2   0.036417 0.629682 0.967613 -0.491007
O25   O     O_2   0.538768 0.870376 0.967523 -0.490987
O26   O     O_2   0.461232 0.129624 0.032478 -0.490987
O27   O     O_2   0.837490 0.096069 0.447626 -0.498031
O28   O     O_2   0.162512 0.903931 0.552374 -0.498036
O29   O     O_2   0.270998 0.551093 0.598068 -0.494835
O30   O     O_2   0.728989 0.448899 0.401935 -0.494820
O31   O     O_2   0.102180 0.482151 0.117896 -0.496667
O32   O     O_2   0.897821 0.517849 0.882104 -0.496670
O33   O     O_2   0.395522 0.982079 0.882187 -0.496638
O34   O     O_2   0.604479 0.017921 0.117813 -0.496638
O35   O     O_2   0.228845 0.051139 0.401970 -0.494783
O36   O     O_2   0.771150 0.948864 0.598032 -0.494787
H1    H     H_    0.424557 0.493121 0.558908 0.174861
H2    H     H_    0.575440 0.506875 0.441092 0.174863
H3    H     H_    0.107671 0.554757 0.087459 0.181974
H4    H     H_    0.892329 0.445243 0.912541 0.181973
H5    H     H_    0.388857 0.054664 0.912667 0.181951
H6    H     H_    0.611143 0.945335 0.087333 0.181951
H7    H     H_    0.075271 0.993168 0.441132 0.174878
H8    H     H_    0.924727 0.006834 0.558870 0.174877
C65   C     C_R   0.187352 0.399794 0.366016 -0.089590
C66   C     C_R   0.812605 0.600212 0.633977 -0.089606
C67   C     C_R   0.090602 0.603275 0.864409 -0.094168
C68   C     C_R   0.909397 0.396725 0.135591 -0.094167
C69   C     C_R   0.409654 0.103211 0.135638 -0.094229
C70   C     C_R   0.590345 0.896789 0.864362 -0.094229
C71   C     C_R   0.312668 0.899795 0.633986 -0.089563
C72   C     C_R   0.687319 0.100204 0.366013 -0.089562
H9    H     H_    0.287731 0.426313 0.367153 0.193337
H10   H     H_    0.712191 0.573699 0.632834 0.193353
H11   H     H_    0.204966 0.579636 0.864780 0.178005
H12   H     H_    0.795033 0.420364 0.135220 0.178006
H13   H     H_    0.295512 0.079518 0.135304 0.177969
H14   H     H_    0.704487 0.920482 0.864696 0.177969
H15   H     H_    0.212295 0.926316 0.632852 0.193366
H16   H     H_    0.787682 0.073682 0.367147 0.193363
C73   C     C_R   0.199341 0.370326 0.336010 0.321667
C74   C     C_R   0.800612 0.629681 0.663982 0.321689
C75   C     C_R   0.080589 0.632689 0.834351 0.325621
C76   C     C_R   0.919410 0.367311 0.165649 0.325630
C77   C     C_R   0.419659 0.132631 0.165693 0.325407
C78   C     C_R   0.580341 0.867369 0.834307 0.325405
C79   C     C_R   0.300675 0.870327 0.663991 0.321678
C80   C     C_R   0.699311 0.129671 0.336007 0.321684
C81   C     C_R   0.067612 0.335644 0.333886 -0.210867
C82   C     C_R   0.932388 0.664355 0.666113 -0.210879
C83   C     C_R   0.932009 0.663924 0.833461 -0.209084
C84   C     C_R   0.067991 0.336076 0.166539 -0.209083
C85   C     C_R   0.567984 0.163926 0.166538 -0.209086
C86   C     C_R   0.432016 0.836074 0.833462 -0.209085
C87   C     C_R   0.432398 0.835645 0.666114 -0.210862
C88   C     C_R   0.567602 0.164356 0.333886 -0.210843
C89   C     C_R   0.925174 0.331723 0.362879 0.346894
C90   C     C_R   0.074874 0.668267 0.637128 0.346909
C91   C     C_R   0.794606 0.664359 0.863530 0.347342
C92   C     C_R   0.205395 0.335642 0.136470 0.347343
C93   C     C_R   0.705126 0.164424 0.136425 0.347210
C94   C     C_R   0.294874 0.835576 0.863575 0.347210
C95   C     C_R   0.574833 0.831724 0.637120 0.346875
C96   C     C_R   0.425182 0.168280 0.362882 0.346879
C97   C     C_R   0.915068 0.361694 0.392452 -0.089097
C98   C     C_R   0.084978 0.638297 0.607554 -0.089090
C99   C     C_R   0.806992 0.634585 0.893286 -0.103163
C100  C     C_R   0.193008 0.365416 0.106714 -0.103162
C101  C     C_R   0.692718 0.134654 0.106665 -0.103154
C102  C     C_R   0.307283 0.865346 0.893335 -0.103155
C103  C     C_R   0.584937 0.861692 0.607546 -0.089089
C104  C     C_R   0.415077 0.138311 0.392456 -0.089088
C105  C     C_R   0.045334 0.395820 0.394283 0.226825
C106  C     C_R   0.954668 0.604178 0.605717 0.226819
C107  C     C_R   0.954677 0.603982 0.894025 0.234935
C108  C     C_R   0.045323 0.396018 0.105975 0.234935
C109  C     C_R   0.545303 0.103985 0.105975 0.235100
C110  C     C_R   0.454697 0.896014 0.894025 0.235100
C111  C     C_R   0.454678 0.895820 0.605716 0.226795
C112  C     C_R   0.545322 0.104181 0.394285 0.226791
H17   H     H_    0.447327 0.442086 0.506881 0.176179
H18   H     H_    0.552678 0.557912 0.493117 0.176179
H19   H     H_    0.084746 0.605833 0.035438 0.182704
H20   H     H_    0.915253 0.394167 0.964562 0.182703
H21   H     H_    0.411761 0.105744 0.964688 0.182687
H22   H     H_    0.588238 0.894256 0.035312 0.182687
H23   H     H_    0.052518 0.942130 0.493154 0.176189
H24   H     H_    0.947481 0.057871 0.506847 0.176189
Cl1   Cl    Cl    0.377196 0.379670 0.300922 -0.516356
Cl2   Cl    Cl    0.622683 0.620347 0.699059 -0.516334
Cl3   Cl    Cl    0.253798 0.627754 0.797679 -0.526460
Cl4   Cl    Cl    0.746199 0.372245 0.202320 -0.526444
Cl5   Cl    Cl    0.246790 0.127637 0.202421 -0.526551
Cl6   Cl    Cl    0.753209 0.872363 0.797579 -0.526554
Cl7   Cl    Cl    0.122824 0.879673 0.699082 -0.516247
Cl8   Cl    Cl    0.877144 0.120324 0.300916 -0.516257
Cl9   Cl    Cl    0.760750 0.288709 0.364763 -0.545090
Cl10  Cl    Cl    0.239366 0.711271 0.635251 -0.545079
Cl11  Cl    Cl    0.608984 0.702865 0.866366 -0.540084
Cl12  Cl    Cl    0.391019 0.297135 0.133635 -0.540084
Cl13  Cl    Cl    0.890419 0.203005 0.133549 -0.540191
Cl14  Cl    Cl    0.109582 0.796995 0.866452 -0.540190
Cl15  Cl    Cl    0.739253 0.788708 0.635234 -0.545094
Cl16  Cl    Cl    0.260780 0.211296 0.364769 -0.545083
H25   H     H_    0.806291 0.358204 0.414484 0.190080
H26   H     H_    0.193789 0.641781 0.585528 0.190093
H27   H     H_    0.701536 0.635333 0.916135 0.178429
H28   H     H_    0.298465 0.364667 0.083865 0.178429
H29   H     H_    0.797947 0.135453 0.083777 0.178397
H30   H     H_    0.202054 0.864546 0.916224 0.178397
H31   H     H_    0.693708 0.858200 0.585512 0.190105
H32   H     H_    0.306315 0.141804 0.414491 0.190104

loop_
_geom_bond_atom_site_label_1
_geom_bond_atom_site_label_2
_ccdc_geom_bond_type
O17   V3    S    
C65   C105  A    
C15   O27   S    
C56   C64   A    
O18   V4    S    
O12   V1    S    
O19   V1    S    
C37   C45   A    
C49   C57   A    
C10   N2    A    
C60   H20   S    
C69   C109  A    
C76   C84   A    
C58   H18   S    
C77   C85   A    
O15   V4    S    
C96   Cl16  S    
O16   V3    S    
C30   C54   A    
C75   C83   A    
C98   H26   S    
O8    V1    S    
C42   C57   A    
C97   H25   S    
C92   Cl12  S    
C54   C62   A    
C41   C58   A    
C8    C81   S    
C26   C50   A    
C75   Cl3   S    
C88   C96   A    
C38   C46   A    
C46   C61   A    
C101  C109  A    
C34   C42   A    
C67   C75   A    
C45   C62   A    
O1    V3    S    
C3    C86   S    
C17   C25   A    
C4    C85   S    
C30   C38   A    
O3    C2    A    
C16   N8    A    
C100  H28   S    
C65   C73   A    
C10   C42   A    
O13   V3    S    
O11   C3    A    
C20   C28   A    
C27   C35   A    
C21   C29   A    
C26   C34   A    
C94   Cl14  S    
O11   V2    S    
C69   C77   A    
O20   V2    S    
C66   C106  A    
C23   C31   A    
C31   C55   A    
C104  H32   S    
C57   H17   S    
C56   H8    S    
C11   N3    A    
C69   H13   S    
C73   Cl1   S    
N7    C112  S    
C70   C110  A    
O9    V1    S    
C14   O26   S    
N8    C111  S    
C97   C105  A    
N4    C20   A    
O15   C7    A    
N7    C23   A    
N5    C21   A    
C52   H4    S    
O7    V2    S    
C12   C44   A    
C71   C111  A    
O12   C4    A    
O3    V4    S    
C101  H29   S    
C61   H21   S    
C64   H24   S    
C19   O31   S    
C11   O23   S    
C70   H14   S    
N1    C17   A    
C68   H12   S    
C68   C76   A    
O5    V1    S    
O17   V1    S    
C7    C82   S    
C95   Cl15  S    
C102  C110  A    
C72   C112  A    
O19   V3    S    
C35   C36   A    
C18   C26   A    
C5    C84   S    
C51   H3    S    
O20   V4    S    
C77   Cl5   S    
C50   H2    S    
C54   H6    S    
C33   C41   A    
C93   C101  A    
C78   C86   A    
C17   O29   S    
C80   Cl8   S    
C91   C99   A    
C15   N7    A    
C13   C45   A    
C70   C78   A    
C39   C47   A    
C55   C63   A    
C22   O34   S    
C15   C47   A    
C82   C90   A    
C55   H7    S    
C27   C51   A    
N2    C105  S    
C16   O28   S    
C49   H1    S    
O10   V2    S    
C52   C60   A    
C53   C61   A    
C98   C106  A    
C99   H27   S    
C67   H11   S    
N6    C22   A    
C16   C48   A    
O8    C5    A    
N6    C109  S    
O13   C5    A    
C12   O24   S    
C71   C79   A    
O9    C1    A    
C48   C63   A    
C53   H5    S    
C72   C80   A    
C66   C74   A    
C29   C53   A    
C43   C60   A    
N2    C18   A    
C104  C112  A    
O4    C1    A    
C9    C41   A    
O6    V2    S    
C31   C39   A    
O18   V2    S    
C25   C49   A    
C12   N4    A    
C1    C88   S    
C35   C43   A    
C13   N5    A    
C2    C87   S    
C99   C107  A    
C94   C102  A    
C103  C111  A    
C23   O35   S    
C29   C37   A    
N8    C24   A    
C65   H9    S    
O1    C4    A    
C86   C94   A    
C63   H23   S    
C74   Cl2   S    
O2    C3    A    
C90   C98   A    
C11   C43   A    
C102  H30   S    
C59   H19   S    
N3    C108  S    
C73   C81   A    
C83   C91   A    
C36   C44   A    
O7    C6    A    
C62   H22   S    
N1    C106  S    
C14   C46   A    
C50   C58   A    
C87   C95   A    
C74   C82   A    
C9    N1    A    
C95   C103  A    
O14   C6    A    
C72   H16   S    
N4    C107  S    
C81   C89   A    
C39   C40   A    
C40   C48   A    
C24   O36   S    
N5    C110  S    
C92   C100  A    
C13   O25   S    
C28   C52   A    
N3    C19   A    
C24   C32   A    
O5    C8    A    
C85   C93   A    
O10   C2    A    
O6    C7    A    
C51   C59   A    
C79   C87   A    
C76   Cl4   S    
C10   O22   S    
C32   C56   A    
C89   Cl9   S    
C93   Cl13  S    
C68   C108  A    
C32   C40   A    
C37   C38   A    
C71   H15   S    
C96   C104  A    
C14   N6    A    
O4    V3    S    
C100  C108  A    
C44   C59   A    
C90   Cl10  S    
C47   C64   A    
C19   C27   A    
C6    C83   S    
C28   C36   A    
O16   C8    A    
C33   C34   A    
C89   C97   A    
C18   O30   S    
C79   Cl7   S    
C22   C30   A    
C20   O32   S    
C21   O33   S    
C84   C92   A    
C9    O21   S    
O14   V4    S    
C66   H10   S    
C91   Cl11  S    
C67   C107  A    
C80   C88   A    
C103  H31   S    
O2    V4    S    
C25   C33   A    
C78   Cl6   S    
