data_mof_unit_52087.cif
_audit_creation_date              2012-12-10T19:01:19-0500
_audit_creation_method            fapswitch 2.2
_symmetry_space_group_name_H-M    P1
_symmetry_Int_Tables_number       1
_space_group_crystal_system       triclinic
_cell_length_a                    9.546898
_cell_length_b                    10.82307
_cell_length_c                    15.468029
_cell_angle_alpha                 89.832169
_cell_angle_beta                  74.413961
_cell_angle_gamma                 90.075198
_cell_volume                      1539.47967826

loop_
_atom_site_label
_atom_site_type_symbol
_atom_type_description
_atom_site_fract_x
_atom_site_fract_y
_atom_site_fract_z
_atom_type_partial_charge
C1    C     C_R   0.999623 0.262376 0.500669 0.800211
C2    C     C_R   0.679091 0.503815 0.909708 0.066775
C3    C     C_R   0.774400 0.451013 0.956354 0.108359
C4    C     C_R   0.532853 0.533674 0.956950 0.079175
C5    C     C_R   0.480429 0.501750 0.049408 0.069167
C6    C     C_R   0.579465 0.452539 0.093835 -0.215132
C7    C     C_R   0.722878 0.428645 0.048472 -0.239322
C8    C     C_R   0.437670 0.595596 0.915077 -0.217890
C9    C     C_R   0.294776 0.620877 0.961015 -0.217625
C10   C     C_R   0.240412 0.585351 0.050159 0.159409
C11   C     C_R   0.331521 0.523411 0.095021 0.094005
C12   C     C_R   0.918343 0.498337 0.672114 0.808199
C13   C     C_R   0.095565 0.612640 0.095325 -0.218964
C14   C     C_R   0.040032 0.580407 0.185185 -0.204896
C15   C     C_R   0.270018 0.486206 0.184400 -0.248754
C16   C     C_R   0.125089 0.063579 0.500627 0.107846
C17   C     C_R   0.996850 0.129189 0.507211 -0.068516
C18   C     C_R   0.864388 0.064223 0.525686 -0.216305
C19   C     C_R   0.864233 0.935360 0.526297 -0.216073
C20   C     C_R   0.996490 0.870692 0.508999 -0.080136
C21   C     C_R   0.124601 0.936519 0.502659 0.081360
C22   C     C_3   0.269329 0.927712 0.435289 -0.456761
C23   C     C_R   0.999492 0.737624 0.501282 0.802701
C24   C     C_3   0.270230 0.068401 0.432371 -0.054275
C25   C     C_R   0.593479 0.589856 0.455114 0.256844
C26   C     C_R   0.552097 0.418407 0.550966 -0.077790
C27   C     C_R   0.403206 0.418407 0.550982 -0.090238
C28   C     C_R   0.446098 0.589855 0.455037 0.259618
C29   C     C_3   0.484032 0.615929 0.356680 -0.493443
C30   C     C_3   0.642589 0.616002 0.357007 -0.519431
C31   C     C_R   0.081792 0.502303 0.327951 0.799258
C32   C     C_R   0.873887 0.489613 0.770349 -0.110734
C33   C     C_R   0.128026 0.518746 0.230374 -0.047508
C34   C     C_R   0.919272 0.420173 0.909243 0.141111
C35   C     C_R   0.968030 0.441950 0.817190 -0.170790
C36   C     C_R   0.731677 0.520457 0.816366 -0.258969
Cu1   Cu    Cu3+1 0.140670 0.499980 0.500000 0.932835
Cu2   Cu    Cu3+1 0.859330 0.500020 0.500000 0.937520
H1    H     H_    0.792531 0.390911 0.086775 0.147955
H2    H     H_    0.025977 0.660894 0.061444 0.144047
H3    H     H_    0.761798 0.112325 0.536085 0.156372
H4    H     H_    0.761615 0.886990 0.536654 0.159805
H5    H     H_    0.353632 0.888952 0.465106 0.165960
H6    H     H_    0.262433 0.882731 0.371957 0.204770
H7    H     H_    0.357327 0.112124 0.457466 0.138830
H8    H     H_    0.590422 0.350760 0.590855 0.138226
H9    H     H_    0.329876 0.350814 0.590886 0.135815
H10   H     H_    0.456902 0.538227 0.317387 0.212738
H11   H     H_    0.330019 0.432256 0.220756 0.131027
H12   H     H_    0.445086 0.707920 0.341326 0.192286
H13   H     H_    0.704332 0.537983 0.318213 0.213860
H14   H     H_    0.695248 0.708174 0.342305 0.193873
H15   H     H_    0.930568 0.607770 0.219922 0.150242
H16   H     H_    0.077922 0.415849 0.781597 0.165308
H17   H     H_    0.662839 0.553511 0.776592 0.157271
H18   H     H_    0.550968 0.433519 0.164749 0.135630
H19   H     H_    0.470620 0.629605 0.847183 0.141271
N1    N     N_R   0.648210 0.500930 0.499430 -0.184667
N2    N     N_R   0.352300 0.500890 0.499430 -0.185121
O1    O     O_R   0.118810 0.319640 0.500000 -0.594114
O2    O     O_R   0.881230 0.319680 0.499990 -0.584842
O3    O     O_R   0.055580 0.499970 0.629840 -0.584604
O4    O     O_R   0.818000 0.500010 0.629830 -0.584132
O5    O     O_R   0.118770 0.680320 0.500010 -0.575554
O6    O     O_R   0.881190 0.680360 0.500000 -0.586395
O7    O     O_R   0.182000 0.499990 0.370170 -0.588360
O8    O     O_R   0.944420 0.500030 0.370160 -0.580048
N3    N     N_3   0.260945 0.116036 0.345543 -0.564803
H20   H     H_    0.358367 0.094149 0.298181 0.221800
H21   H     H_    0.257857 0.212428 0.349170 0.228275
H22   H     H_    0.226219 0.669046 0.926326 0.147288
N4    N     N_3   0.017338 0.361148 0.952027 -0.600523
H23   H     H_    0.971225 0.277477 0.979736 0.219295
H24   H     H_    0.031109 0.417747 0.003559 0.230379

loop_
_geom_bond_atom_site_label_1
_geom_bond_atom_site_label_2
_ccdc_geom_bond_type
C8    C9    A    
C31   O7    A    
C30   H13   S    
C16   C21   A    
C19   C20   A    
C4    C8    A    
C14   C33   A    
Cu1   O3    S    
C25   C28   A    
C31   O8    A    
C26   C27   A    
Cu1   Cu2   S    
C24   H7    S    
C32   C36   A    
C28   C29   S    
C5    C11   A    
C3    C7    A    
C5    C6    A    
C27   H9    S    
C18   C19   A    
C34   C35   A    
C13   H2    S    
Cu2   N1    S    
C11   C15   A    
C22   H6    S    
C16   C17   A    
C31   C33   S    
C9    C10   A    
C19   H4    S    
Cu2   O2    S    
C16   C24   S    
C13   C14   A    
C12   C32   S    
C35   H16   S    
C29   H12   S    
C29   H10   S    
C32   C35   A    
N4    H24   S    
C18   H3    S    
C12   O4    A    
C26   H8    S    
N4    H23   S    
C3    C34   A    
C2    C4    A    
C29   C30   S    
C8    H19   S    
C12   O3    A    
C22   H5    S    
C20   C23   S    
Cu1   O7    S    
C17   C18   A    
C20   C21   A    
C26   N1    A    
Cu1   N2    S    
C23   O5    A    
C22   C24   S    
C1    O1    A    
C25   N1    A    
C34   N4    S    
Cu1   O5    S    
Cu2   O4    S    
C28   N2    A    
C2    C36   A    
C25   C30   S    
C30   H14   S    
N3    H20   S    
C9    H22   S    
C6    H18   S    
C4    C5    A    
C10   C13   A    
C1    O2    A    
C6    C7    A    
C1    C17   S    
C23   O6    A    
C2    C3    A    
C36   H17   S    
C27   N2    A    
C15   H11   S    
Cu1   O1    S    
C10   C11   A    
C24   N3    S    
C14   H15   S    
Cu2   O8    S    
N3    H21   S    
C7    H1    S    
C21   C22   S    
Cu2   O6    S    
C15   C33   A    
