data_mof_unit_33352.cif
_audit_creation_date              2012-12-10T16:46:46-0500
_audit_creation_method            fapswitch 2.2
_symmetry_space_group_name_H-M    P1
_symmetry_Int_Tables_number       1
_space_group_crystal_system       triclinic
_cell_length_a                    15.845972
_cell_length_b                    8.68673
_cell_length_c                    7.450711
_cell_angle_alpha                 103.094377
_cell_angle_beta                  94.039084
_cell_angle_gamma                 92.168817
_cell_volume                      994.910827187

loop_
_atom_site_label
_atom_site_type_symbol
_atom_type_description
_atom_site_fract_x
_atom_site_fract_y
_atom_site_fract_z
_atom_type_partial_charge
C1    C     C_R   0.497363 0.199680 0.453188 0.880512
C2    C     C_3   0.957453 0.608533 0.680956 -0.395609
C3    C     C_3   0.917245 0.501072 0.497217 0.273003
C4    C     C_3   0.948894 0.564514 0.334166 -0.390704
C5    C     C_3   0.046715 0.564841 0.339204 -0.364674
C6    C     C_1   0.824901 0.500282 0.492816 -0.093579
C7    C     C_1   0.175336 0.501444 0.508758 -0.091063
C8    C     C_1   0.250884 0.500734 0.507861 -0.184650
C9    C     C_2   0.495975 0.031701 0.426932 -0.371789
C10   C     C_2   0.503490 0.968262 0.573079 -0.372461
C11   C     C_R   0.340330 0.499883 0.502618 0.822457
C12   C     C_R   0.502412 0.800306 0.546820 0.880022
C13   C     C_R   0.659701 0.500144 0.497409 0.823432
C14   C     C_3   0.055799 0.609298 0.688418 0.359319
C15   C     C_3   0.044996 0.331888 0.486728 -0.479832
C16   C     C_3   0.947169 0.331246 0.482489 -0.391686
C17   C     C_1   0.749247 0.499964 0.492547 -0.175855
C18   C     C_3   0.083089 0.502525 0.506468 0.266237
Cu1   Cu    Cu3+1 0.509300 0.517380 0.684380 0.948519
Cu2   Cu    Cu3+1 0.490700 0.482620 0.315620 0.948186
H1    H     H_    0.935099 0.565584 0.800328 0.117281
H2    H     H_    0.936077 0.731036 0.694799 0.187441
H3    H     H_    0.920784 0.489403 0.200313 0.163761
H4    H     H_    0.488855 0.959907 0.286176 0.178893
H5    H     H_    0.510567 0.040055 0.713834 0.179157
H6    H     H_    0.434864 0.376764 0.948639 0.224541
H7    H     H_    0.565119 0.623261 0.051369 0.225860
H8    H     H_    0.077267 0.555425 0.805583 0.041429
H9    H     H_    0.063525 0.253587 0.357099 0.194642
H10   H     H_    0.070311 0.282703 0.603970 0.168737
H11   H     H_    0.925499 0.283458 0.599066 0.169081
H12   H     H_    0.918877 0.251388 0.351799 0.176420
H13   H     H_    0.073091 0.687038 0.348918 0.207497
H14   H     H_    0.065593 0.489738 0.207840 0.152388
H15   H     H_    0.928406 0.686904 0.342214 0.169530
N1    N     N_2   0.476670 0.456430 0.038530 -0.216753
N2    N     N_2   0.523330 0.543570 0.961470 -0.215726
O1    O     O_R   0.506050 0.286130 0.619770 -0.583620
O2    O     O_R   0.490330 0.256780 0.308370 -0.587030
O3    O     O_R   0.387300 0.514690 0.655770 -0.586599
O4    O     O_R   0.371580 0.485340 0.344370 -0.576883
O5    O     O_R   0.509670 0.743220 0.691630 -0.587209
O6    O     O_R   0.493950 0.713870 0.380230 -0.584264
O7    O     O_R   0.628420 0.514660 0.655630 -0.575330
O8    O     O_R   0.612700 0.485310 0.344230 -0.582874
O9    O     O_3   0.089025 0.767456 0.708500 -0.617862
C19   C     C_3   0.146492 0.817591 0.867264 0.063778
H16   H     H_    0.187933 0.916332 0.844590 0.168533
H17   H     H_    0.189478 0.723416 0.888374 0.134056
C20   C     C_3   0.098881 0.879203 0.039066 -0.382146
H18   H     H_    0.059971 0.978048 0.016677 0.222956
H19   H     H_    0.055618 0.783386 0.062503 0.204731
C21   C     C_3   0.160166 0.938005 0.210662 -0.924630
H20   H     H_    0.199801 0.840969 0.235690 0.262943
H21   H     H_    0.123843 0.979005 0.333126 0.260568
H22   H     H_    0.201875 0.038466 0.193382 0.256917

loop_
_geom_bond_atom_site_label_1
_geom_bond_atom_site_label_2
_ccdc_geom_bond_type
C2    H2    S    
C15   C18   S    
C20   H19   S    
C9    H4    S    
C15   H9    S    
Cu1   O1    S    
C16   H12   S    
C9    C10   D    
C14   C18   S    
C19   H16   S    
Cu1   O5    S    
C13   C17   S    
C3    C6    S    
C14   H8    S    
C5    H14   S    
C7    C18   S    
C2    H1    S    
C2    C3    S    
C4    H15   S    
C7    C8    T    
C14   O9    S    
C21   H20   S    
C16   H11   S    
C13   O8    A    
C10   C12   S    
C1    O1    A    
H7    N2    S    
C8    C11   S    
Cu2   O4    S    
C10   H5    S    
H6    N1    S    
N1    N2    D    
C11   O4    A    
C19   C20   S    
C21   H21   S    
C11   O3    A    
C2    C14   S    
C20   C21   S    
Cu1   O3    S    
C1    O2    A    
C15   C16   S    
Cu2   N1    S    
Cu2   O8    S    
Cu2   O6    S    
C1    C9    S    
Cu1   O7    S    
C15   H10   S    
C19   H17   S    
C21   H22   S    
C6    C17   T    
Cu2   O2    S    
O9    C19   S    
C12   O5    A    
C5    C18   S    
Cu1   N2    S    
C20   H18   S    
C4    H3    S    
C12   O6    A    
C3    C16   S    
C13   O7    A    
C3    C4    S    
Cu1   Cu2   S    
C4    C5    S    
C5    H13   S    
