data_mof_unit_41822.cif
_audit_creation_date              2012-10-26T19:03:17-0400
_audit_creation_method            fapswitch 2.2
_symmetry_space_group_name_H-M    P1
_symmetry_Int_Tables_number       1
_space_group_crystal_system       triclinic
_cell_length_a                    10.847161
_cell_length_b                    13.203375
_cell_length_c                    11.646318
_cell_angle_alpha                 100.207057
_cell_angle_beta                  96.837327
_cell_angle_gamma                 88.338625
_cell_volume                      1629.84999975

loop_
_atom_site_label
_atom_site_type_symbol
_atom_type_description
_atom_site_fract_x
_atom_site_fract_y
_atom_site_fract_z
_atom_type_partial_charge
C1    C     C_R   0.499206 0.298788 0.477983 0.572463
C2    C     C_R   0.430107 0.127008 0.359568 0.057844
C3    C     C_R   0.543792 0.133992 0.554330 0.038136
C4    C     C_R   0.261360 0.503932 0.497738 0.564579
C5    C     C_R   0.523887 0.027947 0.546783 -0.047615
C6    C     C_R   0.458269 0.969872 0.444726 0.050623
C7    C     C_R   0.449957 0.861699 0.437164 0.109826
C8    C     C_R   0.564525 0.874311 0.633850 0.086386
C9    C     C_R   0.571724 0.979148 0.640601 -0.038363
C10   C     C_R   0.387040 0.400681 0.016012 0.011060
C11   C     C_R   0.395554 0.413669 0.139758 0.047249
C12   C     C_R   0.068033 0.568766 0.582819 -0.023538
C13   C     C_R   0.547760 0.541784 0.160978 0.069362
C14   C     C_R   0.542596 0.534704 0.036851 -0.024660
C15   C     C_R   0.460962 0.462608 0.963027 -0.019751
C16   C     C_R   0.502444 0.700802 0.521099 0.587694
C17   C     C_R   0.453156 0.457542 0.839026 0.095123
C18   C     C_R   0.599315 0.590475 0.860425 0.064062
C19   C     C_R   0.613235 0.599200 0.983986 0.046663
C20   C     C_R   0.738787 0.492789 0.502702 0.585747
C21   C     C_R   0.121436 0.659410 0.654595 0.027029
C22   C     C_R   0.071607 0.700993 0.758479 -0.161630
C23   C     C_R   0.125711 0.507169 0.491560 0.004703
C24   C     C_R   0.977934 0.650202 0.795672 -0.133154
C25   C     C_R   0.922924 0.563003 0.723604 0.053078
C26   C     C_R   0.952956 0.535994 0.606239 -0.031656
C27   C     C_2   0.396109 0.170377 0.251208 0.618903
C28   C     C_2   0.637055 0.185007 0.648369 0.595431
C29   C     C_2   0.301987 0.320455 0.946693 0.542771
C30   C     C_2   0.704931 0.674280 0.052918 0.559777
C31   C     C_2   0.212984 0.722406 0.614533 0.603599
C32   C     C_2   0.866733 0.487829 0.782697 0.603456
C33   C     C_2   0.853527 0.349864 0.322355 0.653201
C34   C     C_R   0.055064 0.434359 0.406976 0.046718
C35   C     C_R   0.927866 0.424948 0.412837 0.074178
C36   C     C_R   0.874837 0.479716 0.510601 -0.008400
C37   C     C_R   0.504668 0.813619 0.531575 0.072193
C38   C     C_R   0.492211 0.185185 0.463190 -0.063693
C39   C     C_R   0.409144 0.021765 0.351595 0.109040
Cu1   Cu    Cu3+1 0.509250 0.507730 0.615930 1.015756
Cu2   Cu    Cu3+1 0.490750 0.492270 0.384070 1.005250
H1    H     H_    0.618062 0.022003 0.721346 0.188041
H2    H     H_    0.455515 0.204976 0.105230 0.351213
H3    H     H_    0.816668 0.179811 0.717776 0.350735
H4    H     H_    0.275089 0.201004 0.812023 0.359497
H5    H     H_    0.846698 0.703789 0.182657 0.352569
H6    H     H_    0.311729 0.760241 0.774949 0.294736
H7    H     H_    0.800463 0.347668 0.775044 0.371063
H8    H     H_    0.725016 0.237828 0.287743 0.374807
H9    H     H_    0.456286 0.759482 0.283802 0.245135
H10   H     H_    0.322878 0.753311 0.350207 0.305473
H11   H     H_    0.558457 0.801060 0.772660 0.281142
H12   H     H_    0.389389 0.405842 0.780253 0.189428
H13   H     H_    0.688980 0.775644 0.701464 0.235718
H14   H     H_    0.259294 0.937206 0.265823 0.283922
H15   H     H_    0.394171 0.918731 0.196475 0.268927
H16   H     H_    0.653760 0.638398 0.819696 0.136919
H17   H     H_    0.338742 0.367938 0.180635 0.170285
H18   H     H_    0.606461 0.597426 0.220004 0.172473
H19   H     H_    0.107524 0.771348 0.813184 0.145430
H20   H     H_    0.951930 0.676997 0.882994 0.184730
H21   H     H_    0.144497 0.409537 0.260851 0.277196
H22   H     H_    0.184388 0.326232 0.356909 0.256619
N1    N     N_R   0.523180 0.519350 0.790130 -0.262980
N2    N     N_R   0.476820 0.480650 0.209890 -0.256787
N3    N     N_3   0.111451 0.366198 0.317361 -0.523477
N4    N     N_3   0.390106 0.801031 0.331749 -0.647025
N5    N     N_3   0.625038 0.832096 0.731360 -0.590414
N6    N     N_3   0.338254 0.970940 0.245831 -0.559718
O1    O     O_R   0.506570 0.354460 0.582000 -0.462306
O2    O     O_R   0.489577 0.187327 0.184115 -0.672447
O3    O     O_2   0.604147 0.237412 0.737108 -0.476001
O4    O     O_R   0.762339 0.160256 0.640484 -0.654793
O5    O     O_2   0.199457 0.310321 0.976823 -0.455220
O6    O     O_R   0.340921 0.253042 0.850830 -0.676043
O7    O     O_2   0.712044 0.759325 0.026377 -0.514344
O8    O     O_R   0.787606 0.646352 0.143872 -0.667332
O9    O     O_2   0.205193 0.729791 0.511065 -0.502920
O10   O     O_R   0.303725 0.778812 0.693657 -0.669816
O11   O     O_2   0.854789 0.509433 0.887392 -0.495355
O12   O     O_R   0.490940 0.341410 0.386200 -0.479327
O13   O     O_R   0.836633 0.389266 0.722370 -0.638197
O14   O     O_2   0.866615 0.343223 0.218400 -0.419957
O15   O     O_R   0.769167 0.286194 0.356722 -0.655511
O16   O     O_R   0.327470 0.506530 0.597920 -0.519820
O17   O     O_R   0.311840 0.493480 0.402120 -0.517583
O18   O     O_R   0.509060 0.658590 0.613800 -0.510035
O19   O     O_R   0.493430 0.645540 0.418000 -0.532889
O20   O     O_R   0.688160 0.506520 0.597880 -0.489553
O21   O     O_R   0.672530 0.493470 0.402080 -0.487435
O22   O     O_2   0.286953 0.182694 0.215945 -0.478215

loop_
_geom_bond_atom_site_label_1
_geom_bond_atom_site_label_2
_ccdc_geom_bond_type
C24   H20   S    
C35   C36   A    
H6    O10   S    
C34   N3    S    
C13   N2    A    
Cu2   O17   S    
C21   C31   S    
C12   C23   A    
C9    H1    S    
Cu1   O1    S    
H8    O15   S    
C3    C28   S    
C34   C35   A    
C10   C15   A    
C17   N1    A    
C22   H19   S    
C5    C6    A    
C4    O17   A    
C1    O12   A    
C18   C19   A    
C30   O8    S    
C2    C39   A    
C3    C38   A    
C8    C9    A    
C16   O18   A    
C27   O22   D    
C2    C27   S    
Cu1   O20   S    
C11   H17   S    
H9    N4    S    
H11   N5    S    
C16   C37   S    
C25   C32   S    
Cu2   O21   S    
H22   N3    S    
C21   C22   A    
C28   O3    D    
C28   O4    S    
C7    C37   A    
H21   N3    S    
C24   C25   A    
C4    C23   S    
Cu2   N2    S    
C29   O5    D    
C25   C26   A    
C20   O21   A    
C12   C21   A    
C12   C26   A    
Cu1   O16   S    
C5    C9    A    
C32   O11   D    
C30   O7    D    
C2    C38   A    
C18   H16   S    
C23   C34   A    
Cu2   O12   S    
C39   N6    S    
H10   N4    S    
C33   O14   D    
H14   N6    S    
C1    C38   S    
C13   H18   S    
C26   C36   A    
Cu1   Cu2   S    
C8    N5    S    
C22   C24   A    
C8    C37   A    
C17   H12   S    
C27   O2    S    
Cu1   O18   S    
C31   O9    D    
C16   O19   A    
C15   C17   A    
Cu2   O19   S    
H2    O2    S    
C14   C15   A    
C14   C19   A    
C3    C5    A    
H5    O8    S    
C31   O10   S    
C6    C7    A    
C29   O6    S    
C32   O13   S    
C20   O20   A    
C1    O1    A    
Cu1   N1    S    
H4    O6    S    
C10   C29   S    
C18   N1    A    
C33   C35   S    
H7    O13   S    
H3    O4    S    
C33   O15   S    
C10   C11   A    
C7    N4    S    
C20   C36   S    
H13   N5    S    
H15   N6    S    
C4    O16   A    
C6    C39   A    
C13   C14   A    
C19   C30   S    
C11   N2    A    
