data_mof_unit_50216.cif
_audit_creation_date              2012-12-10T17:33:02-0500
_audit_creation_method            fapswitch 2.2
_symmetry_space_group_name_H-M    P1
_symmetry_Int_Tables_number       1
_space_group_crystal_system       triclinic
_cell_length_a                    12.421153
_cell_length_b                    13.23341
_cell_length_c                    14.154485
_cell_angle_alpha                 93.029804
_cell_angle_beta                  108.203357
_cell_angle_gamma                 117.122735
_cell_volume                      1913.95763257

loop_
_atom_site_label
_atom_site_type_symbol
_atom_type_description
_atom_site_fract_x
_atom_site_fract_y
_atom_site_fract_z
_atom_type_partial_charge
C1    C     C_R   0.649892 0.713901 0.507244 0.778900
C2    C     C_R   0.822168 0.469610 0.922107 0.036311
C3    C     C_R   0.798939 0.519303 0.999702 0.078383
C4    C     C_R   0.906856 0.421552 0.948134 0.019440
C5    C     C_R   0.991285 0.450936 0.051574 0.057838
C6    C     C_R   0.963025 0.496676 0.127527 -0.221855
C7    C     C_R   0.866085 0.526905 0.101765 -0.194153
C8    C     C_R   0.908054 0.342658 0.876277 0.069773
C9    C     C_R   0.010509 0.317067 0.902229 0.139206
C10   C     C_R   0.111078 0.366008 0.000787 0.081148
C11   C     C_R   0.098963 0.431007 0.076359 -0.002751
C12   C     C_R   0.618958 0.517057 0.687347 0.823856
C13   C     C_R   0.220872 0.347976 0.028002 0.205069
C14   C     C_R   0.310205 0.388029 0.129719 -0.269721
C15   C     C_R   0.196834 0.477225 0.174985 -0.245768
C16   C     C_R   0.140663 0.963624 0.364469 -0.183041
C17   C     C_R   0.248134 0.161540 0.462669 -0.049827
C18   C     C_R   0.723491 0.922703 0.562594 -0.177233
C19   C     C_R   0.810888 0.040061 0.577313 -0.152983
C20   C     C_R   0.913766 0.073768 0.544115 -0.176393
C21   C     C_R   0.927272 0.989700 0.490173 0.084067
C22   C     C_R   0.827410 0.871234 0.463040 0.077861
C23   C     C_R   0.345161 0.285105 0.484839 0.801643
C24   C     C_R   0.035523 0.019596 0.460803 0.070687
C25   C     C_R   0.034580 0.934628 0.394494 0.159725
C26   C     C_R   0.926763 0.822443 0.357369 -0.222170
C27   C     C_R   0.824145 0.791337 0.390322 -0.199210
C28   C     C_R   0.145965 0.131234 0.496918 -0.244238
C29   C     C_R   0.246653 0.076950 0.397776 -0.193222
C30   C     C_R   0.732541 0.836976 0.508243 -0.108048
C31   C     C_R   0.252518 0.686904 0.658047 -0.353267
C32   C     C_R   0.650352 0.346137 0.358803 0.076441
C33   C     C_R   0.724348 0.319473 0.317916 -0.262824
C34   C     C_R   0.378858 0.479888 0.312513 0.802326
C35   C     C_R   0.859798 0.380126 0.365382 -0.209788
C36   C     C_R   0.925110 0.465636 0.458323 0.009561
C37   C     C_R   0.843634 0.494667 0.493130 0.282337
C38   C     C_R   0.065966 0.527254 0.515968 -0.086058
C39   C     C_R   0.118281 0.621932 0.600086 0.122860
C40   C     C_R   0.036891 0.651618 0.628221 -0.250452
C41   C     C_R   0.903042 0.588524 0.577115 -0.193097
C42   C     C_R   0.159257 0.499734 0.499092 0.269998
C43   C     C_R   0.337936 0.658826 0.635316 0.332769
C44   C     C_R   0.681424 0.520228 0.795469 -0.115735
C45   C     C_R   0.297312 0.451034 0.203412 -0.088141
C46   C     C_R   0.711044 0.562626 0.974512 0.441024
C47   C     C_R   0.652112 0.561690 0.871556 -0.286616
C48   C     C_R   0.769822 0.479246 0.822099 -0.276771
Cu1   Cu    Cu3+1 0.416420 0.526630 0.522910 0.966907
Cu2   Cu    Cu3+1 0.583580 0.473370 0.477090 0.916820
H1    H     H_    0.848016 0.560933 0.162904 0.179568
H2    H     H_    0.324823 0.099311 0.370027 0.148888
H3    H     H_    0.921996 0.758086 0.303083 0.157391
H4    H     H_    0.140152 0.899324 0.313346 0.138250
H5    H     H_    0.154999 0.196995 0.551918 0.150134
H6    H     H_    0.649721 0.899153 0.595292 0.158271
H7    H     H_    0.978536 0.166399 0.558996 0.123113
H8    H     H_    0.800981 0.105346 0.617343 0.147847
H9    H     H_    0.740794 0.704884 0.355258 0.178229
H10   H     H_    0.197377 0.535037 0.231869 0.155232
H11   H     H_    0.077212 0.723941 0.692305 0.154903
H12   H     H_    0.291425 0.759383 0.721587 0.148006
H13   H     H_    0.545155 0.300312 0.320350 0.124692
H14   H     H_    0.907464 0.359956 0.322972 0.145289
H15   H     H_    0.676766 0.253595 0.247510 0.146903
H16   H     H_    0.849300 0.617614 0.605278 0.207299
H17   H     H_    0.389556 0.369042 0.151489 0.143303
H18   H     H_    0.587283 0.597252 0.851220 0.161621
H19   H     H_    0.801196 0.458930 0.764546 0.178583
H20   H     H_    0.011369 0.506392 0.208057 0.134801
N1    N     N_R   0.290690 0.566960 0.557640 -0.164125
N2    N     N_R   0.709100 0.433710 0.442970 -0.207484
O1    O     O_R   0.545970 0.684450 0.528810 -0.552146
O2    O     O_R   0.687130 0.639470 0.490120 -0.603242
O3    O     O_R   0.519670 0.535100 0.660030 -0.553257
O4    O     O_R   0.660830 0.490120 0.621340 -0.604483
O5    O     O_R   0.312870 0.360530 0.509880 -0.551648
O6    O     O_R   0.454030 0.315550 0.471190 -0.591390
O7    O     O_R   0.339170 0.509880 0.378660 -0.568860
O8    O     O_R   0.480330 0.464900 0.339970 -0.598580
N3    N     N_3   0.242288 0.289239 0.953328 -0.552837
H21   H     H_    0.321411 0.276415 0.987732 0.199119
H22   H     H_    0.268274 0.344566 0.904605 0.212352
N4    N     N_3   0.475052 0.725335 0.694596 -0.532052
H23   H     H_    0.506517 0.812487 0.691076 0.188399
H24   H     H_    0.489268 0.720866 0.770698 0.185784
N5    N     N_3   0.120762 0.398419 0.427038 -0.533066
H25   H     H_    0.100360 0.412523 0.353243 0.204379
H26   H     H_    0.046552 0.323936 0.435811 0.199723
N6    N     N_3   0.008074 0.236325 0.828621 -0.552877
H27   H     H_    0.006656 0.268145 0.762434 0.212831
H28   H     H_    0.922980 0.155859 0.810680 0.248098
O9    O     O_3   0.697710 0.618240 0.052859 -0.629469
C49   C     C_3   0.565403 0.581114 0.036120 0.040537
H29   H     H_    0.548509 0.552326 0.104966 0.165253
H30   H     H_    0.493246 0.505047 0.970169 0.120469
C50   C     C_3   0.540857 0.683966 0.024233 -0.328724
H31   H     H_    0.604841 0.754172 0.095348 0.229069
H32   H     H_    0.565856 0.719975 0.960205 0.208802
C51   C     C_3   0.398557 0.647606 0.003584 -0.922042
H33   H     H_    0.332357 0.576398 0.933438 0.254204
H34   H     H_    0.383567 0.723350 0.992482 0.254983
H35   H     H_    0.373609 0.617751 0.069497 0.270094
N7    N     N_3   0.796487 0.271129 0.783609 -0.624738
H36   H     H_    0.710080 0.261674 0.787991 0.238540
H37   H     H_    0.812700 0.305299 0.721340 0.214468

loop_
_geom_bond_atom_site_label_1
_geom_bond_atom_site_label_2
_ccdc_geom_bond_type
C24   C25   A    
O9    C49   S    
C17   C29   A    
C15   H10   S    
C19   C20   A    
C48   H19   S    
C4    C8    A    
N7    H37   S    
C50   H31   S    
C33   H15   S    
C32   N2    A    
C26   C27   A    
C17   C23   S    
C31   C43   A    
C1    O2    A    
C1    C30   S    
C36   C37   A    
N4    H24   S    
C38   C42   A    
C3    C7    A    
Cu2   O2    S    
C5    C6    A    
C13   N3    S    
C18   C19   A    
Cu2   N2    S    
C42   N1    A    
C50   H32   S    
C11   C15   A    
C35   C36   A    
C31   C39   A    
C8    C9    A    
C14   H17   S    
Cu1   O3    S    
C35   H14   S    
C18   C30   A    
C9    C10   A    
C44   C47   A    
C18   H6    S    
C34   O8    A    
C21   C22   A    
C43   N4    S    
C31   H12   S    
C37   N2    A    
Cu2   O6    S    
N7    H36   S    
N3    H22   S    
C28   H5    S    
N3    H21   S    
C14   C45   A    
C19   H8    S    
N4    H23   S    
C39   C40   A    
C49   C50   S    
C2    C48   A    
C16   C29   A    
C51   H35   S    
C40   H11   S    
Cu1   O7    S    
C2    C4    A    
Cu2   O4    S    
C34   O7    A    
N6    H28   S    
C51   H34   S    
C34   C45   S    
C23   O5    A    
C49   H30   S    
C8    N7    S    
C6    C7    A    
C40   C41   A    
C22   C27   A    
C12   O4    A    
Cu1   O1    S    
C21   C24   A    
C15   C45   A    
C26   H3    S    
C47   H18   S    
C50   C51   S    
C16   C25   A    
C6    H20   S    
C46   C47   A    
C43   N1    A    
C22   C30   A    
C17   C28   A    
C24   C28   A    
C32   H13   S    
C4    C5    A    
C10   C13   A    
Cu2   O8    S    
C9    N6    S    
C5    C11   A    
C41   H16   S    
C3    C46   A    
C1    O1    A    
C32   C33   A    
C36   C38   A    
C2    C3    A    
C25   C26   A    
C7    H1    S    
C12   C44   S    
C27   H9    S    
N6    H27   S    
C38   C39   A    
C46   O9    S    
C51   H33   S    
C33   C35   A    
Cu1   O5    S    
C23   O6    A    
C37   C41   A    
C49   H29   S    
C16   H4    S    
C10   C11   A    
C20   C21   A    
N5    H25   S    
Cu1   Cu2   S    
Cu1   N1    S    
C12   O3    A    
N5    H26   S    
C42   N5    S    
C20   H7    S    
C13   C14   A    
C44   C48   A    
C29   H2    S    
