data_mof_unit_61149.cif
_audit_creation_date              2012-12-10T19:02:37-0500
_audit_creation_method            fapswitch 2.2
_symmetry_space_group_name_H-M    P1
_symmetry_Int_Tables_number       1
_space_group_crystal_system       triclinic
_cell_length_a                    19.325005
_cell_length_b                    14.259093
_cell_length_c                    13.366822
_cell_angle_alpha                 90.000277
_cell_angle_beta                  89.947727
_cell_angle_gamma                 89.989036
_cell_volume                      3683.32035118

loop_
_atom_site_label
_atom_site_type_symbol
_atom_type_description
_atom_site_fract_x
_atom_site_fract_y
_atom_site_fract_z
_atom_type_partial_charge
C1    C     C_1   0.500000 0.500000 0.049525 -0.045660
C2    C     C_R   0.500010 0.673460 0.500000 0.929565
C3    C     C_R   0.363649 0.499968 0.500057 0.959398
C4    C     C_R   0.636351 0.500031 0.499944 0.959397
C5    C     C_1   0.499988 0.225896 0.500000 -0.223009
C6    C     C_1   0.500011 0.774104 0.500000 -0.223009
C7    C     C_1   0.499990 0.141333 0.500000 -0.003817
C8    C     C_1   0.500010 0.858667 0.500000 -0.003816
C9    C     C_1   0.499997 0.042279 0.500000 0.012014
C10   C     C_1   0.500003 0.957721 0.500000 0.012014
C11   C     C_R   0.252824 0.496154 0.591109 -0.299522
C12   C     C_1   0.500000 0.500000 0.950475 -0.045660
C13   C     C_R   0.747177 0.503871 0.408894 -0.299518
C14   C     C_R   0.747219 0.504427 0.590418 -0.288060
C15   C     C_R   0.252779 0.495607 0.409585 -0.288066
C16   C     C_R   0.180694 0.492624 0.592195 0.498368
C17   C     C_R   0.819307 0.507425 0.407812 0.498369
C18   C     C_R   0.819091 0.507088 0.590916 0.496105
C19   C     C_R   0.180905 0.492970 0.409091 0.496108
C20   C     C_R   0.144708 0.494195 0.500628 -0.155368
C21   C     C_R   0.855290 0.505869 0.499381 -0.155377
C22   C     C_3   0.155377 0.415448 0.737176 -0.264076
C23   C     C_R   0.288670 0.497276 0.500234 -0.198643
C24   C     C_3   0.844617 0.584600 0.262830 -0.264086
C25   C     C_3   0.859906 0.600167 0.714717 -0.282407
C26   C     C_3   0.140075 0.399911 0.285285 -0.282400
C27   C     C_R   0.711330 0.502741 0.499768 -0.198643
C28   C     C_R   0.930433 0.502912 0.499657 0.353199
C29   C     C_R   0.069565 0.497161 0.500357 0.353194
C30   C     C_1   0.500000 0.500000 0.169416 0.068984
C31   C     C_1   0.500000 0.500000 0.830584 0.068984
C32   C     C_R   0.499990 0.326540 0.500000 0.929559
H1    H     H_    0.280736 0.499686 0.661240 0.180115
H2    H     H_    0.791292 0.587817 0.231993 0.150903
H3    H     H_    0.889411 0.643826 0.660338 0.156751
H4    H     H_    0.889017 0.600359 0.786199 0.204226
H5    H     H_    0.808221 0.631786 0.729467 0.152159
H6    H     H_    0.110959 0.399730 0.213808 0.204228
H7    H     H_    0.110567 0.356255 0.339662 0.156751
H8    H     H_    0.191755 0.368282 0.270526 0.152160
H9    H     H_    0.719267 0.500327 0.338762 0.180114
H10   H     H_    0.719693 0.503507 0.661085 0.185805
H11   H     H_    0.280304 0.496523 0.338918 0.185803
H12   H     H_    0.144162 0.351707 0.691756 0.154818
H13   H     H_    0.119065 0.415363 0.801493 0.202467
H14   H     H_    0.208702 0.412220 0.768015 0.150902
H15   H     H_    0.880927 0.584690 0.198512 0.202467
H16   H     H_    0.855826 0.648345 0.308246 0.154821
N1    N     N_1   0.500000 0.500000 0.261870 -0.066769
N2    N     N_1   0.500000 0.500000 0.738130 -0.066769
N3    N     N_R   0.035678 0.552366 0.434087 -0.113097
N4    N     N_R   0.964321 0.447707 0.565927 -0.113101
N5    N     N_R   0.967095 0.555207 0.433750 -0.143779
N6    N     N_R   0.032903 0.444866 0.566264 -0.143781
O1    O     O_R   0.500000 0.373710 0.576470 -0.596280
O2    O     O_3   0.855075 0.501518 0.318157 -0.585671
O3    O     O_3   0.853808 0.506774 0.681293 -0.582066
O4    O     O_3   0.146186 0.493299 0.318717 -0.582067
O5    O     O_R   0.500000 0.626290 0.423530 -0.596280
O6    O     O_R   0.500000 0.626290 0.576470 -0.596303
O7    O     O_R   0.500000 0.373710 0.423530 -0.596304
O8    O     O_R   0.398140 0.500000 0.576480 -0.615382
O9    O     O_R   0.601860 0.500000 0.423520 -0.615382
O10   O     O_R   0.601860 0.500000 0.576480 -0.615050
O11   O     O_R   0.398140 0.500000 0.423520 -0.615050
O12   O     O_3   0.144929 0.498536 0.681853 -0.585667
Zn1   Zn    Zn3+2 0.500000 0.500000 0.602090 0.970093
Zn2   Zn    Zn3+2 0.500000 0.500000 0.397910 0.970093

loop_
_geom_bond_atom_site_label_1
_geom_bond_atom_site_label_2
_ccdc_geom_bond_type
O1    Zn1   S    
C28   N5    A    
N1    Zn2   S    
O5    Zn2   S    
C24   O2    S    
C18   C21   A    
C28   N4    A    
C9    C10   T    
C14   C18   A    
C18   O3    S    
C3    C23   S    
C19   C20   A    
C17   O2    S    
C13   C17   A    
C16   C20   A    
C5    C32   S    
O11   Zn2   S    
C15   C23   A    
C22   H12   S    
C15   H11   S    
C12   C31   S    
C3    O11   A    
C14   H10   S    
C13   C27   A    
C15   C19   A    
C26   O4    S    
O7    Zn2   S    
C26   H8    S    
C2    C6    S    
C1    C12   T    
C25   O3    S    
O8    Zn1   S    
C25   H3    S    
C4    O9    A    
C32   O1    A    
C13   H9    S    
C1    C30   S    
C22   H14   S    
C21   C28   S    
N4    N6    A    
C32   O7    A    
C5    C7    T    
C20   C29   S    
C19   O4    S    
C14   C27   A    
C2    O6    A    
C26   H7    S    
C11   C16   A    
C16   O12   S    
C29   N6    A    
C31   N2    T    
C24   H16   S    
O10   Zn1   S    
C11   H1    S    
C4    C27   S    
O6    Zn1   S    
C8    C10   S    
C22   H13   S    
C29   N3    A    
C3    O8    A    
C11   C23   A    
C7    C9    S    
C4    O10   A    
O9    Zn2   S    
C22   O12   S    
C24   H2    S    
C6    C8    T    
C25   H4    S    
C25   H5    S    
C2    O5    A    
C24   H15   S    
C30   N1    T    
C26   H6    S    
N2    Zn1   S    
N3    N5    A    
C17   C21   A    
