data_mof_unit_51878.cif
_audit_creation_date              2012-12-10T19:47:20-0500
_audit_creation_method            fapswitch 2.2
_symmetry_space_group_name_H-M    P1
_symmetry_Int_Tables_number       1
_space_group_crystal_system       triclinic
_cell_length_a                    14.973207
_cell_length_b                    14.135793
_cell_length_c                    10.669377
_cell_angle_alpha                 89.999458
_cell_angle_beta                  90.242056
_cell_angle_gamma                 90.000257
_cell_volume                      2258.24049493

loop_
_atom_site_label
_atom_site_type_symbol
_atom_type_description
_atom_site_fract_x
_atom_site_fract_y
_atom_site_fract_z
_atom_type_partial_charge
C1    C     C_R   0.327733 0.499990 0.500801 0.897490
C2    C     C_R   0.672266 0.499990 0.499196 0.897487
C3    C     C_R   0.231976 0.499571 0.502772 -0.085221
C4    C     C_R   0.768022 0.499573 0.497202 -0.085198
C5    C     C_R   0.187490 0.425289 0.562372 -0.348372
C6    C     C_R   0.812500 0.425313 0.437544 -0.348380
C7    C     C_R   0.094135 0.422050 0.561416 0.616172
C8    C     C_R   0.905856 0.422077 0.438469 0.616189
C9    C     C_R   0.048110 0.496198 0.501727 0.054636
C10   C     C_R   0.951888 0.496203 0.498195 0.054616
C11   C     C_R   0.430001 0.105139 0.443954 -0.284204
C12   C     C_R   0.569999 0.105139 0.556046 -0.284203
C13   C     C_R   0.431450 0.204523 0.444704 0.010912
C14   C     C_R   0.568550 0.204523 0.555296 0.010916
C15   C     C_R   0.500000 0.053337 0.500000 0.146430
C16   C     C_R   0.537650 0.894839 0.600005 -0.292858
C17   C     C_R   0.462350 0.894841 0.399995 -0.292856
C18   C     C_R   0.537314 0.795484 0.597824 0.071768
C19   C     C_R   0.462686 0.795485 0.402176 0.071766
C20   C     C_R   0.500000 0.946637 0.500000 0.137398
C21   C     C_R   0.509235 0.500432 0.260077 0.905084
C22   C     C_R   0.490764 0.500431 0.739922 0.905082
C23   C     C_R   0.554093 0.675668 0.107503 0.560000
C24   C     C_R   0.445902 0.675665 0.892489 0.560003
C25   C     C_R   0.528329 0.760930 0.051818 -0.341210
C26   C     C_R   0.471668 0.760929 0.948168 -0.341204
C27   C     C_R   0.480767 0.588782 0.940264 -0.090573
C28   C     C_R   0.519228 0.588784 0.059733 -0.090572
C29   C     C_R   0.518286 0.501949 0.126143 -0.094661
C30   C     C_R   0.481711 0.501947 0.873857 -0.094665
C31   C     C_R   0.507169 0.416091 0.063285 -0.215168
C32   C     C_R   0.492828 0.416090 0.936717 -0.215168
C33   C     C_R   0.093034 0.571108 0.444335 -0.268142
C34   C     C_R   0.906971 0.571093 0.555641 -0.268130
C35   C     C_R   0.185051 0.572941 0.445044 -0.198237
C36   C     C_R   0.814954 0.572925 0.554958 -0.198234
H1    H     H_    0.566744 0.756634 0.674937 0.123579
H2    H     H_    0.433257 0.756636 0.325063 0.123579
H3    H     H_    0.551478 0.827473 0.090324 0.186434
H4    H     H_    0.448521 0.827471 0.909656 0.186435
H5    H     H_    0.056564 0.627559 0.398213 0.159167
H6    H     H_    0.943447 0.627527 0.601791 0.159169
H7    H     H_    0.219520 0.630606 0.398987 0.159553
H8    H     H_    0.780490 0.630573 0.601056 0.159535
H9    H     H_    0.225826 0.371816 0.611331 0.155750
H10   H     H_    0.774157 0.371857 0.388564 0.155734
H11   H     H_    0.373665 0.069439 0.401235 0.133125
H12   H     H_    0.626335 0.069439 0.598766 0.133128
H13   H     H_    0.377367 0.243403 0.401223 0.130571
H14   H     H_    0.622632 0.243402 0.598777 0.130577
N1    N     N_R   0.500000 0.252470 0.500000 -0.092909
N2    N     N_R   0.500000 0.747550 0.500000 -0.079328
O1    O     O_R   0.369060 0.579480 0.500010 -0.608177
O2    O     O_R   0.630940 0.579480 0.499990 -0.608175
O3    O     O_R   0.369050 0.420520 0.500010 -0.634566
O4    O     O_R   0.630950 0.420520 0.499990 -0.634562
O5    O     O_R   0.500000 0.579490 0.316770 -0.586441
O6    O     O_R   0.500000 0.579490 0.683230 -0.586445
O7    O     O_R   0.499990 0.420540 0.316770 -0.636698
O8    O     O_R   0.500010 0.420540 0.683230 -0.636695
Zn1   Zn    Zn3+2 0.500000 0.606140 0.500000 1.000756
Zn2   Zn    Zn3+2 0.500000 0.393860 0.500000 0.931859
H15   H     H_    0.509147 0.348721 0.111687 0.170108
H16   H     H_    0.490852 0.348720 0.888317 0.170107
H17   H     H_    0.566209 0.930508 0.680455 0.132701
H18   H     H_    0.433791 0.930511 0.319545 0.132701
O9    O     O_3   0.613989 0.679846 0.206664 -0.586793
C37   C     C_3   0.696391 0.640993 0.169062 -0.309090
H19   H     H_    0.722108 0.676111 0.083005 0.153135
H20   H     H_    0.691414 0.563327 0.154585 0.152638
H21   H     H_    0.745960 0.652917 0.245018 0.197037
O10   O     O_3   0.386005 0.679842 0.793329 -0.586794
C38   C     C_3   0.303606 0.640977 0.830927 -0.309078
H22   H     H_    0.277888 0.676084 0.916991 0.153133
H23   H     H_    0.308589 0.563310 0.845390 0.152637
H24   H     H_    0.254035 0.652905 0.754975 0.197031
O11   O     O_3   0.045345 0.353925 0.626238 -0.611084
C39   C     C_3   0.083669 0.262965 0.616293 -0.316484
H25   H     H_    0.108674 0.247930 0.520106 0.168264
H26   H     H_    0.031385 0.209718 0.637126 0.184716
H27   H     H_    0.137550 0.253745 0.687086 0.163035
O12   O     O_3   0.954641 0.353977 0.373591 -0.611087
C40   C     C_3   0.916308 0.263016 0.383455 -0.316501
H28   H     H_    0.891304 0.247931 0.479629 0.168262
H29   H     H_    0.968586 0.209777 0.362569 0.184722
H30   H     H_    0.862425 0.253838 0.312655 0.163040

loop_
_geom_bond_atom_site_label_1
_geom_bond_atom_site_label_2
_ccdc_geom_bond_type
C4    C36   A    
C38   H22   S    
C11   H11   S    
C34   H6    S    
C24   C27   A    
C12   H12   S    
C18   N2    A    
O11   C39   S    
C17   H18   S    
C40   H28   S    
C8    O12   S    
C28   C29   A    
C18   H1    S    
C24   C26   A    
C21   O7    A    
N2    Zn1   S    
C22   O8    A    
C39   H26   S    
O3    Zn2   S    
C17   C20   A    
O8    Zn2   S    
C23   O9    S    
C1    O1    A    
C33   C35   A    
C13   N1    A    
C11   C15   A    
C19   N2    A    
C31   C32   A    
C37   H19   S    
C35   H7    S    
C9    C10   S    
C7    O11   S    
O6    Zn1   S    
C27   C30   A    
C9    C33   A    
C38   H23   S    
N1    Zn2   S    
O1    Zn1   S    
C15   C20   S    
O9    C37   S    
C31   H15   S    
C32   H16   S    
C4    C6    A    
C2    O2    A    
C5    C7    A    
C39   H25   S    
C6    C8    A    
C25   C26   A    
C21   C29   S    
C1    C3    S    
C2    C4    S    
C21   O5    A    
C19   H2    S    
C14   N1    A    
C12   C15   A    
C3    C35   A    
C16   C20   A    
C10   C34   A    
C23   C28   A    
C13   H13   S    
C16   C18   A    
C40   H29   S    
C12   C14   A    
C38   H24   S    
O4    Zn2   S    
C36   H8    S    
C24   O10   S    
C7    C9    A    
O7    Zn2   S    
C6    H10   S    
O10   C38   S    
C3    C5    A    
C22   O6    A    
O5    Zn1   S    
O2    Zn1   S    
C33   H5    S    
C1    O3    A    
C29   C31   A    
C2    O4    A    
C25   H3    S    
C30   C32   A    
C11   C13   A    
C39   H27   S    
C26   H4    S    
C14   H14   S    
C5    H9    S    
C37   H21   S    
C17   C19   A    
C34   C36   A    
C23   C25   A    
C22   C30   S    
C40   H30   S    
C8    C10   A    
O12   C40   S    
C27   C28   A    
C37   H20   S    
C16   H17   S    
