data_mof_unit_25691.cif
_audit_creation_date              2012-12-10T19:10:03-0500
_audit_creation_method            fapswitch 2.2
_symmetry_space_group_name_H-M    P1
_symmetry_Int_Tables_number       1
_space_group_crystal_system       triclinic
_cell_length_a                    10.859544
_cell_length_b                    10.840089
_cell_length_c                    9.554735
_cell_angle_alpha                 89.322695
_cell_angle_beta                  90.584742
_cell_angle_gamma                 90.222061
_cell_volume                      1124.62325188

loop_
_atom_site_label
_atom_site_type_symbol
_atom_type_description
_atom_site_fract_x
_atom_site_fract_y
_atom_site_fract_z
_atom_type_partial_charge
C1    C     C_R   0.501602 0.262109 0.500312 0.806929
C2    C     C_R   0.154350 0.715901 0.994286 0.438291
C3    C     C_R   0.931565 0.550279 0.391416 -0.233544
C4    C     C_R   0.871316 0.493115 0.503099 -0.078142
C5    C     C_R   0.940105 0.438538 0.613732 -0.003730
C6    C     C_R   0.067962 0.446573 0.610551 -0.186637
C7    C     C_R   0.128301 0.501959 0.497173 -0.075552
C8    C     C_R   0.059027 0.553249 0.385271 0.015872
C9    C     C_R   0.907390 0.398575 0.869025 -0.163474
C10   C     C_R   0.861841 0.326260 0.979041 -0.128802
C11   C     C_R   0.796169 0.218327 0.950495 -0.104051
C12   C     C_R   0.262281 0.502340 0.498936 0.832596
C13   C     C_R   0.775853 0.183015 0.811984 -0.113047
C14   C     C_R   0.818342 0.256976 0.701451 -0.093303
C15   C     C_R   0.884370 0.365740 0.729361 0.119751
C16   C     C_R   0.529330 0.061324 0.622911 0.076222
C17   C     C_R   0.513831 0.128699 0.498875 -0.085353
C18   C     C_R   0.519652 0.065621 0.370992 -0.213307
C19   C     C_R   0.522484 0.936897 0.370163 -0.212048
C20   C     C_R   0.520925 0.870304 0.497298 -0.073946
C21   C     C_R   0.536024 0.934416 0.622130 0.088913
C22   C     C_3   0.467192 0.921564 0.755577 -0.454628
C23   C     C_R   0.504817 0.737510 0.499210 0.807558
C24   C     C_3   0.455574 0.060518 0.753854 -0.376053
C25   C     C_R   0.553991 0.594410 0.072605 0.251055
C26   C     C_R   0.432530 0.416900 0.075983 -0.118824
C27   C     C_R   0.430381 0.418011 0.927694 0.425582
C28   C     C_R   0.552708 0.595256 0.925530 0.204071
C29   C     C_3   0.682252 0.639488 0.918403 -0.474767
C30   C     C_3   0.685480 0.634438 0.077424 -0.499218
C31   C     C_R   0.737514 0.495612 0.501142 0.777856
C32   C     C_R   0.132282 0.791404 0.108994 -0.174302
C33   C     C_R   0.111273 0.738535 0.240862 -0.222118
C34   C     C_R   0.112483 0.609796 0.258394 0.132541
C35   C     C_R   0.139704 0.534958 0.144022 -0.186696
C36   C     C_R   0.161920 0.588213 0.012856 -0.212380
Cu1   Cu    Cu3+1 0.499990 0.499980 0.640670 1.009489
Cu2   Cu    Cu3+1 0.500010 0.500020 0.359330 0.950570
H1    H     H_    0.762273 0.161297 0.035623 0.122151
H2    H     H_    0.729024 0.097140 0.790656 0.130064
H3    H     H_    0.802730 0.227923 0.594628 0.100804
H4    H     H_    0.515365 0.114748 0.271693 0.166948
H5    H     H_    0.518680 0.890210 0.270582 0.164026
H6    H     H_    0.378279 0.873073 0.741094 0.269644
H7    H     H_    0.525855 0.886177 0.842962 0.187351
H8    H     H_    0.359052 0.090232 0.734646 0.260934
H9    H     H_    0.504350 0.105189 0.842743 0.211753
H10   H     H_    0.378694 0.349315 0.133158 0.170194
H11   H     H_    0.126032 0.890432 0.094926 0.171220
H12   H     H_    0.743793 0.572461 0.868845 0.231072
H13   H     H_    0.689050 0.734784 0.875118 0.193798
H14   H     H_    0.747226 0.560964 0.118852 0.210774
H15   H     H_    0.697388 0.726495 0.125860 0.192095
H16   H     H_    0.087334 0.797253 0.327327 0.162601
H17   H     H_    0.137588 0.435384 0.154894 0.155204
H18   H     H_    0.178492 0.529901 0.924052 0.194352
H19   H     H_    0.878975 0.593819 0.307711 0.152662
H20   H     H_    0.120771 0.404080 0.694643 0.203608
H21   H     H_    0.958323 0.481744 0.892305 0.147346
H22   H     H_    0.878446 0.353369 0.086305 0.132055
N1    N     N_R   0.500790 0.500930 0.147930 -0.209034
N2    N     N_R   0.500790 0.500890 0.852020 -0.206584
O1    O     O_R   0.500000 0.319640 0.618810 -0.528507
O2    O     O_R   0.500010 0.319680 0.381230 -0.601133
O3    O     O_R   0.319640 0.499990 0.618790 -0.524624
O4    O     O_R   0.319650 0.500030 0.381210 -0.585899
O5    O     O_R   0.499990 0.680320 0.618770 -0.571836
O6    O     O_R   0.500000 0.680360 0.381190 -0.585015
O7    O     O_R   0.680350 0.499970 0.618790 -0.582184
O8    O     O_R   0.680360 0.500010 0.381210 -0.590835
Cl1   Cl    Cl    0.160983 0.779494 0.825259 -0.687914
Cl2   Cl    Cl    0.327483 0.316476 0.846964 -0.710465

loop_
_geom_bond_atom_site_label_1
_geom_bond_atom_site_label_2
_ccdc_geom_bond_type
C23   O6    A    
C10   H22   S    
Cu2   O8    S    
C28   N2    A    
C16   C21   A    
C36   H18   S    
C27   N2    A    
Cu1   O7    S    
Cu1   N2    S    
C12   O3    A    
C6    H20   S    
C1    C17   S    
C19   C20   A    
C20   C23   S    
C26   H10   S    
Cu2   N1    S    
C24   H8    S    
C32   C33   A    
C33   C34   A    
C9    C15   A    
C7    C8    A    
C16   C24   S    
C8    C34   S    
C21   C22   S    
C25   C28   A    
C11   H1    S    
C11   C13   A    
C26   C27   A    
C29   C30   S    
C23   O5    A    
C14   H3    S    
C1    O1    A    
C2    Cl1   S    
C28   C29   S    
Cu1   O1    S    
Cu1   Cu2   S    
C19   H5    S    
C17   C18   A    
C6    C7    A    
Cu2   O2    S    
C29   H12   S    
C18   H4    S    
C3    C8    A    
C29   H13   S    
C5    C6    A    
C32   H11   S    
C30   H15   S    
C22   C24   S    
C7    C12   S    
C5    C15   S    
C4    C31   S    
C16   C17   A    
C10   C11   A    
Cu1   O5    S    
C35   H17   S    
C3    C4    A    
C1    O2    A    
C3    H19   S    
C31   O7    A    
C22   H7    S    
C18   C19   A    
C20   C21   A    
C2    C32   A    
C34   C35   A    
C9    C10   A    
C2    C36   A    
C33   H16   S    
C30   H14   S    
C14   C15   A    
C25   C30   S    
C13   H2    S    
C25   N1    A    
C13   C14   A    
C24   H9    S    
C12   O4    A    
C26   N1    A    
C31   O8    A    
C22   H6    S    
C27   Cl2   S    
Cu2   O4    S    
Cu2   O6    S    
C4    C5    A    
C9    H21   S    
C35   C36   A    
Cu1   O3    S    
