data_mof_unit_24251.cif
_audit_creation_date              2012-12-10T18:54:27-0500
_audit_creation_method            fapswitch 2.2
_symmetry_space_group_name_H-M    P1
_symmetry_Int_Tables_number       1
_space_group_crystal_system       triclinic
_cell_length_a                    10.78904
_cell_length_b                    9.81416
_cell_length_c                    23.317963
_cell_angle_alpha                 90.185592
_cell_angle_beta                  90.108982
_cell_angle_gamma                 89.539982
_cell_volume                      2468.93414193

loop_
_atom_site_label
_atom_site_type_symbol
_atom_type_description
_atom_site_fract_x
_atom_site_fract_y
_atom_site_fract_z
_atom_type_partial_charge
C1    C     C_R   0.260337 0.500830 0.494350 0.926391
C2    C     C_R   0.556017 0.595826 0.703944 -0.161561
C3    C     C_R   0.368909 0.412668 0.246283 0.026877
C4    C     C_R   0.552965 0.597961 0.763869 0.016860
C5    C     C_R   0.437322 0.498794 0.210178 0.290095
C6    C     C_R   0.478056 0.502956 0.792286 0.202817
C7    C     C_R   0.063907 0.383903 0.470073 -0.085168
C8    C     C_R   0.938046 0.621201 0.507359 -0.122667
C9    C     C_R   0.935103 0.385588 0.470122 -0.091288
C10   C     C_R   0.062539 0.627323 0.493937 -0.098236
C11   C     C_R   0.873194 0.500501 0.493775 -0.166918
C12   C     C_R   0.740410 0.499713 0.499385 0.952265
C13   C     C_R   0.127684 0.504080 0.484770 -0.181951
C14   C     C_R   0.535527 0.072011 0.547682 0.005744
C15   C     C_R   0.465522 0.927998 0.452165 -0.057067
C16   C     C_R   0.465343 0.071930 0.452185 -0.079063
C17   C     C_R   0.535410 0.928070 0.547698 0.004106
C18   C     C_R   0.500780 0.499703 0.389324 0.968048
C19   C     C_R   0.496598 0.500176 0.610680 0.949569
C20   C     C_R   0.523342 0.400226 0.882869 0.536021
C21   C     C_R   0.364403 0.592124 0.121049 0.583912
C22   C     C_R   0.393482 0.597549 0.878984 0.487387
C23   C     C_R   0.528069 0.584993 0.232757 -0.152773
C24   C     C_R   0.480543 0.384381 0.121677 0.561075
C25   C     C_R   0.380165 0.599109 0.939268 -0.070103
C26   C     C_R   0.474109 0.374031 0.061614 -0.078704
C27   C     C_R   0.433182 0.489082 0.970620 0.009980
C28   C     C_R   0.421582 0.484832 0.030803 0.007548
C29   C     C_R   0.499821 0.383968 0.941767 -0.096598
C30   C     C_R   0.360006 0.592390 0.060433 -0.097489
C31   C     C_R   0.312595 0.703070 0.968621 -0.120801
C32   C     C_R   0.522073 0.258851 0.031887 -0.094429
C33   C     C_R   0.300996 0.698394 0.028884 -0.075780
C34   C     C_R   0.408456 0.408300 0.761475 -0.091722
C35   C     C_R   0.538694 0.265651 0.972024 -0.060997
C36   C     C_2   0.256761 0.820642 0.937411 0.574295
C37   C     C_2   0.541071 0.126939 0.062490 0.542993
C38   C     C_2   0.227084 0.806593 0.057987 1.083234
C39   C     C_2   0.584151 0.143131 0.940775 1.065108
C40   C     C_2   0.657910 0.672112 0.312841 0.948011
C41   C     C_2   0.324677 0.312472 0.671578 0.948928
C42   C     C_2   0.268839 0.322117 0.225253 0.487569
C43   C     C_2   0.628572 0.697417 0.796489 0.501196
C44   C     C_2   0.130319 0.258225 0.452407 0.971294
C45   C     C_R   0.554939 0.585629 0.291390 -0.076269
C46   C     C_2   0.878823 0.739143 0.537300 1.002045
C47   C     C_2   0.867157 0.270678 0.442750 0.968382
C48   C     C_2   0.120380 0.761831 0.483992 1.014105
C49   C     C_R   0.409787 0.406874 0.701805 -0.082607
C50   C     C_R   0.487054 0.498299 0.327389 -0.087207
C51   C     C_R   0.486211 0.500707 0.672906 -0.152418
C52   C     C_R   0.395911 0.412681 0.304621 -0.305240
H1    H     H_    0.581068 0.647669 0.203673 0.185292
H2    H     H_    0.473468 0.094357 0.093911 0.134848
H3    H     H_    0.072488 0.855514 0.102166 0.376422
H4    H     H_    0.543284 0.986779 0.887925 0.352886
H5    H     H_    0.795036 0.699321 0.370792 0.364018
H6    H     H_    0.204042 0.282730 0.606582 0.378798
H7    H     H_    0.227393 0.249248 0.254281 0.096449
H8    H     H_    0.629936 0.695846 0.842999 0.064508
H9    H     H_    0.205359 0.080163 0.477594 0.344256
H10   H     H_    0.792396 0.808104 0.608428 0.347361
H11   H     H_    0.744502 0.211701 0.382343 0.355713
H12   H     H_    0.349612 0.338465 0.784666 0.184299
H13   H     H_    0.203214 0.884696 0.426463 0.329666
H14   H     H_    0.343256 0.347753 0.332950 0.189303
H15   H     H_    0.614399 0.666913 0.681184 0.200068
H16   H     H_    0.564188 0.126374 0.585798 0.144234
H17   H     H_    0.437763 0.873634 0.413913 0.155462
H18   H     H_    0.436883 0.126247 0.414041 0.160264
H19   H     H_    0.563819 0.873744 0.585835 0.133784
H20   H     H_    0.313804 0.883153 0.909949 0.133223
N1    N     N_R   0.467690 0.502830 0.853271 -0.359862
N2    N     N_R   0.424936 0.490500 0.149352 -0.329357
N3    N     N_R   0.500000 0.857200 0.500000 -0.086781
N4    N     N_R   0.500000 0.142800 0.500000 -0.090926
O1    O     O_R   0.316770 0.614620 0.500000 -0.609699
O2    O     O_2   0.312844 0.693835 0.152117 -0.520664
O3    O     O_2   0.332320 0.687662 0.845548 -0.542193
O4    O     O_2   0.546609 0.293133 0.152630 -0.541250
O5    O     O_2   0.146483 0.847450 0.941939 -0.488163
O6    O     O_2   0.632915 0.056117 0.054401 -0.500847
O7    O     O_2   0.264036 0.924074 0.058568 -0.629118
O8    O     O_R   0.114634 0.773502 0.083942 -0.699208
O9    O     O_2   0.693761 0.110947 0.943151 -0.499807
O10   O     O_R   0.501643 0.067359 0.907493 -0.802495
O11   O     O_2   0.684163 0.777122 0.287655 -0.584030
O12   O     O_R   0.683230 0.385380 0.500000 -0.611024
O13   O     O_R   0.727575 0.632016 0.360646 -0.774998
O14   O     O_2   0.307583 0.198124 0.690566 -0.575750
O15   O     O_R   0.260078 0.355818 0.622836 -0.779494
O16   O     O_2   0.229579 0.328755 0.176207 -0.528190
O17   O     O_2   0.690651 0.782562 0.771812 -0.519214
O18   O     O_2   0.170198 0.246726 0.403601 -0.669684
O19   O     O_R   0.149785 0.155366 0.492706 -0.715830
O20   O     O_2   0.868980 0.849345 0.513295 -0.553739
O21   O     O_R   0.831282 0.721609 0.592488 -0.783841
O22   O     O_2   0.881049 0.154317 0.460380 -0.546043
O23   O     O_R   0.683230 0.614620 0.500000 -0.605290
O24   O     O_R   0.786706 0.297009 0.396947 -0.755581
O25   O     O_2   0.130523 0.844347 0.523086 -0.566476
O26   O     O_R   0.165822 0.790855 0.429310 -0.780965
O27   O     O_R   0.316770 0.385380 0.500000 -0.594708
O28   O     O_R   0.499970 0.614690 0.416160 -0.619910
O29   O     O_R   0.500030 0.385310 0.583840 -0.616865
O30   O     O_R   0.500030 0.614690 0.583840 -0.619242
O31   O     O_R   0.499970 0.385310 0.416160 -0.620323
O32   O     O_2   0.601798 0.315619 0.854804 -0.504362
Zn1   Zn    Zn3+2 0.500000 0.653120 0.500000 1.026242
Zn2   Zn    Zn3+2 0.500000 0.346880 0.500000 1.020032

loop_
_geom_bond_atom_site_label_1
_geom_bond_atom_site_label_2
_ccdc_geom_bond_type
C25   C31   A    
C15   N3    A    
O29   Zn2   S    
C3    C42   S    
C26   C32   A    
C23   C45   A    
C38   O7    D    
C27   C29   A    
C1    O1    A    
C2    C4    A    
C47   O22   D    
H5    O13   S    
O27   Zn2   S    
C40   O11   D    
C24   C26   A    
C22   O3    S    
O28   Zn1   S    
C15   C16   A    
O23   Zn1   S    
C5    N2    S    
C18   O31   A    
C12   O23   A    
C24   O4    S    
C49   C51   A    
C22   C25   A    
C21   O2    S    
C50   C52   A    
C31   C33   A    
C40   O13   S    
H6    O15   S    
C1    O27   A    
O12   Zn2   S    
C41   O14   D    
C14   C17   A    
H13   O26   S    
C41   C49   S    
C23   H1    S    
C20   C29   A    
C40   C45   S    
C15   H17   S    
N3    Zn1   S    
C12   O12   A    
C32   C35   A    
C16   H18   S    
C4    C6    A    
C2    H15   S    
C7    C44   S    
C21   N2    A    
C47   O24   S    
C6    C34   A    
C14   N4    A    
C35   C39   S    
H11   O24   S    
H10   O21   S    
H4    O10   S    
C5    C23   A    
C36   O5    D    
C3    C52   A    
C48   O26   S    
C34   H12   S    
C18   O28   A    
C32   C37   S    
O1    Zn1   S    
C9    C11   A    
C43   H8    S    
C37   H2    S    
C19   O29   A    
C8    C10   A    
C41   O15   S    
C46   O21   S    
C9    C47   S    
C10   C48   S    
O31   Zn2   S    
C37   O6    D    
C1    C13   S    
C39   O9    D    
C52   H14   S    
C18   C50   S    
C6    N1    S    
C7    C9    A    
C34   C49   A    
C30   C33   A    
C38   O8    S    
C16   N4    A    
C3    C5    A    
C10   C13   A    
C42   H7    S    
C11   C12   S    
H9    O19   S    
C17   H19   S    
C4    C43   S    
C25   C27   A    
C21   C30   A    
C29   C35   A    
C26   C28   A    
C33   C38   S    
C22   N1    A    
C28   C30   A    
C44   O19   S    
C24   N2    A    
C45   C50   A    
C8    C11   A    
C48   O25   D    
C43   O17   D    
C20   N1    A    
C42   O16   D    
C8    C46   S    
C44   O18   D    
C2    C51   A    
C19   O30   A    
C19   C51   S    
C7    C13   A    
C46   O20   D    
N4    Zn2   S    
C27   C28   A    
C17   N3    A    
C14   H16   S    
C31   C36   S    
C39   O10   S    
H3    O8    S    
C36   H20   S    
C20   O32   S    
O30   Zn1   S    
