data_mof_unit_39014.cif
_audit_creation_date              2012-10-26T19:42:44-0400
_audit_creation_method            fapswitch 2.2
_symmetry_space_group_name_H-M    P1
_symmetry_Int_Tables_number       1
_space_group_crystal_system       triclinic
_cell_length_a                    19.374047
_cell_length_b                    10.864805
_cell_length_c                    9.569837
_cell_angle_alpha                 90.22457
_cell_angle_beta                  89.907892
_cell_angle_gamma                 92.577538
_cell_volume                      2012.34961902

loop_
_atom_site_label
_atom_site_type_symbol
_atom_type_description
_atom_site_fract_x
_atom_site_fract_y
_atom_site_fract_z
_atom_type_partial_charge
C1    C     C_R   0.505278 0.262951 0.500571 0.553007
C2    C     C_R   0.853693 0.509427 0.501666 0.035974
C3    C     C_R   0.540458 0.120615 0.757916 -0.094387
C4    C     C_R   0.367531 0.500071 0.500280 0.555246
C5    C     C_R   0.530504 0.061860 0.885961 -0.130736
C6    C     C_R   0.496184 0.947085 0.890923 -0.124787
C7    C     C_R   0.478254 0.885871 0.767070 -0.097098
C8    C     C_R   0.495211 0.938691 0.635204 0.024883
C9    C     C_R   0.516103 0.064485 0.632143 0.026477
C10   C     C_R   0.510951 0.128993 0.503863 -0.008458
C11   C     C_R   0.501825 0.063230 0.378724 -0.160992
C12   C     C_R   0.291711 0.502780 0.502046 -0.030055
C13   C     C_R   0.495862 0.936045 0.379719 -0.163842
C14   C     C_R   0.492608 0.872036 0.506478 -0.008672
C15   C     C_R   0.591594 0.664610 0.144693 -0.099542
C16   C     C_R   0.495869 0.737502 0.501352 0.536343
C17   C     C_R   0.636026 0.745469 0.072478 -0.179494
C18   C     C_R   0.636067 0.745354 0.928547 -0.167203
C19   C     C_R   0.591618 0.664480 0.856013 -0.092123
C20   C     C_R   0.544987 0.580992 0.925292 0.146755
C21   C     C_R   0.544975 0.580991 0.075060 0.152945
C22   C     C_R   0.457292 0.422818 0.073775 -0.013381
C23   C     C_R   0.929797 0.510841 0.503037 0.335768
C24   C     C_R   0.457315 0.422840 0.925682 -0.015661
C25   C     C_R   0.632487 0.501035 0.499911 0.532815
C26   C     C_R   0.256621 0.511778 0.629605 -0.120610
C27   C     C_R   0.184563 0.518428 0.633887 0.268287
C28   C     C_R   0.146408 0.509560 0.507974 0.042890
C29   C     C_R   0.182143 0.499808 0.380543 -0.172158
C30   C     C_R   0.253917 0.497193 0.377471 -0.160376
C31   C     C_3   0.168731 0.635988 0.832098 0.017326
C32   C     C_3   0.195956 0.607780 0.977872 -0.263380
C33   C     C_3   0.213459 0.725673 0.060110 -0.480745
C34   C     C_R   0.069958 0.510848 0.506662 0.356553
C35   C     C_R   0.816536 0.508237 0.627865 -0.119098
C36   C     C_R   0.744629 0.505482 0.627116 -0.138919
C37   C     C_R   0.708421 0.503812 0.500155 0.010849
C38   C     C_R   0.745428 0.505672 0.373860 -0.137339
C39   C     C_R   0.817434 0.508392 0.374608 -0.118417
Cu1   Cu    Cu3+1 0.500000 0.499990 0.640660 0.904645
Cu2   Cu    Cu3+1 0.500000 0.500010 0.359340 0.919285
H1    H     H_    0.284988 0.514321 0.727045 0.130349
H2    H     H_    0.670815 0.808452 0.872321 0.129736
H3    H     H_    0.596117 0.672184 0.745946 0.188459
H4    H     H_    0.422400 0.359598 0.869995 0.123608
H5    H     H_    0.154595 0.493445 0.282380 0.141285
H6    H     H_    0.279684 0.489855 0.277437 0.135919
H7    H     H_    0.842895 0.509158 0.727574 0.139554
H8    H     H_    0.717490 0.504595 0.726181 0.131969
H9    H     H_    0.718839 0.504962 0.274361 0.132764
H10   H     H_    0.844576 0.509456 0.275595 0.139287
H11   H     H_    0.499430 0.110019 0.279188 0.133730
H12   H     H_    0.568832 0.208496 0.759060 0.148368
H13   H     H_    0.120895 0.687971 0.843000 0.168657
H14   H     H_    0.207235 0.697909 0.776386 0.108094
H15   H     H_    0.156105 0.551570 0.035686 0.186035
H16   H     H_    0.243091 0.553684 0.968685 0.155332
H17   H     H_    0.254099 0.782375 0.005102 0.148466
H18   H     H_    0.233031 0.702026 0.165141 0.155849
H19   H     H_    0.166690 0.780114 0.073211 0.161158
H20   H     H_    0.547725 0.106974 0.981618 0.111455
H21   H     H_    0.484786 0.904058 0.990698 0.113346
H22   H     H_    0.449116 0.799441 0.777550 0.148855
H23   H     H_    0.492821 0.887895 0.280403 0.135654
H24   H     H_    0.422335 0.359602 0.129058 0.115587
H25   H     H_    0.596418 0.671939 0.254776 0.185864
H26   H     H_    0.670857 0.808485 0.128951 0.126150
N1    N     N_R   0.034980 0.510608 0.383760 -0.245099
N2    N     N_R   0.966322 0.510612 0.381934 -0.230571
N3    N     N_R   0.964666 0.511277 0.625823 -0.234172
N4    N     N_R   0.033258 0.511261 0.627488 -0.154060
N5    N     N_R   0.500660 0.501210 0.147910 -0.243302
N6    N     N_R   0.500680 0.501290 0.852040 -0.250377
O1    O     O_R   0.499990 0.319640 0.618810 -0.507735
O2    O     O_R   0.500000 0.319660 0.381240 -0.500738
O3    O     O_R   0.400140 0.499970 0.618820 -0.505764
O4    O     O_R   0.400150 0.500000 0.381250 -0.496983
O5    O     O_R   0.500000 0.680340 0.618760 -0.533732
O6    O     O_R   0.500010 0.680360 0.381190 -0.522208
O7    O     O_R   0.599850 0.500000 0.618750 -0.526120
O8    O     O_R   0.599860 0.500030 0.381180 -0.520088
O9    O     O_3   0.151226 0.523779 0.761823 -0.547156

loop_
_geom_bond_atom_site_label_1
_geom_bond_atom_site_label_2
_ccdc_geom_bond_type
C2    C35   A    
C39   H10   S    
C33   H17   S    
C25   O7    A    
C11   C13   A    
C23   N2    A    
C35   C36   A    
C7    C8    A    
C26   C27   A    
C29   C30   A    
C31   O9    S    
C1    O1    A    
C28   C29   A    
Cu2   O4    S    
C5    C6    A    
C24   N6    A    
Cu1   N6    S    
C18   C19   A    
C11   H11   S    
C25   C37   S    
C2    C39   A    
C19   C20   A    
C8    C9    A    
Cu1   O7    S    
N3    N4    A    
C14   C16   S    
C4    C12   S    
C9    C10   A    
C28   C34   S    
C33   H18   S    
C13   C14   A    
C25   O8    A    
C23   N3    A    
C32   H16   S    
C35   H7    S    
C22   N5    A    
C17   H26   S    
C21   N5    A    
C1    O2    A    
C30   H6    S    
C34   N1    A    
N1    N2    A    
C15   H25   S    
Cu1   O3    S    
C12   C26   A    
C22   H24   S    
C37   C38   A    
C3    C9    A    
Cu2   O2    S    
C31   C32   S    
Cu2   O8    S    
C17   C18   A    
C5    H20   S    
C7    H22   S    
Cu2   N5    S    
Cu1   O5    S    
Cu1   Cu2   S    
C33   H19   S    
C22   C24   A    
C24   H4    S    
C2    C23   S    
C19   H3    S    
C26   H1    S    
C15   C17   A    
C36   C37   A    
C8    C14   A    
C12   C30   A    
C27   O9    S    
C1    C10   S    
C3    C5    A    
Cu2   O6    S    
C6    C7    A    
C38   H9    S    
C29   H5    S    
C16   O6    A    
C32   C33   S    
C6    H21   S    
C4    O4    A    
C18   H2    S    
C3    H12   S    
C38   C39   A    
C13   H23   S    
Cu1   O1    S    
C20   N6    A    
C16   O5    A    
C31   H13   S    
C4    O3    A    
C10   C11   A    
C15   C21   A    
C20   C21   A    
C27   C28   A    
C31   H14   S    
C34   N4    A    
C32   H15   S    
C36   H8    S    
