data_mof_unit_16801.cif
_audit_creation_date              2012-12-11T16:35:17-0500
_audit_creation_method            fapswitch 2.2
_symmetry_space_group_name_H-M    P1
_symmetry_Int_Tables_number       1
_space_group_crystal_system       triclinic
_cell_length_a                    6.92777
_cell_length_b                    17.67922
_cell_length_c                    19.505178
_cell_angle_alpha                 109.135329
_cell_angle_beta                  90.341239
_cell_angle_gamma                 90.696997
_cell_volume                      2256.65823722

loop_
_atom_site_label
_atom_site_type_symbol
_atom_type_description
_atom_site_fract_x
_atom_site_fract_y
_atom_site_fract_z
_atom_type_partial_charge
O1    O     O_R   0.505700 0.440210 0.561730 -0.541435
O2    O     O_R   0.169350 0.406300 0.412660 -0.538496
O3    O     O_R   0.005650 0.559790 0.438270 -0.541755
C1    C     C_R   0.337908 0.383411 0.384676 0.694714
O4    O     O_R   0.175560 0.430650 0.559600 -0.545364
O5    O     O_R   0.011900 0.584320 0.586250 -0.534154
C2    C     C_R   0.344587 0.414967 0.580651 0.689298
O6    O     O_R   0.499450 0.415680 0.413750 -0.534241
O7    O     O_3   0.341370 0.550390 0.508570 -0.367127
V1    V     V_3+5 0.063940 0.490650 0.498410 1.413364
O8    O     O_R   0.682570 0.593700 0.587340 -0.536762
C3    C     C_R   0.852732 0.616510 0.615060 0.701931
O9    O     O_R   0.676370 0.569350 0.440400 -0.545653
C4    C     C_R   0.845507 0.584495 0.418932 0.684336
V2    V     V_3+5 0.564750 0.509350 0.501590 1.417988
O10   O     O_3   0.837190 0.449610 0.491430 -0.368101
C5    C     C_R   0.043049 0.684871 0.288274 -0.151947
H1    H     H_    0.177683 0.685799 0.260643 0.099612
C6    C     C_R   0.031284 0.639382 0.334906 -0.160855
H2    H     H_    0.157984 0.607512 0.342373 0.118963
C7    C     C_R   0.857744 0.633896 0.370279 -0.053169
C8    C     C_R   0.696790 0.675752 0.358331 -0.177761
H3    H     H_    0.561254 0.673347 0.384985 0.123679
C9    C     C_R   0.709182 0.722043 0.312362 -0.147856
H4    H     H_    0.583091 0.754699 0.305845 0.103061
C10   C     C_R   0.882136 0.726849 0.276175 0.115928
C11   C     C_R   0.733503 0.777964 0.181844 -0.243046
H5    H     H_    0.601751 0.746663 0.186351 0.107540
C12   C     C_R   0.741934 0.821197 0.132270 0.465606
C13   C     C_R   0.913624 0.864141 0.128324 -0.138540
C14   C     C_R   0.073648 0.859556 0.171362 -0.246558
H6    H     H_    0.206460 0.891622 0.169235 0.167323
C15   C     C_R   0.064006 0.815244 0.218940 -0.165792
H7    H     H_    0.189533 0.814766 0.252108 0.117529
C16   C     C_R   0.893600 0.774114 0.225125 0.040201
H8    H     H_    0.741031 0.641314 0.936952 0.116311
C17   C     C_R   0.999234 0.903262 0.746175 -0.145296
C18   C     C_R   0.035589 0.914877 0.680119 -0.119129
C19   C     C_R   0.016601 0.851310 0.615550 -0.118215
C20   C     C_R   0.961261 0.775615 0.616530 -0.132354
C21   C     C_R   0.924244 0.761885 0.682782 0.068286
C22   C     C_R   0.943506 0.827020 0.748913 0.063470
C23   C     C_R   0.867475 0.684962 0.683871 -0.163439
C24   C     C_R   0.831605 0.673020 0.751164 0.027187
C25   C     C_R   0.849308 0.738270 0.817105 0.068212
C26   C     C_R   0.905180 0.815233 0.816016 -0.165243
C27   C     C_R   0.780944 0.596394 0.754167 -0.207642
C28   C     C_R   0.746123 0.583698 0.820247 0.358828
C29   C     C_R   0.762830 0.648757 0.884796 -0.154175
C30   C     C_R   0.813584 0.724616 0.883320 -0.200002
H9    H     H_    0.015031 0.954686 0.794889 0.101060
H10   H     H_    0.078249 0.973598 0.679052 0.116393
H11   H     H_    0.044445 0.860707 0.564361 0.115523
H12   H     H_    0.947269 0.728221 0.564841 0.095682
H13   H     H_    0.767596 0.545256 0.705088 0.102092
H14   H     H_    0.826635 0.772216 0.934928 0.125189
H15   H     H_    0.583121 0.482741 0.194397 0.116357
C31   C     C_R   0.231051 0.219867 0.372859 -0.140947
C32   C     C_R   0.188298 0.141728 0.370170 -0.117431
C33   C     C_R   0.221840 0.078046 0.307291 -0.125846
C34   C     C_R   0.298449 0.091982 0.246575 -0.137413
C35   C     C_R   0.341432 0.170728 0.247185 0.073051
C36   C     C_R   0.306853 0.236106 0.311830 0.068507
C37   C     C_R   0.420804 0.184501 0.185165 -0.189192
C38   C     C_R   0.465850 0.264014 0.188223 0.067442
C39   C     C_R   0.431428 0.329395 0.252893 0.073470
C40   C     C_R   0.352054 0.315603 0.314909 -0.187762
C41   C     C_R   0.541322 0.280266 0.127151 -0.142339
C42   C     C_R   0.584026 0.358412 0.129829 -0.123529
C43   C     C_R   0.550867 0.422086 0.192764 -0.127328
C44   C     C_R   0.474517 0.408151 0.253521 -0.135886
H16   H     H_    0.204380 0.267099 0.423390 0.105852
H17   H     H_    0.129929 0.130514 0.417357 0.114077
H18   H     H_    0.189717 0.017400 0.305694 0.119965
H19   H     H_    0.325626 0.040194 0.199585 0.109659
H20   H     H_    0.567770 0.233028 0.076603 0.106506
H21   H     H_    0.642145 0.369637 0.082607 0.111273
H22   H     H_    0.447706 0.459972 0.300552 0.101906
C45   C     C_R   0.538612 0.314838 0.711788 -0.157394
H23   H     H_    0.673140 0.314850 0.740318 0.127513
C46   C     C_R   0.528568 0.360106 0.664947 -0.134279
H24   H     H_    0.656385 0.392641 0.658088 0.112981
C47   C     C_R   0.355310 0.364696 0.628654 -0.045148
C48   C     C_R   0.193785 0.320708 0.638723 -0.201851
H25   H     H_    0.058895 0.321653 0.610677 0.121472
C49   C     C_R   0.205113 0.273904 0.684344 -0.090966
H26   H     H_    0.079412 0.238938 0.688747 0.140737
C50   C     C_R   0.376607 0.271632 0.722878 0.105805
C51   C     C_R   0.232817 0.221674 0.820530 0.470251
C52   C     C_R   0.246334 0.174889 0.866291 -0.243061
H27   H     H_    0.123840 0.172080 0.899703 0.142280
C53   C     C_R   0.416333 0.134025 0.870544 -0.123585
C54   C     C_R   0.572817 0.139587 0.826973 -0.145109
H28   H     H_    0.705425 0.108332 0.828585 0.134797
C55   C     C_R   0.558065 0.183442 0.779019 -0.187911
H29   H     H_    0.679775 0.183966 0.744611 0.148663
C56   C     C_R   0.388043 0.224679 0.774392 -0.028816
O11   O     O_R   0.273230 0.084330 0.086440 -0.537737
O12   O     O_R   0.596660 0.069390 0.940470 -0.548116
O13   O     O_R   0.760270 0.915710 0.913690 -0.534883
C57   C     C_R   0.427573 0.084609 0.919145 0.700192
O14   O     O_R   0.603330 0.093680 0.087390 -0.539466
O15   O     O_R   0.766990 0.940160 0.061660 -0.506420
C58   C     C_R   0.434830 0.116660 0.115400 0.695439
O16   O     O_R   0.266510 0.059870 0.938470 -0.544225
O17   O     O_3   0.431050 0.949630 0.991510 -0.350079
V3    V     V_3+5 0.708490 0.009340 0.001580 1.454268
O18   O     O_R   0.096270 0.930570 0.059390 -0.543563
C59   C     C_R   0.926709 0.914534 0.080238 0.724630
O19   O     O_R   0.089600 0.906290 0.912460 -0.540885
C60   C     C_R   0.919489 0.883672 0.884748 0.689801
V4    V     V_3+5 0.207670 0.990600 0.998190 1.443717
O20   O     O_3   0.935250 0.050360 0.008480 -0.376805
N1    N     N_2   0.696696 0.504643 0.819306 -0.516848
H30   H     H_    0.778729 0.460042 0.784958 0.248774
C61   C     C_3   0.638170 0.490892 0.885417 -0.581620
H31   H     H_    0.589590 0.427629 0.872636 0.200887
H32   H     H_    0.515251 0.529846 0.910213 0.204051
H33   H     H_    0.761492 0.502310 0.924304 0.181906
O21   O     O_3   0.064432 0.262630 0.820339 -0.570167
C62   C     C_3   0.082173 0.339084 0.873167 -0.292102
H34   H     H_    0.099997 0.334856 0.928553 0.138343
H35   H     H_    0.947649 0.372138 0.872626 0.173021
H36   H     H_    0.203709 0.374243 0.860888 0.150776
O22   O     O_3   0.582360 0.826982 0.090497 -0.547356
C63   C     C_3   0.480906 0.753431 0.061556 -0.269204
H37   H     H_    0.578119 0.701012 0.045404 0.111974
H38   H     H_    0.401534 0.753897 0.012129 0.172374
H39   H     H_    0.372365 0.746602 0.100810 0.147356

loop_
_geom_bond_atom_site_label_1
_geom_bond_atom_site_label_2
_ccdc_geom_bond_type
C2    C47   S    
C63   H37   S    
C12   O22   S    
C11   C12   A    
C21   C22   A    
C42   H21   S    
C55   H29   S    
C1    O6    A    
C46   H24   S    
O17   V4    S    
C25   C26   A    
C34   H19   S    
C19   H11   S    
C54   H28   S    
C5    C10   A    
C4    C7    S    
C27   H13   S    
C6    C7    A    
C17   C18   A    
C48   C49   A    
C3    C23   S    
O5    C3    A    
C13   C14   A    
C17   H9    S    
C49   C50   A    
C18   H10   S    
O17   V3    S    
V2    O10   S    
O18   C59   A    
C22   C26   A    
C17   C22   A    
O19   C60   A    
V3    O20   S    
C62   H36   S    
C35   C37   A    
C5    C6    A    
C7    C8    A    
O8    V2    S    
C47   C48   A    
C41   C42   A    
C14   C15   A    
C43   C44   A    
O1    V2    S    
H15   C43   S    
O7    V1    S    
C32   H17   S    
C50   C56   S    
C24   C27   A    
C39   C40   A    
C32   C33   A    
C54   C55   A    
C26   C60   S    
C21   C23   A    
C42   C43   A    
V4    O20   S    
C46   C47   A    
C15   H7    S    
O4    C2    A    
C57   O16   A    
C36   C40   A    
O11   V4    S    
C13   C59   S    
C27   C28   A    
C9    H4    S    
C19   C20   A    
C45   C46   A    
C49   H26   S    
C63   H39   S    
C11   C16   A    
C31   C32   A    
C30   H14   S    
O18   V4    S    
C51   C56   A    
C33   C34   A    
O2    C1    A    
C23   C24   A    
C12   C13   A    
C52   C53   A    
C39   C44   A    
C51   O21   S    
C38   C41   A    
C35   C36   A    
C5    H1    S    
O14   V3    S    
C48   H25   S    
O14   C58   A    
C62   H34   S    
O3    C4    A    
C45   C50   A    
C53   C57   S    
C28   C29   A    
O12   C57   A    
O16   V4    S    
C38   C39   A    
O6    V2    S    
C20   H12   S    
O9    V2    S    
O22   C63   S    
C8    C9    A    
O2    V1    S    
O21   C62   S    
C28   N1    S    
C31   C36   A    
C37   C58   S    
C20   C21   A    
O13   V3    S    
C63   H38   S    
O1    C2    A    
C14   H6    S    
C24   C25   A    
C9    C10   A    
O5    V1    S    
C1    C40   S    
N1    C61   S    
O8    C3    A    
C55   C56   A    
N1    H30   S    
C41   H20   S    
O12   V3    S    
C61   H33   S    
O15   C59   A    
C37   C38   A    
C6    H2    S    
O7    V2    S    
O4    V1    S    
O3    V1    S    
V1    O10   S    
C31   H16   S    
C52   H27   S    
C18   C19   A    
C25   C30   A    
O11   C58   A    
C33   H18   S    
C53   C54   A    
C15   C16   A    
C61   H32   S    
C61   H31   S    
C34   C35   A    
O19   V4    S    
C62   H35   S    
C45   H23   S    
C10   C16   S    
O13   C60   A    
C29   C30   A    
C11   H5    S    
C8    H3    S    
O15   V3    S    
C51   C52   A    
O9    C4    A    
C44   H22   S    
H8    C29   S    
