data_mof_unit_31430.cif
_audit_creation_date              2012-12-11T15:12:44-0500
_audit_creation_method            fapswitch 2.2
_symmetry_space_group_name_H-M    P1
_symmetry_Int_Tables_number       1
_space_group_crystal_system       triclinic
_cell_length_a                    22.325499
_cell_length_b                    6.978064
_cell_length_c                    19.470915
_cell_angle_alpha                 89.999325
_cell_angle_beta                  98.822705
_cell_angle_gamma                 89.999521
_cell_volume                      2997.45815284

loop_
_atom_site_label
_atom_site_type_symbol
_atom_type_description
_atom_site_fract_x
_atom_site_fract_y
_atom_site_fract_z
_atom_type_partial_charge
O1    O     O_R   0.448420 0.506120 0.415750 -0.536169
O2    O     O_R   0.551580 0.006120 0.584250 -0.536174
O3    O     O_R   0.436490 0.174470 0.555610 -0.535887
O4    O     O_R   0.563510 0.674470 0.444390 -0.535886
C1    C     C_R   0.421125 0.344820 0.575661 0.713416
C2    C     C_R   0.578875 0.844820 0.424339 0.713421
O5    O     O_R   0.441310 0.176330 0.414520 -0.537654
O6    O     O_R   0.558690 0.676330 0.585480 -0.537655
O7    O     O_R   0.556430 0.007110 0.442150 -0.536894
O8    O     O_R   0.443570 0.507110 0.557850 -0.536891
C3    C     C_R   0.426944 0.345010 0.388875 0.696431
C4    C     C_R   0.573056 0.845007 0.611125 0.696428
O9    O     O_3   0.537770 0.339560 0.509230 -0.367916
O10   O     O_3   0.462230 0.839560 0.490770 -0.367913
V1    V     V_3+5 0.492990 0.064280 0.498290 1.434372
V2    V     V_3+5 0.507010 0.564280 0.501710 1.434377
C5    C     C_R   0.862634 0.025423 0.701055 -0.244691
C6    C     C_R   0.137348 0.525200 0.298964 -0.244595
H1    H     H_    0.782599 0.021974 0.586436 0.123374
H2    H     H_    0.217380 0.521665 0.413587 0.123401
H3    H     H_    0.879710 0.076135 0.655090 0.139863
H4    H     H_    0.120261 0.575783 0.344938 0.139947
C7    C     C_R   0.882206 0.945155 0.823630 -0.230045
C8    C     C_R   0.117789 0.445123 0.176374 -0.230052
C9    C     C_R   0.586904 0.819482 0.737967 -0.198233
C10   C     C_R   0.413099 0.319628 0.262030 -0.198243
C11   C     C_R   0.621342 0.832428 0.803594 -0.009273
C12   C     C_R   0.378662 0.332651 0.196404 -0.009268
C13   C     C_R   0.683402 0.869874 0.810526 -0.148696
C14   C     C_R   0.316599 0.370050 0.189477 -0.148691
C15   C     C_R   0.713543 0.887293 0.752033 0.105363
C16   C     C_R   0.286455 0.387334 0.247971 0.105368
C17   C     C_R   0.676690 0.889298 0.685012 0.052573
C18   C     C_R   0.323305 0.389266 0.314993 0.052574
C19   C     C_R   0.778142 0.916400 0.757959 0.002208
C20   C     C_R   0.221853 0.416382 0.242047 0.002218
C21   C     C_R   0.801631 0.974863 0.697412 0.011226
C22   C     C_R   0.198357 0.474717 0.302602 0.011156
C23   C     C_R   0.764278 0.981494 0.632793 -0.136599
C24   C     C_R   0.235707 0.481283 0.367223 -0.136616
C25   C     C_R   0.703346 0.933528 0.626266 -0.179861
C26   C     C_R   0.296643 0.433375 0.373746 -0.179841
C27   C     C_R   0.820204 0.888355 0.820908 0.338612
C28   C     C_R   0.179797 0.388387 0.179091 0.338646
C29   C     C_R   0.902444 0.014459 0.763440 0.408395
C30   C     C_R   0.097542 0.514291 0.236577 0.408329
C31   C     C_R   0.613408 0.851950 0.678558 -0.094722
C32   C     C_R   0.386591 0.351973 0.321443 -0.094722
H5    H     H_    0.538683 0.790360 0.733089 0.111864
H6    H     H_    0.461323 0.290554 0.266905 0.111867
H7    H     H_    0.706045 0.896268 0.862112 0.156396
H8    H     H_    0.293956 0.396519 0.137896 0.156380
H9    H     H_    0.676777 0.937810 0.574854 0.107760
H10   H     H_    0.323210 0.437604 0.425159 0.107743
C33   C     C_3   0.791426 0.701109 0.240117 0.366016
C34   C     C_3   0.208574 0.201110 0.759883 0.366024
C35   C     C_3   0.806453 0.048702 0.269812 -0.505117
C36   C     C_3   0.193546 0.548702 0.730186 -0.505112
C37   C     C_3   0.758036 0.036820 0.319881 0.305654
C38   C     C_3   0.241964 0.536823 0.680119 0.305662
H11   H     H_    0.763040 0.641564 0.341603 0.149002
H12   H     H_    0.236963 0.141568 0.658399 0.148999
H13   H     H_    0.835291 0.686092 0.275642 0.088615
H14   H     H_    0.164710 0.186095 0.724356 0.088575
H15   H     H_    0.808702 0.197236 0.250077 0.180258
H16   H     H_    0.191296 0.697235 0.749919 0.180264
H17   H     H_    0.852342 0.017566 0.298894 0.181385
H18   H     H_    0.147658 0.517565 0.701102 0.181376
H19   H     H_    0.734055 0.177910 0.318860 0.042128
H20   H     H_    0.265945 0.677912 0.681142 0.042131
C39   C     C_1   0.624764 0.856093 0.379100 -0.183979
C40   C     C_1   0.375237 0.356093 0.620901 -0.183980
C41   C     C_3   0.792092 0.905936 0.208158 0.105162
C42   C     C_3   0.207907 0.405935 0.791841 0.105155
C43   C     C_3   0.741203 0.686050 0.288749 -0.389980
C44   C     C_3   0.258798 0.186052 0.711252 -0.389988
C45   C     C_3   0.709202 0.882898 0.293267 0.109060
C46   C     C_3   0.290799 0.382899 0.706734 0.109059
C47   C     C_3   0.679109 0.943983 0.218646 0.290156
C48   C     C_3   0.320890 0.443983 0.781354 0.290150
C49   C     C_3   0.727980 0.952380 0.168881 -0.398087
C50   C     C_3   0.272019 0.452375 0.831119 -0.398077
C51   C     C_1   0.662774 0.868573 0.340773 0.029119
C52   C     C_1   0.337227 0.368574 0.659229 0.029125
C53   C     C_1   0.838514 0.924167 0.160927 0.034729
C54   C     C_1   0.161484 0.424166 0.839071 0.034726
C55   C     C_1   0.876463 0.938382 0.122614 -0.170921
C56   C     C_1   0.123535 0.438382 0.877384 -0.170888
H21   H     H_    0.716455 0.858433 0.123018 0.176728
H22   H     H_    0.283544 0.358423 0.876981 0.176735
H23   H     H_    0.727890 0.094772 0.144826 0.111297
H24   H     H_    0.272107 0.594764 0.855174 0.111295
H25   H     H_    0.706131 0.576056 0.273157 0.163783
H26   H     H_    0.293871 0.076059 0.726846 0.163781
H27   H     H_    0.660576 0.091556 0.223284 0.038974
H28   H     H_    0.339421 0.591557 0.776715 0.038965
O11   O     O_R   0.056480 0.288780 0.942210 -0.529656
O12   O     O_R   0.943520 0.788780 0.057790 -0.529678
O13   O     O_R   0.058700 0.616820 0.085490 -0.531664
O14   O     O_R   0.941300 0.116820 0.914510 -0.531644
C57   C     C_R   0.073871 0.448451 0.110868 0.775431
C58   C     C_R   0.926128 0.948455 0.889133 0.775650
O15   O     O_R   0.063520 0.618570 0.944410 -0.542960
O16   O     O_R   0.936480 0.118570 0.055590 -0.543003
O17   O     O_R   0.948420 0.787670 0.915740 -0.538252
O18   O     O_R   0.051580 0.287670 0.084260 -0.538301
C59   C     C_R   0.077816 0.449985 0.922801 0.698137
C60   C     C_R   0.922182 0.949984 0.077196 0.698012
O19   O     O_3   0.962260 0.453430 0.990800 -0.368644
O20   O     O_3   0.037740 0.953430 0.009200 -0.368636
V3    V     V_3+5 0.007000 0.728750 0.001710 1.488480
V4    V     V_3+5 0.993000 0.228750 0.998290 1.488436
O21   O     O_3   0.961408 0.078476 0.766014 -0.549357
C61   C     C_3   0.996698 0.927605 0.745337 -0.239003
H29   H     H_    0.981127 0.886249 0.690296 0.131850
H30   H     H_    0.996451 0.800730 0.779980 0.134050
H31   H     H_    0.044319 0.977299 0.749291 0.171094
O22   O     O_3   0.038572 0.578230 0.234034 -0.549380
C62   C     C_3   0.003248 0.426988 0.254387 -0.238775
H32   H     H_    0.018867 0.384536 0.309318 0.131805
H33   H     H_    0.003400 0.300763 0.219409 0.134063
H34   H     H_    0.955650 0.476803 0.250623 0.171072
O23   O     O_3   0.786350 0.988542 0.388046 -0.541686
C63   C     C_3   0.805063 0.155583 0.426277 -0.246876
H35   H     H_    0.765130 0.237637 0.437989 0.136065
H36   H     H_    0.834164 0.247988 0.398467 0.134946
H37   H     H_    0.832223 0.112713 0.476463 0.156212
O24   O     O_3   0.213654 0.488554 0.611952 -0.541690
C64   C     C_3   0.194933 0.655604 0.573726 -0.246905
H38   H     H_    0.234862 0.737703 0.562030 0.136071
H39   H     H_    0.165815 0.747969 0.601529 0.134936
H40   H     H_    0.167790 0.612738 0.523535 0.156229
O25   O     O_3   0.632343 0.812795 0.193178 -0.554697
C65   C     C_3   0.587147 0.903929 0.145664 -0.214395
H41   H     H_    0.606530 0.973627 0.102599 0.142940
H42   H     H_    0.561943 0.010414 0.172722 0.142207
H43   H     H_    0.554245 0.794109 0.122364 0.179740
O26   O     O_3   0.367658 0.312799 0.806825 -0.554703
C66   C     C_3   0.412856 0.403948 0.854328 -0.214384
H44   H     H_    0.393478 0.473679 0.897389 0.142953
H45   H     H_    0.438058 0.510405 0.827260 0.142216
H46   H     H_    0.445758 0.294138 0.877636 0.179731
O27   O     O_3   0.793835 0.555049 0.189303 -0.555676
C67   C     C_3   0.737631 0.473035 0.161503 -0.244578
H47   H     H_    0.700117 0.575439 0.150212 0.189319
H48   H     H_    0.724627 0.364412 0.197704 0.117312
H49   H     H_    0.742621 0.402865 0.111622 0.158788
O28   O     O_3   0.206164 0.055048 0.810697 -0.555667
C68   C     C_3   0.262368 0.973028 0.838497 -0.244562
H50   H     H_    0.299883 0.075428 0.849788 0.189309
H51   H     H_    0.275371 0.864405 0.802295 0.117307
H52   H     H_    0.257377 0.902855 0.888378 0.158792
O29   O     O_3   0.803127 0.772317 0.872598 -0.549266
C69   C     C_3   0.809466 0.866509 0.937544 -0.265502
H53   H     H_    0.813105 0.025646 0.934543 0.107062
H54   H     H_    0.848753 0.805312 0.971434 0.164757
H55   H     H_    0.769564 0.833100 0.963071 0.151660
O30   O     O_3   0.196888 0.272425 0.127390 -0.549269
C70   C     C_3   0.190541 0.366679 0.062455 -0.265485
H56   H     H_    0.186891 0.525807 0.065473 0.107092
H57   H     H_    0.151259 0.305483 0.028558 0.164718
H58   H     H_    0.230447 0.333333 0.036926 0.151659
C71   C     C_1   0.592517 0.811439 0.864522 0.290085
N1    N     N_1   0.569374 0.794568 0.913452 -0.367239
C72   C     C_1   0.407492 0.311803 0.135475 0.290098
N2    N     N_1   0.430639 0.295045 0.086544 -0.367237

loop_
_geom_bond_atom_site_label_1
_geom_bond_atom_site_label_2
_ccdc_geom_bond_type
C22   C24   A    
C34   O28   S    
C72   N2    T    
C34   C44   S    
C11   C13   A    
C28   O30   S    
C71   N1    T    
O1    C3    A    
O2    C4    A    
O24   C64   S    
C37   C45   S    
C65   H43   S    
C61   H29   S    
C7    C27   A    
O23   C63   S    
C23   C25   A    
O18   V4    S    
H11   C43   S    
O5    C3    A    
C38   C46   S    
C7    C29   A    
C16   C20   A    
C48   O26   S    
C63   H36   S    
C19   C21   A    
C5    C29   A    
C64   H38   S    
C1    C40   S    
O19   V3    S    
C13   H7    S    
H2    C24   S    
C66   H46   S    
C54   C56   T    
C35   C37   S    
C7    C58   S    
C45   C51   S    
C36   C38   S    
O27   C67   S    
C2    O7    A    
C50   H24   S    
C30   O22   S    
C58   O17   A    
O15   V3    S    
C8    C57   S    
C35   C41   S    
O20   V3    S    
O20   V4    S    
C11   C71   S    
O22   C62   S    
C36   H16   S    
C55   C60   S    
C49   H23   S    
C18   C26   A    
C33   H13   S    
C70   H57   S    
C36   C42   S    
C48   H28   S    
C19   C27   A    
C9    C31   A    
C69   H54   S    
C10   C32   A    
C64   H40   S    
C33   C43   S    
C24   C26   A    
O17   V3    S    
O6    V2    S    
C67   H49   S    
C3    C32   S    
C35   H17   S    
C4    C31   S    
C6    C30   A    
C41   C49   S    
C39   C51   T    
C45   C47   S    
C37   O23   S    
C2    C39   S    
C47   O25   S    
C33   O27   S    
C53   C55   T    
C44   C46   S    
C38   O24   S    
C34   C42   S    
O28   C68   S    
C69   H55   S    
C48   C50   S    
O19   V4    S    
O16   V4    S    
O11   V4    S    
C65   H42   S    
O5    V1    S    
C5    H3    S    
C33   C41   S    
O4    V2    S    
C47   H27   S    
C29   O21   S    
C70   H56   S    
C38   H20   S    
O6    C4    A    
O13   V3    S    
C15   C17   A    
C70   H58   S    
O1    V2    S    
C5    C21   A    
C42   C54   S    
C62   H32   S    
O2    V1    S    
C43   C45   S    
C25   H9    S    
C69   H53   S    
C40   C52   T    
C62   H33   S    
H1    C23   S    
C12   C72   S    
C37   H19   S    
C63   H37   S    
C67   H48   S    
O13   C57   A    
O14   C58   A    
O14   V4    S    
C17   C25   A    
O9    V1    S    
O30   C70   S    
C8    C28   A    
O10   V2    S    
C68   H52   S    
O4    C2    A    
C18   C32   A    
C46   C48   S    
O16   C60   A    
O3    V1    S    
C43   H25   S    
C47   C49   S    
O21   C61   S    
C41   C53   S    
C62   H34   S    
C36   H18   S    
C57   O18   A    
C56   C59   S    
C14   H8    S    
O12   V3    S    
H12   C44   S    
C6    H4    S    
O12   C60   A    
C35   H15   S    
C67   H47   S    
O3    C1    A    
C61   H30   S    
C66   H44   S    
C65   H41   S    
C44   H26   S    
C9    C11   A    
C10   C12   A    
C50   H22   S    
C8    C30   A    
C68   H51   S    
C10   H6    S    
C6    C22   A    
C49   H21   S    
C12   C14   A    
C13   C15   A    
O8    V2    S    
C68   H50   S    
C26   H10   S    
C14   C16   A    
C66   H45   S    
C34   H14   S    
O25   C65   S    
C17   C31   A    
C20   C22   A    
C15   C19   A    
O7    V1    S    
C9    H5    S    
C61   H31   S    
C20   C28   A    
O26   C66   S    
O11   C59   A    
C46   C52   S    
C1    O8    A    
C21   C23   A    
O9    V2    S    
O10   V1    S    
O15   C59   A    
O29   C69   S    
C27   O29   S    
C42   C50   S    
C16   C18   A    
C63   H35   S    
C64   H39   S    
