data_mof_unit_17782.cif
_audit_creation_date              2012-12-11T15:22:46-0500
_audit_creation_method            fapswitch 2.2
_symmetry_space_group_name_H-M    P1
_symmetry_Int_Tables_number       1
_space_group_crystal_system       triclinic
_cell_length_a                    22.500997
_cell_length_b                    12.9581
_cell_length_c                    26.912049
_cell_angle_alpha                 90.091306
_cell_angle_beta                  90.493182
_cell_angle_gamma                 90.132983
_cell_volume                      7846.4286439

loop_
_atom_site_label
_atom_site_type_symbol
_atom_type_description
_atom_site_fract_x
_atom_site_fract_y
_atom_site_fract_z
_atom_type_partial_charge
C1    C     C_R   0.720658 0.344562 0.178123 0.541953
C2    C     C_R   0.442930 0.254081 0.905404 -0.132752
C3    C     C_R   0.008515 0.586243 0.554567 -0.118727
C4    C     C_R   0.500193 0.087624 0.394438 -0.122981
C5    C     C_R   0.494939 0.078347 0.605674 -0.117941
C6    C     C_R   0.001093 0.583175 0.393642 -0.126395
C7    C     C_R   0.997002 0.583313 0.605319 -0.124066
C8    C     C_R   0.734218 0.983125 0.376682 0.039608
C9    C     C_R   0.266225 0.985169 0.622790 0.034819
C10   C     C_R   0.243069 0.446566 0.369277 0.024881
C11   C     C_R   0.765866 0.483347 0.623264 0.038826
C12   C     C_R   0.716515 0.888344 0.396489 -0.130117
C13   C     C_R   0.026262 0.757014 0.102827 -0.133212
C14   C     C_R   0.287211 0.893173 0.602274 -0.129721
C15   C     C_R   0.197195 0.389972 0.391747 -0.125177
C16   C     C_R   0.783511 0.388713 0.603276 -0.129370
C17   C     C_R   0.714756 0.876049 0.447985 -0.115259
C18   C     C_R   0.289506 0.882465 0.550712 -0.115095
C19   C     C_R   0.202738 0.359096 0.441011 -0.126116
C20   C     C_R   0.785421 0.376640 0.551762 -0.115320
C21   C     C_R   0.728733 0.959715 0.479493 0.033912
C22   C     C_R   0.272974 0.965275 0.519700 0.030667
C23   C     C_R   0.254247 0.384082 0.467991 0.034851
C24   C     C_R   0.969428 0.747222 0.900173 -0.142537
C25   C     C_R   0.771657 0.460393 0.520444 0.033345
C26   C     C_R   0.743294 0.055574 0.459065 -0.125197
C27   C     C_R   0.255261 0.058851 0.540876 -0.127306
C28   C     C_R   0.301906 0.433012 0.444227 -0.117137
C29   C     C_R   0.757185 0.556124 0.541060 -0.125782
C30   C     C_R   0.746900 0.066630 0.408212 -0.115609
C31   C     C_R   0.250724 0.067900 0.591800 -0.116886
C32   C     C_R   0.296480 0.463558 0.395117 -0.126162
C33   C     C_R   0.753428 0.566951 0.591919 -0.115976
C34   C     C_R   0.782986 0.989645 0.558457 -0.122746
C35   C     C_R   0.488642 0.259121 0.057646 0.012234
C36   C     C_R   0.218321 0.993723 0.440698 -0.118287
C37   C     C_R   0.310963 0.333789 0.542700 -0.136434
C38   C     C_R   0.717336 0.490045 0.441615 -0.123493
C39   C     C_R   0.721385 0.348327 0.321389 0.539007
C40   C     C_R   0.279852 0.345118 0.677393 0.545455
C41   C     C_R   0.221430 0.848495 0.321334 0.544914
C42   C     C_R   0.778624 0.848271 0.678601 0.551617
C43   C     C_R   0.794297 0.965016 0.607601 -0.128087
C44   C     C_R   0.206451 0.967256 0.391816 -0.127367
C45   C     C_R   0.317661 0.331521 0.593651 -0.124739
C46   C     C_R   0.455600 0.256955 0.956453 0.018487
C47   C     C_R   0.705899 0.465214 0.392475 -0.130613
C48   C     C_R   0.706078 0.856953 0.608483 -0.139687
C49   C     C_R   0.294879 0.860512 0.390777 -0.128121
C50   C     C_R   0.215965 0.388693 0.604106 -0.141522
C51   C     C_R   0.794125 0.357857 0.391335 -0.141170
C52   C     C_R   0.694542 0.882146 0.559095 -0.126684
C53   C     C_R   0.307256 0.888242 0.439783 -0.123161
C54   C     C_R   0.209451 0.393371 0.552498 -0.120597
C55   C     C_R   0.805791 0.383267 0.440716 -0.128351
C56   C     C_R   0.734301 0.945439 0.533303 0.037610
C57   C     C_R   0.008828 0.757647 0.053004 0.011848
C58   C     C_R   0.267504 0.951283 0.465725 0.037240
C59   C     C_R   0.257432 0.367227 0.521660 0.022883
C60   C     C_R   0.766073 0.446244 0.466630 0.037783
C61   C     C_R   0.757680 0.894400 0.632181 0.022419
C62   C     C_R   0.242817 0.896180 0.367379 0.024366
C63   C     C_R   0.270897 0.360773 0.624579 0.027827
C64   C     C_R   0.742444 0.394798 0.367782 0.022572
C65   C     C_R   0.554451 0.159089 0.321719 0.541831
C66   C     C_R   0.446610 0.158822 0.678833 0.551160
C67   C     C_R   0.053989 0.658965 0.321445 0.543888
C68   C     C_R   0.982101 0.751702 0.951028 0.008069
C69   C     C_R   0.945740 0.658975 0.678398 0.554703
C70   C     C_R   0.730985 0.004843 0.323916 0.537241
C71   C     C_R   0.269231 0.005795 0.675767 0.540879
C72   C     C_R   0.231870 0.501094 0.322681 0.545964
C73   C     C_R   0.769014 0.504915 0.676064 0.541031
C74   C     C_R   0.497114 0.071846 0.109613 -0.129785
C75   C     C_R   0.433889 0.067375 0.908815 -0.127764
C76   C     C_R   0.992319 0.579503 0.110969 -0.134449
C77   C     C_R   0.933451 0.571354 0.909369 -0.127774
C78   C     C_R   0.476252 0.071540 0.060774 0.013144
C79   C     C_R   0.473153 0.165138 0.034237 0.063374
C80   C     C_R   0.445667 0.069012 0.959686 0.015742
C81   C     C_R   0.974364 0.579043 0.061360 0.012587
C82   C     C_R   0.946926 0.573756 0.959826 0.016081
C83   C     C_R   0.447586 0.976797 0.986732 -0.131055
C84   C     C_R   0.462140 0.978132 0.037118 -0.130255
C85   C     C_R   0.937320 0.486578 0.989380 -0.126950
C86   C     C_R   0.950538 0.489336 0.039967 -0.130626
C87   C     C_R   0.457329 0.163928 0.983593 0.064383
C88   C     C_R   0.983861 0.667620 0.031928 0.062101
C89   C     C_R   0.294312 0.307439 0.827111 0.539110
C90   C     C_R   0.970484 0.664718 0.980991 0.063022
C91   C     C_R   0.484929 0.351682 0.030793 -0.145166
C92   C     C_R   0.468144 0.350666 0.980617 -0.139503
C93   C     C_R   0.019107 0.844556 0.023242 -0.136722
C94   C     C_R   0.005929 0.841513 0.972489 -0.143852
C95   C     C_R   0.745532 0.948139 0.132756 0.025570
C96   C     C_R   0.257496 0.951629 0.868381 0.024246
C97   C     C_R   0.244288 0.441620 0.134151 0.020650
C98   C     C_R   0.756625 0.451708 0.868223 0.026062
C99   C     C_R   0.791426 0.988263 0.103598 -0.124513
C100  C     C_R   0.220628 0.844613 0.178118 0.541038
C101  C     C_R   0.204398 0.971105 0.893732 -0.133286
C102  C     C_R   0.302340 0.436982 0.115648 -0.131793
C103  C     C_R   0.704974 0.477468 0.894396 -0.121382
C104  C     C_R   0.800930 0.951444 0.056147 -0.118342
C105  C     C_R   0.200499 0.950806 0.944328 -0.123103
C106  C     C_R   0.312637 0.398005 0.068189 -0.121467
C107  C     C_R   0.700871 0.456004 0.944793 -0.117916
C108  C     C_R   0.766544 0.869950 0.036784 0.040281
C109  C     C_R   0.249745 0.911327 0.970404 0.041170
C110  C     C_R   0.264966 0.364489 0.038106 0.034236
C111  C     C_R   0.794704 0.805604 0.826733 0.546750
C112  C     C_R   0.748393 0.408744 0.969979 0.041798
C113  C     C_R   0.722454 0.825431 0.066988 -0.114649
C114  C     C_R   0.300554 0.882346 0.943880 -0.114944
C115  C     C_R   0.207565 0.361668 0.058128 -0.120395
C116  C     C_R   0.796950 0.372563 0.942448 -0.116368
C117  C     C_R   0.552681 0.157268 0.178062 0.549470
C118  C     C_R   0.419565 0.153892 0.827698 0.545510
C119  C     C_R   0.052931 0.657604 0.178197 0.548921
C120  C     C_R   0.923447 0.654186 0.827962 0.539308
C121  C     C_R   0.711427 0.865376 0.114465 -0.128644
C122  C     C_R   0.433226 0.159096 0.881214 -0.008296
C123  C     C_R   0.304106 0.901225 0.893159 -0.129620
C124  C     C_R   0.197347 0.399541 0.105850 -0.127718
C125  C     C_R   0.801011 0.393792 0.891914 -0.133694
C126  C     C_R   0.725936 0.805910 0.954747 -0.117302
C127  C     C_R   0.277723 0.820692 0.048931 -0.119682
C128  C     C_R   0.242428 0.267548 0.959030 -0.113597
C129  C     C_R   0.774680 0.315589 0.048337 -0.122958
C130  C     C_R   0.732149 0.793088 0.903478 -0.119741
C131  C     C_R   0.273313 0.808418 0.099973 -0.126380
C132  C     C_R   0.247893 0.256750 0.907559 -0.130700
C133  C     C_R   0.517460 0.163683 0.131827 -0.006071
C134  C     C_R   0.770768 0.304085 0.099429 -0.127079
C135  C     C_R   0.834513 0.848979 0.909767 -0.130311
C136  C     C_R   0.211549 0.961038 0.104890 -0.127210
C137  C     C_R   0.316656 0.400756 0.906401 -0.124398
C138  C     C_R   0.713763 0.461989 0.105023 -0.127142
C139  C     C_R   0.829549 0.855456 0.960983 -0.115977
C140  C     C_R   0.217366 0.975044 0.053826 -0.115962
C141  C     C_R   0.310980 0.411878 0.957510 -0.114381
C142  C     C_R   0.719522 0.475603 0.053911 -0.113791
C143  C     C_R   0.774421 0.839433 0.984039 0.036646
C144  C     C_R   0.943674 0.658036 0.879599 -0.000964
C145  C     C_R   0.248506 0.902524 0.025075 0.040414
C146  C     C_R   0.273836 0.345619 0.984445 0.039773
C147  C     C_R   0.747775 0.400038 0.024739 0.040636
C148  C     C_R   0.786169 0.817889 0.880478 0.019445
C149  C     C_R   0.238149 0.875921 0.128050 0.024229
C150  C     C_R   0.284843 0.323630 0.880737 0.018284
C151  C     C_R   0.738054 0.374591 0.127864 0.026515
C152  C     C_R   0.529339 0.170297 0.371559 0.024949
C153  C     C_R   0.476497 0.167747 0.630660 0.019416
C154  C     C_R   0.026504 0.669269 0.370418 0.023951
C155  C     C_R   0.020599 0.666547 0.131145 -0.004478
C156  C     C_R   0.972038 0.669233 0.628967 0.022790
C157  C     C_R   0.544092 0.258312 0.399705 -0.127581
C158  C     C_R   0.476853 0.262505 0.605509 -0.140125
C159  C     C_R   0.035343 0.760571 0.397732 -0.124986
C160  C     C_R   0.962210 0.760128 0.601739 -0.125966
C161  C     C_R   0.534090 0.260446 0.450551 -0.123894
C162  C     C_R   0.488020 0.265665 0.554736 -0.126773
C163  C     C_R   0.023626 0.763039 0.448326 -0.120576
C164  C     C_R   0.972838 0.762486 0.550976 -0.120013
C165  C     C_R   0.731802 0.000949 0.179666 0.542720
C166  C     C_R   0.510747 0.257872 0.106519 -0.136644
C167  C     C_R   0.268223 0.000718 0.820168 0.526708
C168  C     C_R   0.231714 0.500120 0.179853 0.541034
C169  C     C_R   0.768147 0.500831 0.820169 0.530451
C170  C     C_R   0.507786 0.175649 0.474135 0.033863
C171  C     C_R   0.501401 0.174629 0.528725 0.035936
C172  C     C_R   0.001840 0.674879 0.472319 0.035189
C173  C     C_R   0.994529 0.674662 0.526676 0.036521
C174  C     C_R   0.488833 0.090815 0.445273 -0.116472
C175  C     C_R   0.507694 0.081938 0.555214 -0.114850
C176  C     C_R   0.988498 0.586192 0.444206 -0.118536
Cr1   Cr    Cr6+3 0.756570 0.170940 0.251190 1.008353
Cr2   Cr    Cr6+3 0.374010 0.036240 0.749520 1.008844
Cr3   Cr    Cr6+3 0.125990 0.536240 0.250480 1.011717
Cr4   Cr    Cr6+3 0.874010 0.536240 0.749520 1.012707
Cr5   Cr    Cr6+3 0.243430 0.170940 0.748810 1.012946
Cr6   Cr    Cr6+3 0.256570 0.670940 0.251190 1.009394
Cr7   Cr    Cr6+3 0.743430 0.670940 0.748810 1.008235
Cr8   Cr    Cr6+3 0.623740 0.299110 0.249580 1.009195
Cr9   Cr    Cr6+3 0.376260 0.299110 0.750420 1.008770
Cr10  Cr    Cr6+3 0.123740 0.799110 0.249580 1.012387
Cr11  Cr    Cr6+3 0.876260 0.799110 0.750420 1.008842
Cr12  Cr    Cr6+3 0.625990 0.036240 0.250480 1.016977
H1    H     H_    0.425873 0.994116 0.890536 0.122470
H2    H     H_    0.338833 0.849878 0.962564 0.094372
H3    H     H_    0.169915 0.336802 0.035786 0.104934
H4    H     H_    0.833345 0.332408 0.960159 0.090675
H5    H     H_    0.675930 0.832829 0.136435 0.114679
H6    H     H_    0.344904 0.882647 0.874156 0.116467
H7    H     H_    0.152102 0.401984 0.119218 0.130447
H8    H     H_    0.840580 0.370563 0.872242 0.118079
H9    H     H_    0.567388 0.322839 0.383223 0.133593
H10   H     H_    0.463852 0.333047 0.624069 0.125649
H11   H     H_    0.055358 0.827985 0.380920 0.131742
H12   H     H_    0.501287 0.999005 0.129101 0.129805
H13   H     H_    0.942364 0.827334 0.618836 0.132301
H14   H     H_    0.520587 0.011357 0.536656 0.102779
H15   H     H_    0.466567 0.025709 0.462152 0.103318
H16   H     H_    0.027044 0.518515 0.536944 0.099083
H17   H     H_    0.969870 0.518216 0.461569 0.104315
H18   H     H_    0.496311 0.004443 0.624390 0.130776
H19   H     H_    0.488299 0.019117 0.373453 0.122281
H20   H     H_    0.005131 0.512471 0.625551 0.125891
H21   H     H_    0.993572 0.512082 0.373292 0.123254
H22   H     H_    0.549724 0.326520 0.471610 0.104519
H23   H     H_    0.914030 0.502317 0.893257 0.121118
H24   H     H_    0.483016 0.338528 0.535567 0.098700
H25   H     H_    0.034567 0.832317 0.469042 0.104127
H26   H     H_    0.961367 0.831507 0.530432 0.103928
H27   H     H_    0.704832 0.824405 0.372316 0.105965
H28   H     H_    0.301038 0.830000 0.625974 0.112272
H29   H     H_    0.155688 0.374973 0.372347 0.127423
H30   H     H_    0.795030 0.324724 0.627318 0.109025
H31   H     H_    0.814691 0.038101 0.539354 0.098464
H32   H     H_    0.186431 0.041760 0.459727 0.100768
H33   H     H_    0.347863 0.310301 0.519706 0.115691
H34   H     H_    0.987603 0.509982 0.132996 0.124589
H35   H     H_    0.685673 0.538261 0.460833 0.098006
H36   H     H_    0.834109 0.995755 0.625103 0.127189
H37   H     H_    0.166309 0.996743 0.374516 0.126302
H38   H     H_    0.358983 0.303590 0.609162 0.133121
H39   H     H_    0.666037 0.495577 0.375079 0.124640
H40   H     H_    0.439379 0.903390 0.968631 0.095413
H41   H     H_    0.464536 0.905723 0.057125 0.103376
H42   H     H_    0.920968 0.415601 0.973143 0.100080
H43   H     H_    0.943573 0.420581 0.062067 0.106508
H44   H     H_    0.703922 0.800978 0.463085 0.097920
H45   H     H_    0.876340 0.868833 0.892873 0.124690
H46   H     H_    0.302727 0.808953 0.535222 0.108775
H47   H     H_    0.166072 0.319419 0.458553 0.096821
H48   H     H_    0.796181 0.301666 0.536494 0.098562
H49   H     H_    0.656023 0.849136 0.540567 0.100695
H50   H     H_    0.346284 0.856793 0.458006 0.098045
H51   H     H_    0.167740 0.419877 0.536783 0.109027
H52   H     H_    0.844343 0.350593 0.459155 0.099346
H53   H     H_    0.752569 0.121912 0.482459 0.105235
H54   H     H_    0.244067 0.124876 0.518039 0.115779
H55   H     H_    0.342059 0.453561 0.464446 0.103682
H56   H     H_    0.184368 0.014168 0.125866 0.121216
H57   H     H_    0.748056 0.622503 0.517801 0.105146
H58   H     H_    0.757760 0.141899 0.393370 0.132396
H59   H     H_    0.236927 0.141323 0.607089 0.143940
H60   H     H_    0.332628 0.506408 0.378557 0.127262
H61   H     H_    0.742643 0.642123 0.606920 0.131746
H62   H     H_    0.441665 0.325449 0.884490 0.125547
H63   H     H_    0.525866 0.329129 0.123645 0.124922
H64   H     H_    0.978215 0.813765 0.876980 0.122958
H65   H     H_    0.048254 0.824433 0.118361 0.132463
H66   H     H_    0.466492 0.422847 0.960388 0.100580
H67   H     H_    0.346112 0.452986 0.887094 0.128597
H68   H     H_    0.496244 0.424563 0.048293 0.101928
H69   H     H_    0.014792 0.908986 0.949977 0.103428
H70   H     H_    0.038500 0.914025 0.039005 0.104716
H71   H     H_    0.818440 0.052489 0.116306 0.121760
H72   H     H_    0.167140 0.007929 0.875261 0.126916
H73   H     H_    0.339467 0.467413 0.137002 0.123559
H74   H     H_    0.669211 0.520101 0.876808 0.129178
H75   H     H_    0.682638 0.793281 0.970824 0.099690
H76   H     H_    0.301557 0.762811 0.028069 0.100631
H77   H     H_    0.213818 0.214843 0.978928 0.099459
H78   H     H_    0.688596 0.517532 0.126323 0.116738
H79   H     H_    0.796249 0.255261 0.027363 0.100636
H80   H     H_    0.694212 0.767033 0.881801 0.130866
H81   H     H_    0.293762 0.741160 0.116713 0.136152
H82   H     H_    0.223812 0.195474 0.888816 0.132347
H83   H     H_    0.789512 0.235316 0.116022 0.128140
H84   H     H_    0.833705 0.991233 0.034082 0.097250
H85   H     H_    0.159589 0.969215 0.963253 0.100217
H86   H     H_    0.357573 0.398539 0.054129 0.115614
H87   H     H_    0.661242 0.479617 0.964254 0.101095
H88   H     H_    0.868831 0.876423 0.982173 0.114039
H89   H     H_    0.695734 0.761370 0.053746 0.093116
H90   H     H_    0.196162 0.041148 0.036748 0.095627
H91   H     H_    0.334817 0.474164 0.975765 0.099574
H92   H     H_    0.700444 0.543969 0.037175 0.097218
H93   H     H_    0.676705 0.803303 0.626995 0.123837
H94   H     H_    0.324078 0.806554 0.372352 0.124431
H95   H     H_    0.178919 0.407844 0.627810 0.110347
H96   H     H_    0.823453 0.304394 0.372725 0.122001
O1    O     O_R   0.769900 0.064540 0.196060 -0.525346
O2    O     O_R   0.433710 0.069580 0.694600 -0.509834
O3    O     O_R   0.066290 0.569580 0.305400 -0.520892
O4    O     O_R   0.933710 0.569580 0.694600 -0.508654
O5    O     O_R   0.680760 0.993330 0.302620 -0.497472
O6    O     O_R   0.319240 0.993330 0.697380 -0.494676
O7    O     O_R   0.180760 0.493330 0.302620 -0.504818
O8    O     O_R   0.819240 0.493330 0.697380 -0.493595
O9    O     O_3   0.668770 0.168760 0.250420 -0.238594
O10   O     O_3   0.331230 0.168760 0.749580 -0.281080
O11   O     O_3   0.168770 0.668760 0.250420 -0.236090
O12   O     O_R   0.230100 0.064540 0.803940 -0.529722
O13   O     O_3   0.831230 0.668760 0.749580 -0.276431
O14   O     O_R   0.750800 0.274080 0.199250 -0.506652
O15   O     O_R   0.249200 0.274080 0.800750 -0.490380
O16   O     O_R   0.250800 0.774080 0.199250 -0.506136
O17   O     O_R   0.749200 0.774080 0.800750 -0.498839
O18   O     O_R   0.669990 0.371670 0.194150 -0.517133
O19   O     O_R   0.330010 0.371670 0.805850 -0.522278
O20   O     O_R   0.169990 0.871670 0.194150 -0.520266
O21   O     O_R   0.830010 0.871670 0.805850 -0.514268
O22   O     O_R   0.574600 0.238480 0.197800 -0.500336
O23   O     O_R   0.269900 0.564540 0.196060 -0.524566
O24   O     O_R   0.425400 0.238480 0.802200 -0.509713
O25   O     O_R   0.074600 0.738480 0.197800 -0.502980
O26   O     O_R   0.925400 0.738480 0.802200 -0.516632
O27   O     O_R   0.566130 0.068680 0.194240 -0.521326
O28   O     O_R   0.433870 0.068680 0.805760 -0.508283
O29   O     O_R   0.066130 0.568680 0.194240 -0.522127
O30   O     O_R   0.933870 0.568680 0.805760 -0.506334
O31   O     O_R   0.680610 0.992490 0.199570 -0.499746
O32   O     O_R   0.319390 0.992490 0.800430 -0.521683
O33   O     O_R   0.180610 0.492490 0.199570 -0.502968
O34   O     O_R   0.730100 0.564540 0.803940 -0.527067
O35   O     O_R   0.819390 0.492490 0.800430 -0.520591
O36   O     O_R   0.770060 0.065440 0.307230 -0.520911
O37   O     O_R   0.229940 0.065440 0.692770 -0.515824
O38   O     O_R   0.270060 0.565440 0.307230 -0.522177
O39   O     O_R   0.729940 0.565440 0.692770 -0.518253
O40   O     O_R   0.750960 0.274920 0.302300 -0.509061
O41   O     O_R   0.249040 0.274920 0.697700 -0.496831
O42   O     O_R   0.250960 0.774920 0.302300 -0.502324
O43   O     O_R   0.749040 0.774920 0.697700 -0.502728
O44   O     O_R   0.670160 0.372580 0.305320 -0.526494
O45   O     O_R   0.574760 0.239320 0.300850 -0.507192
O46   O     O_R   0.329840 0.372580 0.694680 -0.512608
O47   O     O_R   0.170160 0.872580 0.305320 -0.525668
O48   O     O_R   0.829840 0.872580 0.694680 -0.519298
O49   O     O_R   0.425240 0.239320 0.699150 -0.503635
O50   O     O_R   0.074760 0.739320 0.300850 -0.504248
O51   O     O_R   0.925240 0.739320 0.699150 -0.499637
O52   O     O_R   0.566290 0.069580 0.305400 -0.515411

loop_
_geom_bond_atom_site_label_1
_geom_bond_atom_site_label_2
_ccdc_geom_bond_type
C21   C26   A    
C34   C56   A    
C114  H2    S    
C157  C161  A    
C132  C150  A    
C107  C112  A    
Cr5   O12   S    
C120  C144  S    
Cr6   O11   S    
C136  C140  A    
C117  C133  S    
C79   C87   A    
C135  C139  A    
C89   O15   A    
C32   H60   S    
C86   H43   S    
C72   O7    A    
C97   C124  A    
C132  H82   S    
C95   C99   A    
C94   H69   S    
C75   C122  A    
C29   C33   A    
C49   H94   S    
Cr7   O17   S    
C98   C169  S    
Cr7   O43   S    
C162  C171  A    
C20   H48   S    
Cr9   O24   S    
C68   C90   A    
C128  H77   S    
C25   C60   S    
C107  H87   S    
C44   H37   S    
C81   C86   A    
C83   H40   S    
C115  H3    S    
C116  H4    S    
C72   O38   A    
C3    H16   S    
C80   C83   A    
C42   O43   A    
Cr12  O5    S    
C73   O39   A    
C25   C29   A    
C109  C145  S    
C27   C31   A    
C140  H90   S    
C1    O14   A    
Cr11  O21   S    
C141  H91   S    
C113  H89   S    
C47   C64   A    
C34   H31   S    
C111  O17   A    
C17   C21   A    
Cr8   O44   S    
C120  O30   A    
C38   H35   S    
C100  O20   A    
C19   C23   A    
Cr7   O34   S    
Cr3   O29   S    
Cr5   O37   S    
C39   O40   A    
C156  C160  A    
C16   C20   A    
C164  C173  A    
Cr8   O22   S    
Cr10  O11   S    
C137  H67   S    
C127  C145  A    
C89   C150  S    
C74   H12   S    
C22   C27   A    
Cr1   O14   S    
C36   C44   A    
C37   C45   A    
C27   H54   S    
C43   C61   A    
C170  C174  A    
C152  C157  A    
C49   C62   A    
C30   H58   S    
Cr9   O19   S    
Cr10  O20   S    
C51   C64   A    
C140  C145  A    
C22   C58   S    
C66   C153  S    
C53   C58   A    
C18   H46   S    
C138  C151  A    
C82   C85   A    
C161  H22   S    
C76   C155  A    
C44   C62   A    
Cr12  O27   S    
C77   H23   S    
C37   H33   S    
C111  C148  S    
Cr1   O1    S    
C165  O31   A    
C67   O50   A    
C77   C82   A    
C49   C53   A    
C134  C151  A    
Cr3   O3    S    
C158  H10   S    
C126  H75   S    
C73   O8    A    
C51   C55   A    
C127  C131  A    
C129  C147  A    
C81   C88   A    
C169  O35   A    
C70   O36   A    
C48   C52   A    
C69   O4    A    
C117  O22   A    
Cr12  O52   S    
C103  C107  A    
Cr8   O45   S    
C133  C166  A    
Cr6   O38   S    
C41   O47   A    
C126  C143  A    
C85   C86   A    
C23   C59   S    
Cr4   O8    S    
C67   C154  S    
C167  O32   A    
C162  H24   S    
Cr12  O31   S    
C13   C57   A    
C170  C171  S    
C127  H76   S    
C118  C122  S    
C165  O1    A    
C153  C158  A    
C139  C143  A    
C98   C125  A    
C7    C156  A    
Cr4   O13   S    
C123  H6    S    
C16   H30   S    
C50   C63   A    
C17   H44   S    
C54   C59   A    
C160  H13   S    
C4    C152  A    
C71   O37   A    
C69   C156  S    
Cr5   O15   S    
Cr6   O16   S    
C66   O2    A    
C142  H92   S    
C91   C92   A    
C164  H26   S    
C68   C94   A    
C129  C134  A    
C41   O42   A    
Cr11  O26   S    
C83   C84   A    
C99   H71   S    
C8    C12   A    
C14   H28   S    
Cr1   O36   S    
C23   C28   A    
C37   C59   A    
C109  C114  A    
C38   C60   A    
C114  C123  A    
Cr1   O40   S    
C26   C30   A    
C116  C125  A    
C119  O25   A    
C51   H96   S    
C112  C116  A    
C65   O45   A    
C46   C87   A    
C167  O12   A    
C111  O21   A    
C105  C109  A    
C96   C123  A    
C18   C22   A    
C120  O26   A    
C142  C147  A    
Cr2   O28   S    
C168  O33   A    
C175  H14   S    
C39   O44   A    
C11   C33   A    
C97   C168  S    
C8    C70   S    
C76   C81   A    
C112  C147  S    
C105  H85   S    
C154  C159  A    
C65   O52   A    
C128  C146  A    
C35   C79   A    
C1    O18   A    
C40   O41   A    
C89   O19   A    
C47   H39   S    
C55   C60   A    
C172  C176  A    
C92   H66   S    
C117  O27   A    
Cr1   O9    S    
C118  O28   A    
Cr2   O6    S    
C168  O23   A    
Cr3   O11   S    
Cr2   O32   S    
C136  C149  A    
C26   H53   S    
C6    H21   S    
Cr2   O2    S    
C15   C19   A    
C39   C64   S    
C50   C54   A    
C40   C63   S    
Cr10  O25   S    
C160  C164  A    
C75   H1    S    
C54   H51   S    
C3    C7    A    
C46   C92   A    
C20   C25   A    
C126  C130  A    
C98   C103  A    
C35   C166  A    
Cr6   O23   S    
C5    H18   S    
Cr11  O48   S    
C12   C17   A    
C71   O6    A    
C55   H52   S    
C15   H29   S    
C97   C102  A    
C130  H80   S    
C95   C121  A    
C159  H11   S    
C99   C104  A    
C4    C174  A    
C96   C101  A    
C5    C175  A    
C41   C62   S    
C95   C165  S    
C121  H5    S    
C40   O46   A    
C2    C122  A    
C34   C43   A    
C24   H64   S    
C138  C142  A    
C176  H17   S    
C53   H50   S    
C9    C14   A    
C104  H84   S    
C11   C16   A    
C110  C146  S    
C28   C32   A    
C48   H93   S    
C102  H73   S    
C33   H61   S    
C84   H41   S    
C6    C154  A    
C141  C146  A    
C88   C90   A    
C11   C73   S    
Cr9   O49   S    
C104  C108  A    
C4    H19   S    
Cr11  O51   S    
C137  C141  A    
C115  C124  A    
C29   H57   S    
C85   H42   S    
C9    C71   S    
C19   H47   S    
C21   C56   S    
C100  C149  S    
C166  H63   S    
C82   C90   A    
C8    C30   A    
C163  H25   S    
C24   C144  A    
C103  H74   S    
C1    C151  S    
C157  H9    S    
C45   H38   S    
C137  C150  A    
C24   C68   A    
C93   H70   S    
C74   C78   A    
C12   H27   S    
C110  C115  A    
Cr7   O13   S    
C108  C143  S    
C108  C113  A    
Cr7   O39   S    
C101  H72   S    
C93   C94   A    
C14   C18   A    
C106  H86   S    
C36   H32   S    
C2    C46   A    
C6    C176  A    
C80   C87   A    
C36   C58   A    
C10   C15   A    
C2    H62   S    
C69   O51   A    
C91   H68   S    
Cr10  O50   S    
C74   C133  A    
C66   O49   A    
C13   C155  A    
C67   O3    A    
C3    C173  A    
C118  O24   A    
Cr2   O10   S    
C135  H45   S    
Cr3   O7    S    
C28   H55   S    
C100  O16   A    
C75   C80   A    
C42   O48   A    
Cr12  O9    S    
C129  H79   S    
Cr5   O41   S    
C57   C93   A    
C31   H59   S    
C128  C132  A    
C101  C105  A    
C96   C167  S    
C136  H56   S    
C130  C148  A    
C70   O5    A    
Cr5   O10   S    
C9    C31   A    
C78   C79   A    
C138  H78   S    
C125  H8    S    
C76   H34   S    
C134  H83   S    
C171  C175  A    
C45   C63   A    
Cr4   O4    S    
C163  C172  A    
C10   C32   A    
Cr8   O9    S    
C131  H81   S    
C13   H65   S    
C119  O29   A    
C113  C121  A    
C42   C61   S    
C38   C47   A    
C52   H49   S    
C161  C170  A    
C169  O34   A    
Cr10  O47   S    
C159  C163  A    
C139  H88   S    
C172  C173  S    
C106  C110  A    
C119  C155  S    
C7    H20   S    
Cr3   O33   S    
Cr9   O46   S    
Cr6   O42   S    
C57   C88   A    
C50   H95   S    
C65   C152  S    
C43   H36   S    
C77   C144  A    
Cr11  O13   S    
C48   C61   A    
Cr4   O30   S    
C5    C153  A    
C124  H7    S    
C174  H15   S    
C102  C106  A    
C131  C149  A    
C158  C162  A    
C78   C84   A    
C135  C148  A    
Cr8   O18   S    
Cr9   O10   S    
C52   C56   A    
C10   C72   S    
Cr4   O35   S    
C35   C91   A    
