data_mof_unit_42277.cif
_audit_creation_date              2012-12-11T16:48:00-0500
_audit_creation_method            fapswitch 2.2
_symmetry_space_group_name_H-M    P1
_symmetry_Int_Tables_number       1
_space_group_crystal_system       triclinic
_cell_length_a                    17.320195
_cell_length_b                    24.419573
_cell_length_c                    14.973506
_cell_angle_alpha                 89.968309
_cell_angle_beta                  125.458412
_cell_angle_gamma                 89.985535
_cell_volume                      5158.51719952

loop_
_atom_site_label
_atom_site_type_symbol
_atom_type_description
_atom_site_fract_x
_atom_site_fract_y
_atom_site_fract_z
_atom_type_partial_charge
C1    C     C_R   0.321154 0.364878 0.909806 -0.152118
C2    C     C_R   0.535890 0.498723 0.708704 0.085252
C3    C     C_R   0.090242 0.868508 0.905325 -0.135425
C4    C     C_R   0.322667 0.350295 0.999865 0.121319
C5    C     C_R   0.682940 0.354721 0.003999 0.120083
C6    C     C_R   0.823069 0.849162 0.999041 0.110735
C7    C     C_R   0.174327 0.848849 0.996299 0.111310
C8    C     C_R   0.961726 0.999005 0.288762 0.085977
C9    C     C_R   0.935651 0.998715 0.634118 0.089174
C10   C     C_R   0.175518 0.500451 0.722029 0.132804
C11   C     C_R   0.809257 0.500036 0.357017 0.140966
C12   C     C_R   0.688938 0.999986 0.645427 0.140170
C13   C     C_R   0.324309 0.000221 0.276774 0.133530
C14   C     C_2   0.923019 0.460492 0.537836 -0.116500
C15   C     C_2   0.021251 0.457283 0.634656 -0.103530
C16   C     C_2   0.478869 0.957247 0.367619 -0.113875
C17   C     C_R   0.687025 0.373000 0.093333 -0.147874
C18   C     C_2   0.576619 0.960849 0.464589 -0.113105
C19   C     C_2   0.895306 0.501977 0.466554 -0.193948
C20   C     C_2   0.075009 0.502308 0.674595 -0.189910
C21   C     C_2   0.425039 0.002118 0.325214 -0.195287
C22   C     C_2   0.602488 0.001796 0.536299 -0.196986
C23   C     C_R   0.386338 0.762104 0.098071 0.153246
C24   C     C_R   0.611268 0.762860 0.899872 0.151875
C25   C     C_R   0.878623 0.257599 0.106960 0.202015
C26   C     C_R   0.116073 0.259707 0.893574 0.178559
C27   C     C_R   0.368947 0.743337 0.999891 -0.024521
C28   C     C_R   0.816395 0.868255 0.907845 -0.139599
C29   C     C_R   0.631768 0.743130 0.999219 -0.026616
C30   C     C_R   0.862411 0.240050 0.008330 -0.034246
C31   C     C_R   0.132550 0.241440 0.991983 -0.022801
C32   C     C_R   0.302468 0.771257 0.901543 0.500101
C33   C     C_R   0.698473 0.771183 0.097057 0.503335
C34   C     C_R   0.812098 0.274919 0.915964 0.513831
C35   C     C_R   0.187152 0.274755 0.086069 0.508824
C36   C     C_R   0.758771 0.318163 0.917330 -0.408999
C37   C     C_R   0.245331 0.315404 0.086627 -0.407608
C38   C     C_R   0.239327 0.807873 0.900261 -0.393074
C39   C     C_R   0.177866 0.863213 0.088286 -0.142180
C40   C     C_R   0.759621 0.808575 0.096478 -0.390726
C41   C     C_R   0.758762 0.325964 0.010276 0.014419
C42   C     C_R   0.245847 0.322412 0.993779 0.018634
C43   C     C_R   0.246508 0.818360 0.997003 0.025556
C44   C     C_R   0.750525 0.819430 0.998710 0.027080
C45   C     C_R   0.446980 0.652729 0.089018 0.477058
C46   C     C_R   0.553238 0.652606 0.910736 0.457208
C47   C     C_R   0.947545 0.151853 0.090534 0.440076
C48   C     C_R   0.049642 0.152508 0.909526 0.449281
C49   C     C_R   0.827956 0.300263 0.107996 0.118808
C50   C     C_R   0.387543 0.685042 0.998069 0.032119
C51   C     C_R   0.172096 0.299644 0.894635 0.116178
C52   C     C_R   0.324491 0.798772 0.096424 0.098738
C53   C     C_R   0.671218 0.800561 0.899718 0.089113
C54   C     C_3   0.819757 0.273549 0.192220 -0.574864
C55   C     C_3   0.172837 0.272722 0.805275 -0.594312
C56   C     C_3   0.402933 0.833364 0.184420 -0.587508
C57   C     C_3   0.590915 0.835872 0.815886 -0.571505
C58   C     C_3   0.470403 0.795025 0.183748 -0.316194
C59   C     C_3   0.525776 0.796036 0.817653 -0.314341
C60   C     C_3   0.875127 0.226453 0.191208 -0.403934
C61   C     C_R   0.613291 0.684818 0.001548 0.038868
C62   C     C_3   0.111657 0.228857 0.803808 -0.367835
C63   C     C_R   0.593070 0.447156 0.614084 0.159388
C64   C     C_R   0.603899 0.447042 0.529989 0.164732
C65   C     C_R   0.896351 0.947695 0.470100 0.164018
C66   C     C_R   0.905816 0.947686 0.384950 0.163176
C67   C     C_R   0.582446 0.496747 0.653098 0.032220
C68   C     C_R   0.602115 0.496517 0.481647 0.029457
C69   C     C_R   0.898626 0.997182 0.518583 0.029053
C70   C     C_R   0.915642 0.997213 0.344963 0.030677
C71   C     C_R   0.609024 0.545271 0.626847 -0.193205
C72   C     C_R   0.883581 0.183255 0.001186 0.055668
C73   C     C_R   0.618793 0.545186 0.540553 -0.194999
C74   C     C_R   0.881809 0.045884 0.459561 -0.195965
C75   C     C_R   0.890114 0.045858 0.372113 -0.197436
C76   C     C_3   0.546589 0.395832 0.481069 -0.520051
C77   C     C_3   0.533976 0.396163 0.572254 -0.524215
C78   C     C_3   0.965442 0.896813 0.426832 -0.524040
C79   C     C_3   0.954217 0.896630 0.519074 -0.523207
C80   C     C_R   0.550912 0.453399 0.302974 -0.154938
C81   C     C_R   0.505573 0.453707 0.736271 -0.130756
C82   C     C_R   0.991351 0.953815 0.260723 -0.131084
C83   C     C_R   0.112062 0.184342 0.998643 0.055072
C84   C     C_R   0.949167 0.953673 0.696901 -0.154034
C85   C     C_R   0.232528 0.545835 0.751936 -0.146341
C86   C     C_R   0.759645 0.545560 0.296478 -0.149054
C87   C     C_R   0.739368 0.045589 0.704725 -0.152785
C88   C     C_R   0.267485 0.045704 0.247911 -0.148828
C89   C     C_R   0.546472 0.544305 0.302631 -0.134767
C90   C     C_R   0.514320 0.545016 0.744346 -0.165636
C91   C     C_R   0.984992 0.045217 0.254730 -0.168483
C92   C     C_R   0.954056 0.044618 0.697772 -0.147937
C93   C     C_R   0.230454 0.454656 0.741606 -0.108451
C94   C     C_R   0.564919 0.498265 0.366096 0.084230
C95   C     C_R   0.757694 0.454104 0.299316 -0.130823
C96   C     C_R   0.740999 0.953964 0.702616 -0.128841
C97   C     C_R   0.269104 0.954340 0.255944 -0.110016
C98   C     C_R   0.353569 0.651868 0.907682 -0.215683
C99   C     C_R   0.647864 0.651470 0.092308 -0.205326
C100  C     C_R   0.849558 0.151087 0.908905 -0.187996
C101  C     C_R   0.147230 0.151934 0.090664 -0.203720
C102  C     C_R   0.407152 0.369127 0.092693 -0.138370
C103  C     C_R   0.593577 0.366468 0.910964 -0.140786
C104  C     C_R   0.911465 0.863346 0.090613 -0.139940
H1    H     H_    0.271973 0.352467 0.826740 0.106346
H2    H     H_    0.135071 0.297350 0.728514 0.197526
H3    H     H_    0.403353 0.875533 0.156528 0.216089
H4    H     H_    0.591221 0.877117 0.847625 0.212545
H5    H     H_    0.745748 0.262246 0.160347 0.207687
H6    H     H_    0.243971 0.257245 0.833119 0.208762
H7    H     H_    0.407209 0.830935 0.261267 0.189796
H8    H     H_    0.583267 0.836077 0.736858 0.197690
H9    H     H_    0.516344 0.772377 0.262268 0.219047
H10   H     H_    0.478709 0.774199 0.738429 0.220835
H11   H     H_    0.833035 0.188029 0.158777 0.167908
H12   H     H_    0.745807 0.370475 0.178359 0.113717
H13   H     H_    0.147914 0.188412 0.830212 0.172352
H14   H     H_    0.610646 0.584182 0.662304 0.132899
H15   H     H_    0.626618 0.584086 0.512113 0.131463
H16   H     H_    0.874725 0.084825 0.488479 0.130629
H17   H     H_    0.888301 0.084742 0.336343 0.129415
H18   H     H_    0.478362 0.402085 0.399459 0.200094
H19   H     H_    0.569370 0.361005 0.629488 0.188127
H20   H     H_    0.929959 0.861470 0.370345 0.185352
H21   H     H_    0.022812 0.903121 0.600154 0.200197
H22   H     H_    0.590031 0.360789 0.486261 0.192902
H23   H     H_    0.758747 0.862343 0.822833 0.106163
H24   H     H_    0.458642 0.403102 0.540542 0.201936
H25   H     H_    0.040398 0.903882 0.457149 0.201422
H26   H     H_    0.911393 0.861540 0.515023 0.192056
H27   H     H_    0.574870 0.412064 0.331172 0.101379
H28   H     H_    0.503880 0.412113 0.714154 0.097077
H29   H     H_    0.989598 0.912145 0.279999 0.098084
H30   H     H_    0.924953 0.912449 0.668261 0.100541
H31   H     H_    0.561610 0.585993 0.331270 0.107175
H32   H     H_    0.528013 0.587162 0.736403 0.122426
H33   H     H_    0.972272 0.087516 0.263236 0.113061
H34   H     H_    0.227628 0.848138 0.170319 0.099865
H35   H     H_    0.939380 0.086494 0.669797 0.103626
H36   H     H_    0.204529 0.413906 0.713940 0.081908
H37   H     H_    0.770308 0.412518 0.329513 0.082784
H38   H     H_    0.727486 0.912251 0.673148 0.082962
H39   H     H_    0.293964 0.913058 0.279309 0.084042
H40   H     H_    0.433029 0.364123 0.177477 0.098677
H41   H     H_    0.564286 0.351067 0.830008 0.093449
H42   H     H_    0.944654 0.847584 0.172245 0.091494
H43   H     H_    0.061904 0.863247 0.819896 0.096770
H44   H     H_    0.878671 0.424602 0.516851 0.121192
H45   H     H_    0.711249 0.341727 0.843536 0.144338
H46   H     H_    0.052468 0.416721 0.658683 0.118568
H47   H     H_    0.447900 0.916784 0.346363 0.119298
H48   H     H_    0.622077 0.925486 0.485314 0.121559
H49   H     H_    0.939324 0.537597 0.484235 0.134125
H50   H     H_    0.043125 0.542656 0.658465 0.131679
H51   H     H_    0.457080 0.042408 0.341099 0.133455
H52   H     H_    0.557078 0.036779 0.518572 0.135335
H53   H     H_    0.247462 0.783775 0.747176 0.313858
H54   H     H_    0.755750 0.783303 0.252070 0.311320
H55   H     H_    0.770432 0.292046 0.767448 0.313746
H56   H     H_    0.295255 0.337437 0.161567 0.145482
H57   H     H_    0.231346 0.291200 0.235689 0.316200
H58   H     H_    0.508870 0.814157 0.152662 0.192820
H59   H     H_    0.488777 0.813579 0.851902 0.194515
H60   H     H_    0.945902 0.222100 0.270551 0.227896
H61   H     H_    0.039362 0.228507 0.725740 0.223647
H62   H     H_    0.568164 0.646233 0.227230 0.305332
H63   H     H_    0.437871 0.643487 0.766666 0.311001
H64   H     H_    0.066849 0.142927 0.231258 0.311365
H65   H     H_    0.925469 0.144419 0.774810 0.307008
H66   H     H_    0.211649 0.588102 0.745796 0.105416
H67   H     H_    0.183755 0.826566 0.823629 0.139397
H68   H     H_    0.773998 0.587688 0.323850 0.099200
H69   H     H_    0.724562 0.087694 0.677083 0.099709
H70   H     H_    0.288523 0.087974 0.254785 0.103068
H71   H     H_    0.315115 0.664421 0.823130 0.199616
H72   H     H_    0.688346 0.663550 0.177237 0.193675
H73   H     H_    0.806385 0.164015 0.824257 0.187757
H74   H     H_    0.188226 0.165241 0.174980 0.193762
H75   H     H_    0.815606 0.827473 0.172540 0.134581
H76   H     H_    0.859342 0.296140 0.271339 0.199799
N1    N     N_R   0.395410 0.396350 0.944340 -0.041546
N2    N     N_R   0.474920 0.471030 0.794350 -0.038174
N3    N     N_R   0.025080 0.971030 0.205650 -0.038837
N4    N     N_R   0.974920 0.971030 0.794350 -0.036843
N5    N     N_R   0.320260 0.527820 0.794570 -0.043084
N6    N     N_R   0.679740 0.527820 0.205430 -0.040258
N7    N     N_R   0.820260 0.027820 0.794570 -0.041185
N8    N     N_R   0.179740 0.027820 0.205430 -0.043363
N9    N     N_R   0.524590 0.527840 0.205200 -0.047023
N10   N     N_R   0.475410 0.527840 0.794800 -0.048089
N11   N     N_R   0.024590 0.027840 0.205200 -0.048165
N12   N     N_R   0.604590 0.396350 0.055660 -0.043076
N13   N     N_R   0.975410 0.027840 0.794800 -0.047637
N14   N     N_R   0.320750 0.471000 0.795020 -0.044507
N15   N     N_R   0.679250 0.471000 0.204980 -0.040822
N16   N     N_R   0.820750 0.971000 0.795020 -0.040894
N17   N     N_R   0.179250 0.971000 0.204980 -0.044783
N18   N     N_R   0.393620 0.602490 0.942710 -0.076412
N19   N     N_R   0.606380 0.602490 0.057290 -0.077232
N20   N     N_R   0.893620 0.102490 0.942710 -0.076916
N21   N     N_R   0.106380 0.102490 0.057290 -0.075296
N22   N     N_R   0.451720 0.396350 0.057510 -0.041696
N23   N     N_R   0.895410 0.896350 0.944340 -0.042616
N24   N     N_R   0.548280 0.396350 0.942490 -0.040646
N25   N     N_R   0.951720 0.896350 0.057510 -0.040537
N26   N     N_R   0.048280 0.896350 0.942490 -0.041927
N27   N     N_R   0.104590 0.896350 0.055660 -0.041823
N28   N     N_R   0.449930 0.602500 0.055880 -0.101359
N29   N     N_R   0.550070 0.602500 0.944120 -0.100703
N30   N     N_R   0.949930 0.102500 0.055880 -0.101309
N31   N     N_R   0.050070 0.102500 0.944120 -0.101862
N32   N     N_R   0.525080 0.471030 0.205650 -0.036637
Ni1   Ni    Ni4+2 0.435420 0.434270 0.870230 0.214628
Ni2   Ni    Ni4+2 0.564580 0.434270 0.129770 0.207463
Ni3   Ni    Ni4+2 0.935420 0.934270 0.870230 0.207413
Ni4   Ni    Ni4+2 0.064580 0.934270 0.129770 0.214007
Ni5   Ni    Ni4+2 0.563430 0.564580 0.128740 0.207054
Ni6   Ni    Ni4+2 0.436570 0.564580 0.871260 0.211668
Ni7   Ni    Ni4+2 0.063430 0.064580 0.128740 0.213013
Ni8   Ni    Ni4+2 0.936570 0.064580 0.871260 0.208160
O1    O     O_3   0.297681 0.760671 0.807912 -0.771793
O2    O     O_3   0.705694 0.759899 0.191975 -0.774123
O3    O     O_3   0.809485 0.263794 0.823904 -0.752673
O4    O     O_3   0.189013 0.264289 0.177868 -0.750841
O5    O     O_3   0.516264 0.673444 0.190403 -0.778834
O6    O     O_3   0.484885 0.672951 0.808339 -0.778030
O7    O     O_3   0.021053 0.172969 0.189530 -0.762305
O8    O     O_3   0.973615 0.173668 0.812333 -0.764346

loop_
_geom_bond_atom_site_label_1
_geom_bond_atom_site_label_2
_ccdc_geom_bond_type
N26   Ni3   S    
C23   C58   S    
C5    C103  A    
C10   C85   A    
C3    H43   S    
C16   C21   D    
C73   H15   S    
C14   H44   S    
N7    N16   A    
N13   Ni8   S    
C76   H22   S    
C93   N14   A    
N19   Ni5   S    
N5    N14   A    
H64   O7    S    
C1    N1    A    
C32   O1    S    
C23   C52   A    
C31   C83   S    
C38   H67   S    
C54   C60   S    
N31   Ni8   S    
N23   N25   A    
C84   H30   S    
C60   H11   S    
C20   H50   S    
C86   H68   S    
N29   Ni6   S    
C61   C99   A    
C37   H56   S    
N23   Ni3   S    
C35   C37   A    
C78   H25   S    
C9    C69   S    
C3    C7    A    
C32   C38   A    
H62   O5    S    
C72   C100  A    
C48   O8    S    
C65   C69   A    
C36   H45   S    
C57   C59   S    
C57   H8    S    
C5    C17   A    
C11   C86   A    
C49   C54   S    
H57   O4    S    
C29   C33   A    
N28   Ni5   S    
C88   H70   S    
C96   N16   A    
C41   C49   A    
C37   C42   A    
C2    C90   A    
C103  N24   A    
C97   H39   S    
N15   Ni2   S    
C101  H74   S    
N1    Ni1   S    
C24   C29   A    
C44   C53   A    
H55   O3    S    
C6    C28   A    
C99   H72   S    
N1    N22   A    
N25   Ni4   S    
C10   C20   S    
C62   H13   S    
C39   N27   A    
N2    Ni1   S    
N20   N30   A    
C25   C60   S    
C7    C43   S    
C78   H20   S    
C56   H7    S    
C34   C36   A    
C12   C87   A    
C27   C50   S    
C42   C51   A    
C80   N32   A    
C33   O2    S    
C63   C77   S    
C79   H21   S    
C39   H34   S    
C26   C31   A    
H54   O2    S    
C80   H27   S    
C6    C44   S    
H53   O1    S    
C28   N23   A    
C36   C41   A    
N18   Ni6   S    
C102  H40   S    
C81   N2    A    
N14   Ni1   S    
C18   H48   S    
C100  H73   S    
N10   Ni6   S    
C9    C92   A    
N12   Ni2   S    
C21   H51   S    
N9    Ni5   S    
C29   C61   S    
N7    Ni8   S    
C17   N12   A    
N12   N24   A    
C15   C20   D    
C87   H69   S    
N6    Ni5   S    
C63   C67   A    
C50   C98   A    
C33   C40   A    
N5    Ni6   S    
C30   C34   A    
C46   C61   A    
N18   N28   A    
C104  H42   S    
N6    N15   A    
C84   N4    A    
C76   C77   S    
N21   Ni7   S    
C2    C67   S    
C74   C75   A    
N11   Ni7   S    
C71   C73   A    
N16   Ni3   S    
C53   C57   S    
N26   N27   A    
C25   C30   A    
C81   H28   S    
C22   H52   S    
C55   H2    S    
C10   C93   A    
C68   C73   A    
C79   H26   S    
C91   N11   A    
C82   N3    A    
C68   C94   S    
N30   Ni7   S    
C54   H5    S    
C4    C102  A    
N19   N29   A    
C85   H66   S    
C56   H3    S    
C77   H19   S    
C97   N17   A    
C58   H9    S    
C40   H75   S    
C90   H32   S    
C102  N22   A    
C30   C72   S    
C48   N31   A    
C88   N8    A    
C11   C19   S    
C65   C79   S    
C64   C76   S    
H65   O8    S    
C13   C21   S    
C69   C74   A    
C54   H76   S    
C8    C91   A    
C45   O5    S    
C104  N25   A    
N22   Ni2   S    
C24   C59   S    
C92   N13   A    
C77   H24   S    
C89   H31   S    
C100  N20   A    
C66   C78   S    
N32   Ni2   S    
C86   N6    A    
C45   N28   A    
C23   C27   A    
C55   H6    S    
N20   Ni8   S    
C12   C22   S    
C31   C35   A    
C62   H61   S    
C80   C94   A    
C58   H58   S    
C64   C68   A    
C34   O3    S    
C103  H41   S    
C90   N10   A    
N8    Ni7   S    
C11   C95   A    
N3    Ni4   S    
C5    C41   S    
C95   N15   A    
C83   C101  A    
C71   H14   S    
C91   H33   S    
C75   H17   S    
C3    N26   A    
C14   C19   D    
C8    C82   A    
N17   Ni4   S    
N4    Ni3   S    
N9    N32   A    
N3    N11   A    
C89   C94   A    
C87   N7    A    
C28   H23   S    
C95   H37   S    
C46   N29   A    
C74   H16   S    
C67   C71   A    
C8    C70   S    
C6    C104  A    
C48   C83   A    
C1    C4    A    
C76   H18   S    
C46   O6    S    
C82   H29   S    
C18   C22   D    
C24   C53   A    
C38   C43   A    
C93   H36   S    
C85   N5    A    
C35   O4    S    
C89   N9    A    
C45   C50   A    
C98   H71   S    
C78   C79   S    
C98   N18   A    
C66   C70   A    
C4    C42   S    
N8    N17   A    
C59   H10   S    
C19   H49   S    
C26   C62   S    
N24   Ni1   S    
C13   C88   A    
N27   Ni4   S    
C60   H60   S    
C56   C58   S    
C16   H47   S    
C51   C55   S    
C13   C97   A    
C43   C52   A    
C25   C49   A    
C47   C72   A    
C59   H59   S    
C27   C32   A    
C9    C84   A    
C96   H38   S    
C63   C64   A    
C52   C56   S    
C40   C44   A    
C57   H4    S    
C47   O7    S    
C55   C62   S    
C16   C18   S    
C65   C66   A    
C47   N30   A    
C99   N19   A    
C70   C75   A    
H63   O6    S    
C7    C39   A    
C14   C15   S    
C12   C96   A    
C2    C81   A    
C101  N21   A    
N2    N10   A    
C26   C51   A    
C92   H35   S    
N21   N31   A    
C15   H46   S    
N4    N13   A    
C17   H12   S    
C1    H1    S    
