data_mof_unit_47766.cif
_audit_creation_date              2012-10-26T20:20:46-0400
_audit_creation_method            fapswitch 2.2
_symmetry_space_group_name_H-M    P1
_symmetry_Int_Tables_number       1
_space_group_crystal_system       triclinic
_cell_length_a                    8.734358
_cell_length_b                    10.832988
_cell_length_c                    9.538085
_cell_angle_alpha                 90.16643
_cell_angle_beta                  98.101065
_cell_angle_gamma                 90.384846
_cell_volume                      893.453140473

loop_
_atom_site_label
_atom_site_type_symbol
_atom_type_description
_atom_site_fract_x
_atom_site_fract_y
_atom_site_fract_z
_atom_type_partial_charge
C1    C     C_R   0.499842 0.262128 0.499823 0.549835
C2    C     C_R   0.495293 0.064201 0.626650 -0.141215
C3    C     C_R   0.500176 0.871755 0.500190 0.021297
C4    C     C_R   0.499828 0.128245 0.499811 0.021297
C5    C     C_R   0.401680 0.424144 0.061124 0.207536
C6    C     C_R   0.598319 0.575856 0.938876 0.207538
C7    C     C_R   0.402110 0.424582 0.912204 -0.013503
C8    C     C_R   0.597890 0.575418 0.087796 -0.013503
C9    C     C_R   0.500160 0.737872 0.500177 0.549835
C10   C     C_R   0.203744 0.499914 0.463646 0.551121
C11   C     C_R   0.796256 0.500086 0.536354 0.551119
C12   C     C_2   0.037770 0.499947 0.443742 -0.153951
C13   C     C_2   0.962230 0.500053 0.556258 -0.153952
C14   C     C_R   0.504520 0.063513 0.373167 -0.136642
C15   C     C_R   0.495486 0.936486 0.626834 -0.136641
C16   C     C_R   0.504713 0.935799 0.373351 -0.141214
Cu1   Cu    Cu3+1 0.500000 0.500020 0.640660 0.970883
Cu2   Cu    Cu3+1 0.500000 0.499980 0.359340 0.970883
H1    H     H_    0.977521 0.499919 0.335908 0.126096
H2    H     H_    0.320746 0.253202 0.091936 0.193238
H3    H     H_    0.679256 0.746803 0.908074 0.193228
H4    H     H_    0.814637 0.635154 0.924466 0.201435
H5    H     H_    0.022479 0.500081 0.664092 0.126095
H6    H     H_    0.508327 0.111245 0.274079 0.130891
H7    H     H_    0.491681 0.888755 0.725922 0.130894
H8    H     H_    0.508586 0.887514 0.274309 0.125773
H9    H     H_    0.491420 0.112486 0.725692 0.125773
H10   H     H_    0.323976 0.364184 0.845166 0.106959
H11   H     H_    0.676024 0.635816 0.154834 0.106958
H12   H     H_    0.185359 0.364847 0.075525 0.201432
N1    N     N_R   0.500040 0.500030 0.852080 -0.208732
N2    N     N_R   0.499960 0.499970 0.147920 -0.208731
N3    N     N_3   0.298100 0.343693 0.120934 -0.558378
N4    N     N_3   0.701896 0.656311 0.879065 -0.558373
O1    O     O_R   0.499990 0.319660 0.618740 -0.518505
O2    O     O_R   0.500010 0.680340 0.381260 -0.518506
O3    O     O_R   0.499990 0.319630 0.381170 -0.476141
O4    O     O_R   0.500010 0.680370 0.618830 -0.476138
O5    O     O_R   0.274840 0.500010 0.591370 -0.511356
O6    O     O_R   0.725160 0.499990 0.408630 -0.511356
O7    O     O_R   0.274830 0.499980 0.353800 -0.466637
O8    O     O_R   0.725170 0.500020 0.646200 -0.466641

loop_
_geom_bond_atom_site_label_1
_geom_bond_atom_site_label_2
_ccdc_geom_bond_type
C9    O2    A    
C2    C4    A    
C2    H9    S    
C3    C9    S    
C1    O3    A    
C5    N2    A    
C1    C4    S    
Cu1   Cu2   S    
C10   O7    A    
C16   H8    S    
C2    C15   A    
C11   C13   S    
C13   H5    S    
C10   C12   S    
Cu1   N1    S    
C8    H11   S    
C12   H1    S    
C9    O4    A    
Cu2   O3    S    
C6    N1    A    
Cu1   O4    S    
C4    C14   A    
C11   O6    A    
H4    N4    S    
C14   C16   A    
C15   H7    S    
Cu2   N2    S    
H2    N3    S    
C8    N2    A    
C3    C15   A    
C12   C13   D    
C1    O1    A    
C11   O8    A    
Cu1   O5    S    
Cu2   O7    S    
C14   H6    S    
C5    C7    A    
Cu2   O6    S    
Cu1   O8    S    
C6    C8    A    
H3    N4    S    
Cu1   O1    S    
H12   N3    S    
Cu2   O2    S    
C3    C16   A    
C7    N1    A    
C7    H10   S    
C6    N4    S    
C10   O5    A    
C5    N3    S    
