data_mof_unit_29483.cif
_audit_creation_date              2012-12-10T19:45:48-0500
_audit_creation_method            fapswitch 2.2
_symmetry_space_group_name_H-M    P1
_symmetry_Int_Tables_number       1
_space_group_crystal_system       triclinic
_cell_length_a                    10.825589
_cell_length_b                    14.772697
_cell_length_c                    14.787179
_cell_angle_alpha                 64.716674
_cell_angle_beta                  104.711506
_cell_angle_gamma                 102.578201
_cell_volume                      2051.96152974

loop_
_atom_site_label
_atom_site_type_symbol
_atom_type_description
_atom_site_fract_x
_atom_site_fract_y
_atom_site_fract_z
_atom_type_partial_charge
C1    C     C_R   0.478007 0.119424 0.312256 0.793969
C2    C     C_R   0.522376 0.880453 0.687609 0.773777
C3    C     C_R   0.870382 0.001066 0.495817 -0.069699
C4    C     C_R   0.129831 0.997713 0.505803 -0.077712
C5    C     C_R   0.905470 0.957899 0.438495 0.029318
C6    C     C_R   0.094776 0.040154 0.563862 0.025758
C7    C     C_R   0.457814 0.186440 0.204058 -0.065780
C8    C     C_R   0.541591 0.812160 0.795225 -0.078455
C9    C     C_R   0.361980 0.218456 0.028479 -0.161340
C10   C     C_R   0.637715 0.775401 0.971255 -0.161646
C11   C     C_R   0.385065 0.151461 0.129866 -0.117764
C12   C     C_R   0.617868 0.844068 0.870445 -0.109845
C13   C     C_R   0.505741 0.288508 0.175716 -0.223666
C14   C     C_R   0.488073 0.711256 0.821415 -0.163651
C15   C     C_R   0.468383 0.359425 0.076809 0.074845
C16   C     C_R   0.520677 0.637966 0.919703 0.094342
C17   C     C_R   0.403962 0.321999 0.001494 0.118181
C18   C     C_R   0.588635 0.673115 0.996425 0.047294
C19   C     C_R   0.498491 0.465589 0.050186 -0.121185
C20   C     C_R   0.483659 0.532018 0.945040 -0.015185
C21   C     C_R   0.435763 0.489644 0.870022 0.414170
C22   C     C_R   0.542712 0.508158 0.125089 0.392702
C23   C     C_R   0.263243 0.998685 0.503013 0.793250
C24   C     C_R   0.736856 0.000963 0.497526 0.778261
C25   C     C_R   0.388262 0.386957 0.899683 -0.295569
C26   C     C_R   0.598556 0.607748 0.097989 -0.190253
C27   C     C_R   0.712790 0.282800 0.669772 -0.257483
C28   C     C_R   0.274723 0.716467 0.334056 -0.262590
C29   C     C_R   0.685291 0.204796 0.636513 -0.044394
C30   C     C_R   0.309201 0.795051 0.367276 -0.026374
C31   C     C_R   0.508775 0.280796 0.512919 0.612593
C32   C     C_R   0.489044 0.716993 0.483333 0.568962
C33   C     C_R   0.540374 0.368850 0.536248 -0.157320
C34   C     C_R   0.448083 0.628788 0.462175 -0.088638
C35   C     C_R   0.639856 0.364327 0.621557 0.071403
C36   C     C_R   0.345224 0.633591 0.379899 0.054120
C37   C     C_R   0.477771 0.459269 0.480867 0.016276
C38   C     C_R   0.508100 0.537813 0.517730 0.028902
C39   C     C_R   0.592854 0.521321 0.611543 -0.256497
C40   C     C_R   0.389134 0.475929 0.388498 -0.276655
C41   C     C_R   0.662750 0.438840 0.660686 0.403947
C42   C     C_R   0.317895 0.558165 0.341616 0.409408
C43   C     C_R   0.363023 0.058069 0.781028 0.474701
C44   C     C_R   0.640286 0.937794 0.220745 0.474041
C45   C     C_R   0.274330 0.019506 0.714848 -0.094039
C46   C     C_R   0.729078 0.977525 0.285927 -0.103565
C47   C     C_R   0.189031 0.080784 0.634227 0.049257
C48   C     C_R   0.811141 0.915961 0.369368 0.039055
C49   C     C_R   0.190917 0.180598 0.622432 -0.173727
C50   C     C_R   0.805331 0.814319 0.385766 -0.076049
C51   C     C_R   0.279883 0.219760 0.687542 -0.211567
C52   C     C_R   0.716478 0.774110 0.321440 -0.166805
C53   C     C_R   0.365981 0.159164 0.766359 -0.228715
C54   C     C_R   0.633917 0.835193 0.239414 -0.242795
C55   C     C_R   0.964959 0.041918 0.557088 -0.233899
C56   C     C_R   0.035171 0.956400 0.444945 -0.238541
Cu1   Cu    Cu3+1 0.466270 0.918260 0.475690 0.958545
Cu2   Cu    Cu3+1 0.533730 0.081740 0.524310 0.990794
H1    H     H_    0.434177 0.190791 0.816146 0.142081
H2    H     H_    0.565678 0.802701 0.190370 0.142666
H3    H     H_    0.310497 0.189505 0.971261 0.136562
H4    H     H_    0.691465 0.802142 0.029610 0.134875
H5    H     H_    0.254233 0.858403 0.332227 0.143156
H6    H     H_    0.740994 0.141816 0.674058 0.142040
H7    H     H_    0.790652 0.278586 0.733564 0.203874
H8    H     H_    0.193403 0.721075 0.272573 0.202286
H9    H     H_    0.604032 0.570384 0.650524 0.209499
H10   H     H_    0.373547 0.426966 0.349431 0.195542
H11   H     H_    0.272052 0.941732 0.726160 0.118229
H12   H     H_    0.733981 0.056416 0.271659 0.123480
H13   H     H_    0.125109 0.228745 0.561432 0.144649
H14   H     H_    0.868282 0.765862 0.449371 0.150068
H15   H     H_    0.282299 0.297332 0.676736 0.150679
H16   H     H_    0.711261 0.695335 0.335410 0.162878
H17   H     H_    0.937519 0.072684 0.602881 0.155455
H18   H     H_    0.062344 0.925359 0.399264 0.151159
H19   H     H_    0.346372 0.356189 0.842285 0.130596
H20   H     H_    0.639000 0.636461 0.157114 0.159648
H21   H     H_    0.416335 0.693083 0.764372 0.211280
H22   H     H_    0.573618 0.311138 0.231985 0.206118
H23   H     H_    0.660306 0.921936 0.851632 0.161561
H24   H     H_    0.347159 0.072562 0.149957 0.164875
N1    N     N_R   0.584450 0.204570 0.560790 -0.184421
N2    N     N_R   0.415550 0.795430 0.439210 -0.210474
O1    O     O_R   0.455540 0.022090 0.338120 -0.581340
O2    O     O_R   0.544460 0.977910 0.661880 -0.575689
O3    O     O_R   0.512510 0.160150 0.379180 -0.533808
O4    O     O_R   0.487490 0.839850 0.620820 -0.607631
O5    O     O_R   0.291160 0.930970 0.479480 -0.598556
O6    O     O_R   0.708840 0.069030 0.520520 -0.596546
O7    O     O_R   0.348130 0.069020 0.520540 -0.527355
O8    O     O_R   0.651870 0.930980 0.479460 -0.557229
O9    O     O_3   0.443821 0.546503 0.769008 -0.780244
H25   H     H_    0.401790 0.506385 0.727612 0.317751
O10   O     O_3   0.522468 0.458526 0.223669 -0.743684
H26   H     H_    0.438281 0.415723 0.221818 0.325784
O11   O     O_3   0.751248 0.427957 0.749499 -0.737621
H27   H     H_    0.756834 0.486869 0.766660 0.334840
O12   O     O_3   0.224708 0.568257 0.255419 -0.736809
H28   H     H_    0.216347 0.508846 0.238461 0.324747
O13   O     O_3   0.612267 0.729939 0.534165 -0.749058
H29   H     H_    0.609056 0.757307 0.583338 0.359389
O14   O     O_3   0.397428 0.264399 0.449759 -0.714240
H30   H     H_    0.326989 0.280930 0.469481 0.297837
O15   O     O_3   0.444624 0.995297 0.859226 -0.753823
H31   H     H_    0.501561 0.033838 0.898221 0.320435
O16   O     O_3   0.561982 0.000899 0.139583 -0.752521
H32   H     H_    0.504524 0.961464 0.101720 0.320541

loop_
_geom_bond_atom_site_label_1
_geom_bond_atom_site_label_2
_ccdc_geom_bond_type
C1    O3    A    
O13   H29   S    
C56   H18   S    
Cu1   O8    S    
C27   C29   A    
C22   O10   S    
C5    C56   A    
C36   C42   A    
C19   C20   A    
C18   C26   A    
C6    C55   A    
C49   H13   S    
Cu2   O3    S    
O11   H27   S    
C53   H1    S    
C39   C41   A    
C54   H2    S    
C7    C11   A    
O9    H25   S    
Cu1   O5    S    
C25   H19   S    
C29   N1    A    
C37   C40   A    
C52   H16   S    
C38   C39   A    
Cu2   O2    S    
C31   N1    A    
C43   O15   S    
C50   H14   S    
C15   C19   A    
C3    C55   A    
C43   C53   A    
O10   H26   S    
C52   C54   A    
C49   C51   A    
C50   C52   A    
O16   H32   S    
C23   O5    A    
C2    O4    A    
C14   C16   A    
C23   O7    A    
Cu2   O7    S    
C8    C12   A    
C55   H17   S    
C40   C42   A    
C29   H6    S    
C1    C7    S    
C30   H5    S    
C4    C56   A    
C3    C24   S    
C10   H4    S    
C24   O8    A    
C44   C46   A    
C45   C47   A    
C11   H24   S    
C1    O1    A    
C32   N2    A    
C5    C48   S    
C46   C48   A    
C6    C47   S    
C45   H11   S    
C19   C22   A    
C4    C6    A    
C4    C23   S    
C13   H22   S    
C27   C35   A    
C33   C37   A    
C51   C53   A    
C31   O14   S    
C28   H8    S    
C37   C38   A    
C27   H7    S    
C9    C11   A    
O12   H28   S    
C16   C20   A    
C31   C33   A    
Cu1   N2    S    
C26   H20   S    
C14   H21   S    
C43   C45   A    
C10   C12   A    
Cu2   O6    S    
C9    C17   A    
C13   C15   A    
C22   C26   A    
C41   O11   S    
C44   O16   S    
C15   C17   A    
C21   C25   A    
C8    C14   A    
C34   C38   A    
C39   H9    S    
C2    C8    S    
C51   H15   S    
C3    C5    A    
C24   O6    A    
C47   C49   A    
O15   H31   S    
Cu1   O4    S    
C17   C25   A    
C28   C30   A    
Cu2   N1    S    
Cu1   Cu2   S    
C21   O9    S    
C10   C18   A    
C48   C50   A    
C33   C35   A    
Cu1   O1    S    
C12   H23   S    
C2    O2    A    
C9    H3    S    
C34   C36   A    
C30   N2    A    
C35   C41   A    
C46   H12   S    
C44   C54   A    
C7    C13   A    
C20   C21   A    
C28   C36   A    
C16   C18   A    
C40   H10   S    
O14   H30   S    
C32   O13   S    
C42   O12   S    
C32   C34   A    
