data_mof_unit_53980.cif
_audit_creation_date              2012-12-11T14:46:24-0500
_audit_creation_method            fapswitch 2.2
_symmetry_space_group_name_H-M    P1
_symmetry_Int_Tables_number       1
_space_group_crystal_system       triclinic
_cell_length_a                    17.514514
_cell_length_b                    17.516221
_cell_length_c                    6.944319
_cell_angle_alpha                 89.872892
_cell_angle_beta                  90.618316
_cell_angle_gamma                 90.056822
_cell_volume                      2130.3041238

loop_
_atom_site_label
_atom_site_type_symbol
_atom_type_description
_atom_site_fract_x
_atom_site_fract_y
_atom_site_fract_z
_atom_type_partial_charge
O1    O     O_R   0.796490 0.328940 0.373020 -0.529792
O2    O     O_R   0.203510 0.671060 0.626980 -0.529590
O3    O     O_R   0.203510 0.828940 0.626980 -0.521513
O4    O     O_R   0.796490 0.171060 0.373020 -0.521188
O5    O     O_R   0.805560 0.173330 0.702970 -0.523652
O6    O     O_R   0.194440 0.826670 0.297030 -0.523992
O7    O     O_R   0.194440 0.673330 0.297030 -0.519836
O8    O     O_R   0.805560 0.326670 0.702970 -0.520042
O9    O     O_R   0.658440 0.172360 0.870170 -0.543833
O10   O     O_R   0.341560 0.827640 0.129830 -0.543859
O11   O     O_R   0.341560 0.672360 0.129830 -0.543875
O12   O     O_R   0.658440 0.327640 0.870170 -0.543872
C1    C     C_R   0.824668 0.147148 0.535518 0.803429
C2    C     C_R   0.175316 0.852824 0.464493 0.802960
C3    C     C_R   0.175626 0.646864 0.464968 0.800671
C4    C     C_R   0.824380 0.353125 0.535032 0.800038
O13   O     O_3   0.679200 0.250000 0.537050 -0.392712
O14   O     O_3   0.320800 0.750000 0.462950 -0.392666
V1    V     V_3+5 0.736420 0.250000 0.813120 1.569969
V2    V     V_3+5 0.263580 0.750000 0.186880 1.569560
O15   O     O_R   0.649370 0.327980 0.199650 -0.543195
O16   O     O_R   0.350630 0.672020 0.800350 -0.543128
O17   O     O_R   0.350630 0.827980 0.800350 -0.543365
O18   O     O_R   0.649370 0.172020 0.199650 -0.543389
C5    C     C_R   0.630569 0.354372 0.029713 0.711846
C6    C     C_R   0.369430 0.645628 0.970286 0.712244
C7    C     C_R   0.369430 0.854371 0.970052 0.713793
C8    C     C_R   0.630571 0.145628 0.029948 0.714195
V3    V     V_3+5 0.718510 0.250000 0.312740 1.532302
V4    V     V_3+5 0.281490 0.750000 0.687260 1.532163
O19   O     O_3   0.775740 0.250000 0.038930 -0.336831
O20   O     O_3   0.224260 0.750000 0.961070 -0.336992
C9    C     C_1   0.574136 0.083223 0.017730 -0.156193
C10   C     C_1   0.425866 0.916775 0.982269 -0.156166
C11   C     C_1   0.425858 0.583218 0.982804 -0.152890
C12   C     C_1   0.574141 0.416780 0.017194 -0.152924
C13   C     C_1   0.527464 0.030910 0.006677 0.048460
C14   C     C_1   0.472538 0.969088 0.993323 0.048459
C15   C     C_1   0.472527 0.530914 0.993577 0.050992
C16   C     C_1   0.527470 0.469084 0.006421 0.050968
C17   C     C_R   0.880455 0.083592 0.531283 -0.296542
C18   C     C_R   0.119381 0.916244 0.468945 -0.297054
C19   C     C_R   0.120589 0.582649 0.474208 -0.303216
C20   C     C_R   0.879583 0.417196 0.525898 -0.303560
C21   C     C_R   0.084774 0.046878 0.386201 0.495858
C22   C     C_R   0.915112 0.953152 0.616389 0.495192
C23   C     C_R   0.907198 0.550001 0.449194 0.497749
C24   C     C_R   0.093146 0.449936 0.552753 0.497270
C25   C     C_R   0.137636 0.986989 0.384025 0.252276
C26   C     C_R   0.862323 0.013154 0.617978 0.252897
C27   C     C_R   0.854585 0.490204 0.467514 0.247770
C28   C     C_R   0.145640 0.509861 0.534139 0.247933
C29   C     C_R   0.048591 0.906487 0.560785 0.411442
C30   C     C_R   0.951119 0.092991 0.438772 0.411913
C31   C     C_R   0.957194 0.404962 0.571171 0.407894
C32   C     C_R   0.043029 0.594592 0.428230 0.408291
C33   C     C_R   0.990733 0.964095 0.545704 -0.210666
C34   C     C_R   0.009038 0.035569 0.455379 -0.211324
C35   C     C_R   0.012897 0.462895 0.532172 -0.215245
C36   C     C_R   0.987406 0.536782 0.468481 -0.215778
Cl1   Cl    Cl    0.123324 0.137165 0.324291 -0.346356
Cl2   Cl    Cl    0.876602 0.863421 0.683224 -0.347070
Cl3   Cl    Cl    0.865524 0.641803 0.427176 -0.348353
Cl4   Cl    Cl    0.135207 0.358465 0.578575 -0.348869
Cl5   Cl    Cl    0.960241 0.174961 0.289552 -0.453088
Cl6   Cl    Cl    0.039158 0.823343 0.705645 -0.452027
Cl7   Cl    Cl    0.021295 0.680586 0.303403 -0.445699
Cl8   Cl    Cl    0.978819 0.318099 0.692218 -0.445564
O21   O     O_3   0.791685 0.998858 0.698946 -0.591285
H1    H     H_    0.753829 0.037330 0.656412 0.283696
O22   O     O_3   0.208420 0.001704 0.304328 -0.591301
H2    H     H_    0.246118 0.962786 0.345035 0.283703
O23   O     O_3   0.221998 0.493527 0.569314 -0.591738
H3    H     H_    0.255107 0.534933 0.521034 0.283026
O24   O     O_3   0.778215 0.506859 0.433567 -0.591694
H4    H     H_    0.745078 0.465197 0.480288 0.282963

loop_
_geom_bond_atom_site_label_1
_geom_bond_atom_site_label_2
_ccdc_geom_bond_type
O10   C7    A    
C31   C35   A    
O13   V3    S    
O23   H3    S    
V1    O19   S    
C1    C17   S    
C31   Cl8   S    
C30   Cl5   S    
C22   Cl2   S    
C26   O21   S    
C27   O24   S    
C18   C29   A    
C23   Cl3   S    
C19   C28   A    
C24   Cl4   S    
O4    C1    A    
O18   V3    S    
C23   C36   A    
O9    V1    S    
O10   V2    S    
O14   V4    S    
O17   C7    A    
C4    C20   S    
O5    C1    A    
O4    V3    S    
C2    C18   S    
O7    C3    A    
C35   C36   A    
O8    C4    A    
C7    C10   S    
C21   C34   A    
O11   V2    S    
O8    V1    S    
O17   V4    S    
C12   C16   T    
C28   O23   S    
C15   C16   S    
C29   C33   A    
C23   C27   A    
C5    C12   S    
O11   C6    A    
O15   V3    S    
C9    C13   T    
C32   C36   A    
O3    V4    S    
C11   C15   T    
O24   H4    S    
C13   C14   S    
C29   Cl6   S    
O6    C2    A    
C19   C32   A    
C21   C25   A    
O1    V3    S    
O1    C4    A    
O2    C3    A    
O3    C2    A    
C20   C27   A    
C8    C9    S    
C22   C33   A    
C25   O22   S    
C30   C34   A    
C17   C26   A    
C24   C35   A    
V2    O20   S    
O15   C5    A    
O16   V4    S    
C10   C14   T    
O18   C8    A    
O5    V1    S    
C32   Cl7   S    
O6    V2    S    
C22   C26   A    
O12   C5    A    
O2    V4    S    
C3    C19   S    
O22   H2    S    
V3    O19   S    
V4    O20   S    
C20   C31   A    
C33   C34   A    
O12   V1    S    
C21   Cl1   S    
O13   V1    S    
O14   V2    S    
O21   H1    S    
C17   C30   A    
C18   C25   A    
C6    C11   S    
C24   C28   A    
O7    V2    S    
O16   C6    A    
O9    C8    A    
