data_mof_unit_20789.cif
_audit_creation_date              2012-12-10T20:43:32-0500
_audit_creation_method            fapswitch 2.2
_symmetry_space_group_name_H-M    P1
_symmetry_Int_Tables_number       1
_space_group_crystal_system       triclinic
_cell_length_a                    18.382377
_cell_length_b                    18.96263
_cell_length_c                    19.272639
_cell_angle_alpha                 110.692296
_cell_angle_beta                  109.202338
_cell_angle_gamma                 108.869065
_cell_volume                      5147.96237183

loop_
_atom_site_label
_atom_site_type_symbol
_atom_type_description
_atom_site_fract_x
_atom_site_fract_y
_atom_site_fract_z
_atom_type_partial_charge
C1    C     C_R   0.380113 0.501487 0.380879 0.872788
C2    C     C_R   0.843724 0.909291 0.839604 -0.134425
C3    C     C_R   0.020656 0.835215 0.033114 -0.235414
C4    C     C_R   0.988804 0.796056 0.074319 0.364951
C5    C     C_R   0.047422 0.791856 0.138953 -0.137261
C6    C     C_R   0.298229 0.542731 0.972380 -0.120334
C7    C     C_R   0.213006 0.477526 0.902760 -0.016978
C8    C     C_R   0.173419 0.395739 0.895491 0.037991
C9    C     C_R   0.225434 0.378086 0.951545 -0.145675
C10   C     C_R   0.313401 0.441484 0.017197 -0.092980
C11   C     C_R   0.347939 0.525586 0.029741 0.336057
C12   C     C_R   0.080866 0.257776 0.754610 0.414439
C13   C     C_R   0.812617 0.830470 0.569903 0.402722
C14   C     C_R   0.998247 0.188073 0.683440 -0.172157
C15   C     C_R   0.917715 0.185649 0.674784 0.008294
C16   C     C_R   0.920909 0.249575 0.742024 0.412467
C17   C     C_R   0.003196 0.315864 0.815209 -0.262793
C18   C     C_R   0.084165 0.322522 0.820959 -0.138866
C19   C     C_R   0.804202 0.129503 0.523468 0.334005
C20   C     C_R   0.715621 0.078249 0.455782 0.324563
C21   C     C_R   0.651558 0.018429 0.460663 0.351086
C22   C     C_R   0.676200 0.007635 0.531176 -0.210620
C23   C     C_R   0.763960 0.057550 0.598469 0.406574
C24   C     C_R   0.806784 0.811384 0.490887 -0.200860
C25   C     C_R   0.829224 0.119771 0.595864 -0.119441
C26   C     C_R   0.730028 0.738116 0.413348 -0.028614
C27   C     C_R   0.665332 0.680740 0.419413 0.446664
C28   C     C_R   0.683054 0.689475 0.499628 -0.154750
C29   C     C_R   0.754164 0.767788 0.576126 0.001079
C30   C     C_R   0.690290 0.780715 0.302988 0.501796
C31   C     C_R   0.683652 0.777812 0.227654 -0.208697
C32   C     C_R   0.693282 0.715789 0.171499 0.012180
C33   C     C_R   0.621628 0.620857 0.501841 1.000036
C34   C     C_R   0.704427 0.653227 0.189092 -0.195079
C35   C     C_R   0.710811 0.654740 0.264392 -0.122348
C36   C     C_R   0.712533 0.724995 0.326762 0.036172
C37   C     C_R   0.333392 0.714379 0.541730 -0.180813
C38   C     C_R   0.304069 0.644854 0.462213 -0.128560
C39   C     C_R   0.349694 0.654278 0.417283 0.066901
C40   C     C_R   0.423557 0.734948 0.452015 -0.066685
C41   C     C_R   0.450616 0.805331 0.530318 -0.105476
C42   C     C_R   0.407418 0.794240 0.576500 0.446529
C43   C     C_R   0.253943 0.580362 0.260240 -0.090384
C44   C     C_R   0.618185 0.498156 0.620089 0.987803
C45   C     C_R   0.187470 0.499729 0.185246 -0.124208
C46   C     C_R   0.178292 0.420576 0.180504 0.063429
C47   C     C_R   0.245442 0.423940 0.243672 -0.187968
C48   C     C_R   0.312992 0.503340 0.316976 -0.069901
C49   C     C_R   0.311865 0.581153 0.329813 0.039057
C50   C     C_R   0.017221 0.318968 0.126025 -0.045962
C51   C     C_R   0.935432 0.243489 0.060253 0.299237
C52   C     C_R   0.929014 0.185979 0.985686 0.311358
C53   C     C_R   0.005581 0.198569 0.978721 -0.178504
C54   C     C_R   0.089673 0.269720 0.048397 -0.138998
C55   C     C_R   0.376257 0.380474 0.497026 0.900140
C56   C     C_R   0.094103 0.334916 0.117411 -0.037808
C57   C     C_R   0.230614 0.531458 0.581423 -0.228916
C58   C     C_R   0.260915 0.471538 0.577750 0.512373
C59   C     C_R   0.220650 0.392485 0.500856 -0.136002
C60   C     C_R   0.146557 0.371239 0.427107 -0.193102
C61   C     C_R   0.105063 0.423118 0.435501 0.015157
C62   C     C_R   0.149225 0.504981 0.512110 -0.149992
C63   C     C_R   0.180179 0.260112 0.511336 -0.061653
C64   C     C_R   0.192400 0.190200 0.509632 -0.038502
C65   C     C_R   0.272366 0.190746 0.519033 -0.047483
C66   C     C_R   0.755318 0.877585 0.783000 -0.122186
C67   C     C_R   0.332769 0.253751 0.513869 -0.121268
C68   C     C_R   0.313692 0.316518 0.502725 -0.078536
C69   C     C_R   0.239130 0.322036 0.504373 -0.049834
C70   C     C_R   0.341340 0.151857 0.626658 -0.062646
C71   C     C_R   0.394905 0.117031 0.650469 -0.240648
C72   C     C_R   0.409148 0.064018 0.591560 0.442337
C73   C     C_R   0.363198 0.037526 0.504898 0.438146
C74   C     C_R   0.304450 0.067771 0.477518 -0.232209
C75   C     C_R   0.298683 0.130519 0.539801 -0.049153
C76   C     C_R   0.612374 0.672115 0.859505 0.328596
C77   C     C_R   0.720546 0.826661 0.694628 -0.014745
C78   C     C_R   0.657150 0.636449 0.825510 0.408970
C79   C     C_R   0.628230 0.547015 0.789985 -0.093067
C80   C     C_R   0.553137 0.492966 0.788748 -0.019321
C81   C     C_R   0.512635 0.530152 0.830132 -0.054163
C82   C     C_R   0.540429 0.619862 0.862824 -0.145501
C83   C     C_R   0.748293 0.509975 0.825645 -0.042373
C84   C     C_R   0.813374 0.495742 0.810299 -0.119448
C85   C     C_R   0.821990 0.494919 0.739449 0.084750
C86   C     C_R   0.758283 0.498131 0.678188 -0.026725
C87   C     C_R   0.686537 0.501049 0.687684 -0.070647
C88   C     C_R   0.769401 0.792049 0.664296 -0.012222
C89   C     C_R   0.684788 0.514088 0.764590 0.108318
C90   C     C_R   0.979075 0.587929 0.776303 -0.079990
C91   C     C_R   0.049276 0.597448 0.758091 -0.084056
C92   C     C_R   0.041337 0.524212 0.695708 -0.113711
C93   C     C_R   0.967098 0.442693 0.653684 -0.202150
C94   C     C_R   0.898212 0.432024 0.671831 0.361261
C95   C     C_R   0.903366 0.504087 0.733555 -0.050796
C96   C     C_R   0.998715 0.877255 0.381337 0.869893
C97   C     C_R   0.878363 0.874711 0.492851 0.887963
C98   C     C_R   0.997889 0.119092 0.619109 1.033527
C99   C     C_R   0.853624 0.813205 0.725361 0.441848
C100  C     C_R   0.121880 0.118729 0.500341 0.939946
C101  C     C_R   0.003262 0.380459 0.882705 0.938348
C102  C     C_R   0.120852 0.498082 0.117527 0.796271
C103  C     C_R   0.002307 0.620516 0.121972 0.849924
C104  C     C_R   0.879743 0.494608 0.875460 0.869674
C105  C     C_R   0.150813 0.814105 0.566056 -0.159773
C106  C     C_R   0.128711 0.806681 0.485440 0.495540
C107  C     C_R   0.041297 0.749814 0.415713 -0.026736
C108  C     C_R   0.979153 0.689902 0.422983 -0.083103
C109  C     C_R   0.999200 0.699040 0.504464 -0.058354
C110  C     C_R   0.894521 0.881644 0.809667 0.317706
C111  C     C_R   0.084717 0.762488 0.576526 -0.218234
C112  C     C_R   0.019310 0.683281 0.266864 -0.061437
C113  C     C_R   0.009909 0.688933 0.193637 -0.182919
C114  C     C_R   0.019006 0.765942 0.193819 0.084182
C115  C     C_R   0.012121 0.825702 0.254420 0.385961
C116  C     C_R   0.006293 0.813422 0.320052 -0.192154
C117  C     C_R   0.019934 0.747789 0.332427 -0.023206
C118  C     C_R   0.136900 0.822990 0.159241 0.325367
C119  C     C_R   0.166920 0.856290 0.113646 0.336022
C120  C     C_R   0.109112 0.863272 0.051039 0.154026
H1    H     H_    0.874261 0.960001 0.905497 0.227995
H2    H     H_    0.706378 0.601766 0.142904 0.194711
H3    H     H_    0.298445 0.706531 0.576190 0.128323
H4    H     H_    0.245526 0.583649 0.435275 0.195121
H5    H     H_    0.458848 0.743742 0.417787 0.231350
H6    H     H_    0.506641 0.867889 0.556157 0.216380
H7    H     H_    0.241097 0.363817 0.238966 0.162893
H8    H     H_    0.718243 0.902890 0.807164 0.230759
H9    H     H_    0.430072 0.134970 0.716817 0.213957
H10   H     H_    0.092682 0.529953 0.678646 0.213693
H11   H     H_    0.962279 0.388171 0.604649 0.238186
H12   H     H_    0.328128 0.606597 0.980414 0.234925
H13   H     H_    0.198468 0.312875 0.940395 0.235345
H14   H     H_    0.626377 0.961224 0.534430 0.235449
H15   H     H_    0.669245 0.823138 0.212177 0.181599
O1    O     O_R   0.408360 0.551710 0.460090 -0.637268
O2    O     O_R   0.948280 0.908380 0.356650 -0.578811
O3    O     O_R   0.960110 0.908350 0.551690 -0.558390
O4    O     O_R   0.856660 0.908370 0.448270 -0.630431
O5    O     O_R   0.051720 0.091580 0.643310 -0.538476
O6    O     O_R   0.948270 0.091600 0.539890 -0.593562
O7    O     O_R   0.143340 0.091590 0.551680 -0.586490
O8    O     O_R   0.039890 0.091610 0.448270 -0.600775
O9    O     O_R   0.051730 0.460050 0.908360 -0.655338
O10   O     O_R   0.948290 0.356630 0.908390 -0.553033
O11   O     O_R   0.143340 0.551690 0.091580 -0.607388
O12   O     O_R   0.408400 0.448280 0.356670 -0.599426
O13   O     O_R   0.039900 0.448270 0.091610 -0.652117
O14   O     O_R   0.051710 0.643320 0.091560 -0.609758
O15   O     O_R   0.948270 0.539900 0.091590 -0.644217
O16   O     O_R   0.960100 0.551680 0.908340 -0.649654
O17   O     O_R   0.856660 0.448270 0.908370 -0.573609
O18   O     O_R   0.591600 0.643340 0.551710 -0.641490
O19   O     O_R   0.591630 0.539900 0.448290 -0.539542
O20   O     O_R   0.591600 0.551720 0.643330 -0.624335
O21   O     O_R   0.591640 0.448290 0.539910 -0.576852
O22   O     O_R   0.408370 0.460100 0.551710 -0.593314
O23   O     O_R   0.408400 0.356660 0.448290 -0.610664
O24   O     O_R   0.051730 0.908360 0.460060 -0.633481
Zn1   Zn    Zn3+2 0.499980 0.569060 0.569060 1.053910
Zn2   Zn    Zn3+2 0.500020 0.430940 0.430940 1.146828
Zn3   Zn    Zn3+2 0.069070 0.999960 0.569030 1.149686
Zn4   Zn    Zn3+2 0.930930 0.999990 0.430930 1.097476
Zn5   Zn    Zn3+2 0.069070 0.569030 0.999960 1.015459
Zn6   Zn    Zn3+2 0.930930 0.430930 0.000000 1.084282
C121  C     C_2   0.687160 0.714518 0.092655 0.508373
H16   H     H_    0.680743 0.764858 0.081247 0.075316
O25   O     O_2   0.689207 0.657427 0.039533 -0.516302
C122  C     C_2   0.708222 0.577689 0.269456 0.513663
H17   H     H_    0.700677 0.524451 0.216032 0.087944
O26   O     O_2   0.713803 0.571095 0.331336 -0.465639
Cl1   Cl    Cl    0.447858 0.878810 0.679477 -0.465734
C123  C     C_2   0.253637 0.661684 0.270076 0.579649
H18   H     H_    0.191557 0.662416 0.249735 0.086371
O27   O     O_2   0.322075 0.727171 0.297799 -0.448261
C124  C     C_2   0.019384 0.383254 0.200205 0.559663
H19   H     H_    0.958619 0.382044 0.195584 0.118821
O28   O     O_2   0.088624 0.438635 0.267360 -0.570056
Cl2   Cl    Cl    0.838658 0.220853 0.069208 -0.453210
Cl3   Cl    Cl    0.822824 0.099560 0.899462 -0.472378
C125  C     C_2   0.995298 0.139531 0.896412 0.668051
H20   H     H_    0.941317 0.072912 0.856037 0.137344
O29   O     O_2   0.044536 0.165663 0.870682 -0.531232
C126  C     C_2   0.173494 0.274060 0.053551 0.512268
H21   H     H_    0.234005 0.336063 0.090967 0.054382
O30   O     O_2   0.177131 0.208210 0.020299 -0.418830
C127  C     C_2   0.108755 0.561432 0.523080 0.481009
H22   H     H_    0.145032 0.627878 0.538954 0.027567
O31   O     O_2   0.036462 0.535196 0.518708 -0.564142
C128  C     C_2   0.279039 0.618561 0.660716 0.529187
H23   H     H_    0.244365 0.652740 0.676345 0.081921
O32   O     O_2   0.359213 0.655114 0.707764 -0.456906
Cl4   Cl    Cl    0.339237 0.487986 0.673122 -0.561521
C129  C     C_2   0.110718 0.290950 0.344268 0.397723
H24   H     H_    0.132759 0.244173 0.343028 0.098216
O33   O     O_2   0.059152 0.277213 0.275705 -0.558963
C130  C     C_2   0.012074 0.386937 0.368352 0.615541
H25   H     H_    0.966713 0.317390 0.331325 0.099204
O34   O     O_2   0.984869 0.433558 0.353130 -0.495878
C131  C     C_2   0.640074 0.822783 0.638559 0.533275
H26   H     H_    0.596443 0.833460 0.662336 0.077584
O35   O     O_2   0.623791 0.812136 0.567805 -0.594529
C132  C     C_2   0.109708 0.272646 0.527260 0.520407
H27   H     H_    0.071186 0.294183 0.493134 0.057512
O36   O     O_2   0.096255 0.261616 0.581475 -0.516276
C133  C     C_2   0.417254 0.254987 0.522572 0.457433
H28   H     H_    0.417249 0.196393 0.486957 0.113874
O37   O     O_2   0.488438 0.322148 0.570291 -0.572735
C134  C     C_2   0.337170 0.213554 0.696825 0.545357
H29   H     H_    0.368032 0.222935 0.760417 0.114786
O38   O     O_2   0.301006 0.255441 0.686033 -0.504474
Cl5   Cl    Cl    0.488591 0.034552 0.629475 -0.406869
Cl6   Cl    Cl    0.382871 0.968126 0.433545 -0.292319
C135  C     C_2   0.256103 0.043528 0.386450 0.513110
H30   H     H_    0.199506 0.052797 0.364677 0.090596
O39   O     O_2   0.281110 0.018066 0.336249 -0.441318
C136  C     C_2   0.498589 0.661977 0.904245 0.545771
H31   H     H_    0.539181 0.727469 0.959462 0.107226
O40   O     O_2   0.418411 0.626315 0.875186 -0.499702
Cl7   Cl    Cl    0.647918 0.783855 0.898656 -0.472525
Cl8   Cl    Cl    0.749645 0.704419 0.825862 -0.532032
Cl9   Cl    Cl    0.916640 0.770509 0.692593 -0.495889
C137  C     C_2   0.514552 0.397285 0.742595 0.598655
H32   H     H_    0.443296 0.356657 0.706735 0.085312
O41   O     O_2   0.560714 0.363215 0.744211 -0.510591
C138  C     C_2   0.446829 0.476776 0.845451 0.530627
H33   H     H_    0.389984 0.484192 0.841617 0.162815
O42   O     O_2   0.456841 0.424393 0.864655 -0.527308
C139  C     C_2   0.755245 0.531598 0.911115 0.575308
H34   H     H_    0.820051 0.571670 0.968665 0.063563
O43   O     O_2   0.690257 0.502077 0.918129 -0.484335
C140  C     C_2   0.773847 0.509957 0.610506 0.498539
H35   H     H_    0.796350 0.472001 0.575708 0.105392
O44   O     O_2   0.765047 0.565106 0.595704 -0.527261
C141  C     C_2   0.984050 0.665787 0.837915 0.457752
H36   H     H_    0.046143 0.715743 0.896352 0.049982
O45   O     O_2   0.919122 0.675100 0.823578 -0.549666
C142  C     C_2   0.129003 0.683821 0.799847 0.472386
H37   H     H_    0.132506 0.743236 0.839688 0.115780
O46   O     O_2   0.192334 0.690046 0.789484 -0.513057
Cl10  Cl    Cl    0.800396 0.330062 0.607341 -0.506715
C143  C     C_2   0.103491 0.775890 0.662967 0.474585
H38   H     H_    0.073226 0.721572 0.670139 0.056659
O47   O     O_2   0.150692 0.848427 0.726950 -0.469401
Cl11  Cl    Cl    0.011020 0.946238 0.871708 -0.420770
C144  C     C_2   0.243556 0.873030 0.638826 0.611273
H39   H     H_    0.270735 0.854338 0.683934 0.107003
O48   O     O_2   0.289510 0.943869 0.650845 -0.495680
Cl12  Cl    Cl    0.211869 0.861787 0.467456 -0.517718
C145  C     C_2   0.898365 0.613114 0.343563 0.513011
H40   H     H_    0.870569 0.616874 0.286768 -0.018058
O49   O     O_2   0.865354 0.543162 0.338741 -0.467901
C146  C     C_2   0.929421 0.646227 0.515945 0.637451
H41   H     H_    0.943624 0.615908 0.553033 0.075887
O50   O     O_2   0.855780 0.638599 0.486163 -0.488602
C147  C     C_2   0.036764 0.615115 0.277906 0.412092
H42   H     H_    0.998317 0.548100 0.226105 0.103696
O51   O     O_2   0.096044 0.633700 0.345149 -0.542933
Cl13  Cl    Cl    0.022490 0.922336 0.253732 -0.567600
Cl14  Cl    Cl    0.211391 0.819057 0.241318 -0.380729
Cl15  Cl    Cl    0.278040 0.891797 0.136957 -0.303778
Cl16  Cl    Cl    0.149249 0.909790 0.997401 -0.407089
C148  C     C_2   0.961844 0.848282 0.972616 0.739898
H43   H     H_    0.954985 0.826372 0.910037 0.128774
O52   O     O_2   0.921106 0.883615 0.992624 -0.467023
Cl17  Cl    Cl    0.890311 0.937445 0.661251 -0.515874
Cl18  Cl    Cl    0.875702 0.753661 0.046618 -0.505022
Cl19  Cl    Cl    0.456070 0.609811 0.112357 -0.569474
C149  C     C_2   0.169080 0.493929 0.835547 0.500224
H44   H     H_    0.102996 0.445077 0.781816 0.070601
O53   O     O_2   0.207283 0.561847 0.838603 -0.515501
C150  C     C_2   0.370334 0.418477 0.068996 0.477641
H45   H     H_    0.431300 0.468703 0.128755 0.159454
O54   O     O_2   0.351045 0.342753 0.044301 -0.489913
Cl20  Cl    Cl    0.182134 0.268604 0.759043 -0.467842
Cl21  Cl    Cl    0.820796 0.249002 0.732167 -0.450298
Cl22  Cl    Cl    0.882297 0.208670 0.518501 -0.512357
Cl23  Cl    Cl    0.684202 0.090346 0.365596 -0.343080
Cl24  Cl    Cl    0.558827 0.602342 0.327219 -0.559429
Cl25  Cl    Cl    0.539784 0.954624 0.378182 -0.280166
Cl26  Cl    Cl    0.787396 0.046432 0.688969 -0.469584
Cl27  Cl    Cl    0.664163 0.851263 0.363849 -0.545835

loop_
_geom_bond_atom_site_label_1
_geom_bond_atom_site_label_2
_ccdc_geom_bond_type
C8    C9    A    
C129  O33   D    
C132  H27   S    
C78   C79   A    
C40   C41   A    
C128  H23   S    
C104  O16   A    
C120  Cl16  S    
C32   C121  S    
C5    C114  S    
C141  O45   D    
C41   C42   A    
O19   Zn2   S    
C35   C36   A    
C16   Cl21  S    
C13   Cl17  S    
C114  C115  A    
C57   C58   A    
C55   O22   A    
C60   C129  S    
C7    C8    A    
O10   Zn6   S    
C125  H20   S    
C116  C117  A    
C4    Cl18  S    
C132  O36   D    
C101  O10   A    
C26   C27   A    
C93   C94   A    
C63   C132  S    
C22   H14   S    
C137  O41   D    
C106  Cl12  S    
C13   C29   A    
C28   C29   A    
C103  C113  S    
C94   Cl10  S    
C20   Cl23  S    
C72   Cl5   S    
C109  C111  A    
C28   C33   S    
C112  C117  A    
C101  O9    A    
C135  O39   D    
C112  C147  S    
C118  Cl14  S    
C106  C107  A    
C40   H5    S    
C145  O49   D    
C15   C16   A    
C30   Cl27  S    
C108  C109  A    
C50   C124  S    
C34   C35   A    
C73   C74   A    
C109  C146  S    
C37   C42   A    
C130  O34   D    
C17   C101  S    
C118  C119  A    
C92   C93   A    
C29   C88   S    
C103  O15   A    
C102  O13   A    
C37   H3    S    
C54   C56   A    
C55   O23   A    
C137  H32   S    
C77   C88   A    
C126  O30   D    
C131  H26   S    
C65   C67   A    
C147  O51   D    
C47   C48   A    
C143  O47   D    
C141  H36   S    
C70   C71   A    
C138  H33   S    
C44   C87   S    
C9    C10   A    
C61   C62   A    
O23   Zn2   S    
C72   C73   A    
C96   C116  S    
C23   Cl26  S    
C129  H24   S    
C105  C111  A    
C99   Cl9   S    
C59   C60   A    
C34   H2    S    
C10   C150  S    
C149  H44   S    
C74   C135  S    
C121  O25   D    
O13   Zn6   S    
C122  O26   D    
C73   Cl6   S    
C94   C95   A    
C51   Cl2   S    
C88   C99   A    
C12   Cl20  S    
O8    Zn4   S    
C112  C113  A    
C139  H34   S    
C14   C98   S    
C142  O46   D    
C123  O27   D    
O17   Zn6   S    
C38   C39   A    
C83   C89   A    
C144  O48   D    
C127  O31   D    
C81   C138  S    
C51   C52   A    
C44   O21   A    
C122  H17   S    
C63   C69   A    
C57   C62   A    
C84   C85   A    
C134  H29   S    
C74   C75   A    
C125  O29   D    
C76   C82   A    
C6    C11   A    
O2    Zn4   S    
C55   C68   S    
C133  H28   S    
C16   C17   A    
C27   Cl24  S    
C115  Cl13  S    
C83   C139  S    
C50   C51   A    
C145  H40   S    
C85   C86   A    
C99   C110  A    
O11   Zn5   S    
C81   C82   A    
C67   C68   A    
C13   C24   A    
C98   O5    A    
C60   C61   A    
C96   O2    A    
C92   H10   S    
C43   C123  S    
C52   Cl3   S    
C37   C38   A    
C146  H41   S    
C53   C125  S    
C71   H9    S    
C83   C84   A    
C7    C149  S    
C30   C31   A    
C11   Cl19  S    
C147  H42   S    
C148  H43   S    
C140  O44   D    
C17   C18   A    
O24   Zn3   S    
O3    Zn3   S    
O14   Zn5   S    
C46   C47   A    
C47   H7    S    
C43   C45   A    
C67   C133  S    
C42   Cl1   S    
C59   C69   S    
C108  C145  S    
C110  Cl11  S    
C6    H12   S    
C124  H19   S    
C19   Cl22  S    
C12   C14   A    
O21   Zn2   S    
O6    Zn4   S    
C111  C143  S    
C138  O42   D    
C10   C11   A    
C149  O53   D    
C98   O6    A    
O12   Zn2   S    
C121  H16   S    
C84   C104  S    
C54   C126  S    
C79   C80   A    
C21   Cl25  S    
C58   C59   A    
C150  H45   S    
C107  C108  A    
C61   C130  S    
C3    C4    A    
C1    O1    A    
C38   H4    S    
C97   O3    A    
O15   Zn6   S    
C97   O4    A    
C52   C53   A    
C86   C87   A    
C146  O50   D    
C113  C114  A    
C2    H1    S    
C26   C36   S    
C3    C120  A    
C148  O52   D    
C66   C77   A    
C144  H39   S    
C2    C110  A    
C128  O32   D    
C143  H38   S    
O20   Zn1   S    
C33   O19   A    
C44   O20   A    
C41   H6    S    
C68   C69   A    
C31   C32   A    
C43   C49   A    
C22   C23   A    
C24   C26   A    
C124  O28   D    
C76   C78   A    
C80   C81   A    
C2    C66   A    
C100  O8    A    
C90   C95   A    
O7    Zn3   S    
C119  C120  A    
C39   C49   S    
C1    C48   S    
C53   C54   A    
C6    C7    A    
C70   C134  S    
O22   Zn1   S    
C136  O40   D    
C105  C106  A    
C58   Cl4   S    
C3    C148  S    
C65   C75   S    
C30   C36   A    
C5    C118  A    
O1    Zn1   S    
C86   C140  S    
C64   C65   A    
C104  O17   A    
C19   C20   A    
O4    Zn4   S    
C136  H31   S    
C57   C128  S    
C139  O43   D    
C100  O7    A    
C102  O11   A    
C80   C137  S    
C85   C95   S    
C90   C91   A    
C119  Cl15  S    
C82   C136  S    
C93   H11   S    
O18   Zn1   S    
C48   C49   A    
C4    C5    A    
C135  H30   S    
C91   C142  S    
C142  H37   S    
C140  H35   S    
C134  O38   D    
C35   C122  S    
C66   H8    S    
C90   C141  S    
C8    C18   S    
C33   O18   A    
C24   C97   S    
C23   C25   A    
C130  H25   S    
C19   C25   A    
C77   C131  S    
C50   C56   A    
C105  C144  S    
C79   C89   S    
C31   H15   S    
C1    O12   A    
C45   C102  S    
C103  O14   A    
C78   Cl8   S    
C123  H18   S    
C63   C64   A    
C39   C40   A    
C45   C46   A    
C64   C100  S    
C96   O24   A    
C71   C72   A    
C20   C21   A    
C127  H22   S    
C15   C25   S    
C150  O54   D    
O16   Zn5   S    
C12   C18   A    
C70   C75   A    
C87   C89   A    
C14   C15   A    
C76   Cl7   S    
C126  H21   S    
C46   C56   S    
C21   C22   A    
C133  O37   D    
O5    Zn3   S    
C107  C117  S    
C131  O35   D    
O9    Zn5   S    
C91   C92   A    
C115  C116  A    
C32   C34   A    
C62   C127  S    
C27   C28   A    
C9    H13   S    
