data_mof_unit_49448.cif
_audit_creation_date              2012-12-11T16:28:24-0500
_audit_creation_method            fapswitch 2.2
_symmetry_space_group_name_H-M    P1
_symmetry_Int_Tables_number       1
_space_group_crystal_system       triclinic
_cell_length_a                    16.754698
_cell_length_b                    7.255771
_cell_length_c                    15.047575
_cell_angle_alpha                 89.927516
_cell_angle_beta                  94.665992
_cell_angle_gamma                 89.993178
_cell_volume                      1823.24327688

loop_
_atom_site_label
_atom_site_type_symbol
_atom_type_description
_atom_site_fract_x
_atom_site_fract_y
_atom_site_fract_z
_atom_type_partial_charge
O1    O     O_R   0.663460 0.361760 0.165970 -0.539867
O2    O     O_R   0.336540 0.638240 0.834030 -0.539860
O3    O     O_R   0.836540 0.861760 0.334030 -0.531976
O4    O     O_R   0.163460 0.138240 0.665970 -0.531991
O5    O     O_R   0.827100 0.689870 0.163730 -0.528835
O6    O     O_R   0.172900 0.310130 0.836270 -0.528833
O7    O     O_R   0.672900 0.189870 0.336270 -0.530644
O8    O     O_R   0.327100 0.810130 0.663730 -0.530641
C1    C     C_R   0.853903 0.523120 0.144317 0.761272
C2    C     C_R   0.146097 0.476880 0.855682 0.761276
C3    C     C_R   0.645925 0.023127 0.355455 0.763357
C4    C     C_R   0.354075 0.976873 0.644545 0.763357
O9    O     O_R   0.663490 0.691370 0.155500 -0.528565
O10   O     O_R   0.336510 0.308630 0.844500 -0.528572
O11   O     O_R   0.836510 0.191370 0.344500 -0.537403
O12   O     O_R   0.163490 0.808630 0.655500 -0.537390
O13   O     O_R   0.671770 0.863320 0.325740 -0.529777
O14   O     O_R   0.328230 0.136680 0.674260 -0.529782
O15   O     O_R   0.828230 0.363320 0.174260 -0.532612
O16   O     O_R   0.171770 0.636680 0.825740 -0.532608
C5    C     C_R   0.637305 0.522833 0.132251 0.780568
C6    C     C_R   0.362696 0.477167 0.867748 0.780572
C7    C     C_R   0.862570 0.022622 0.367878 0.782319
C8    C     C_R   0.137430 0.977378 0.632121 0.782317
O17   O     O_3   0.752910 0.528800 0.305860 -0.379146
O18   O     O_3   0.247090 0.471200 0.694140 -0.379150
O19   O     O_3   0.747090 0.028800 0.194140 -0.379838
O20   O     O_3   0.252910 0.971200 0.805860 -0.379837
V1    V     V_3+5 0.749460 0.803010 0.239640 1.508599
V2    V     V_3+5 0.250540 0.196990 0.760360 1.508590
V3    V     V_3+5 0.750540 0.303010 0.260360 1.499308
V4    V     V_3+5 0.249460 0.696990 0.739640 1.499320
C9    C     C_1   0.469159 0.994641 0.530509 0.079323
C10   C     C_1   0.530842 0.005358 0.469492 0.079328
C11   C     C_1   0.030932 0.494632 0.969603 0.079209
C12   C     C_1   0.969067 0.505367 0.030395 0.079214
C13   C     C_R   0.021388 0.061561 0.317545 -0.272323
C14   C     C_R   0.978611 0.938477 0.682457 -0.272319
C15   C     C_R   0.479787 0.469705 0.184516 -0.271161
C16   C     C_R   0.520216 0.530271 0.815482 -0.271161
C17   C     C_R   0.096811 0.078391 0.286623 0.326624
C18   C     C_R   0.903187 0.921649 0.713379 0.326633
C19   C     C_R   0.405188 0.442363 0.216111 0.325482
C20   C     C_R   0.594814 0.557615 0.783887 0.325480
C21   C     C_R   0.164616 0.064954 0.346966 0.522471
C22   C     C_R   0.835383 0.935042 0.653033 0.522478
C23   C     C_R   0.337602 0.429694 0.155463 0.522380
C24   C     C_R   0.662399 0.570308 0.844536 0.522379
C25   C     C_R   0.156914 0.034763 0.438650 0.202342
C26   C     C_R   0.843086 0.965200 0.561346 0.202344
C27   C     C_R   0.344708 0.443219 0.062789 0.201981
C28   C     C_R   0.655291 0.556806 0.937210 0.201971
C29   C     C_R   0.079211 0.017826 0.471072 -0.024802
C30   C     C_R   0.920789 0.982163 0.528926 -0.024807
C31   C     C_R   0.421627 0.470695 0.029667 -0.025274
C32   C     C_R   0.578374 0.529312 0.970332 -0.025274
C33   C     C_R   0.010527 0.031052 0.408682 -0.091616
C34   C     C_R   0.989473 0.968957 0.591318 -0.091617
C35   C     C_R   0.490102 0.484103 0.092337 -0.090609
C36   C     C_R   0.509899 0.515891 0.907662 -0.090609
C37   C     C_R   0.068115 0.987053 0.563187 -0.050369
C38   C     C_R   0.931885 0.012945 0.436813 -0.050370
C39   C     C_R   0.432085 0.486825 0.936569 -0.051311
C40   C     C_R   0.567916 0.513176 0.063430 -0.051310
C41   C     C_1   0.416773 0.985930 0.582363 -0.155947
C42   C     C_1   0.583228 0.014070 0.417638 -0.155943
C43   C     C_1   0.083424 0.485908 0.917885 -0.156071
C44   C     C_1   0.916575 0.514092 0.082114 -0.156057
H1    H     H_    0.971068 0.072555 0.267986 0.156319
H2    H     H_    0.028931 0.927507 0.732018 0.156316
H3    H     H_    0.529844 0.480382 0.234399 0.157305
H4    H     H_    0.470159 0.519579 0.765599 0.157301
O21   O     O_3   0.224747 0.019933 0.496742 -0.652879
H5    H     H_    0.273464 0.036485 0.464556 0.337313
O22   O     O_3   0.775254 0.979967 0.503250 -0.652877
H6    H     H_    0.726536 0.963386 0.535433 0.337311
O23   O     O_3   0.276992 0.430965 0.004346 -0.651651
H7    H     H_    0.229161 0.406324 0.037018 0.337724
O24   O     O_3   0.723005 0.569103 0.995654 -0.651648
H8    H     H_    0.770832 0.593801 0.962982 0.337726
O25   O     O_3   0.101602 0.107291 0.196458 -0.618238
H9    H     H_    0.158527 0.113823 0.183455 0.378363
O26   O     O_3   0.898396 0.892786 0.803546 -0.618238
H10   H     H_    0.841470 0.886259 0.816549 0.378343
O27   O     O_3   0.400913 0.429588 0.307207 -0.618462
H11   H     H_    0.344620 0.409255 0.320369 0.374266
O28   O     O_3   0.599090 0.570366 0.692790 -0.618464
H12   H     H_    0.655381 0.590745 0.679630 0.374266
F1    F     F_    0.761516 0.919526 0.683622 -0.672048
F2    F     F_    0.238484 0.080458 0.316375 -0.672041
F3    F     F_    0.735578 0.594088 0.813276 -0.675105
F4    F     F_    0.264424 0.405905 0.186723 -0.675121

loop_
_geom_bond_atom_site_label_1
_geom_bond_atom_site_label_2
_ccdc_geom_bond_type
O17   V3    S    
O28   H12   S    
C14   H2    S    
O18   V4    S    
C8    C37   S    
C16   C36   A    
C31   C35   A    
O19   V1    S    
O13   V1    S    
O21   H5    S    
O3    C7    A    
C11   C12   S    
O15   V3    S    
C10   C42   T    
O25   H9    S    
C9    C41   T    
C33   C38   A    
C22   F1    S    
O23   H7    S    
O1    C5    A    
C35   C40   A    
C26   C30   A    
C36   C39   A    
O9    V1    S    
C14   C18   A    
C13   H1    S    
C18   C22   A    
O4    C8    A    
O1    V3    S    
O2    V4    S    
C23   F4    S    
O3    V1    S    
C5    C40   S    
C6    C39   S    
C14   C34   A    
C29   C37   A    
C1    O15   A    
C7    C38   S    
C2    O16   A    
C24   F3    S    
C31   C39   A    
O2    C6    A    
C32   C40   A    
O14   V2    S    
C11   C43   T    
C28   O24   S    
C16   C20   A    
C3    C42   S    
C34   C37   A    
O11   C7    A    
C15   C35   A    
O12   C8    A    
O10   V2    S    
O16   V4    S    
O5    V1    S    
O7    V3    S    
C19   O27   S    
C29   C33   A    
C15   C19   A    
C30   C38   A    
C2    C43   S    
C32   C36   A    
O8    V4    S    
O7    C3    A    
O22   H6    S    
C27   O23   S    
O5    C1    A    
O26   H10   S    
C21   C25   A    
O8    C4    A    
C17   O25   S    
C9    C10   S    
O9    C5    A    
C21   F2    S    
O27   H11   S    
O6    V2    S    
C25   O21   S    
C20   O28   S    
C30   C34   A    
C3    O13   A    
C17   C21   A    
C16   H4    S    
C18   O26   S    
O6    C2    A    
C23   C27   A    
C12   C44   T    
O11   V3    S    
O12   V4    S    
C4    C41   S    
C22   C26   A    
O10   C6    A    
O20   V2    S    
C1    C44   S    
C26   O22   S    
C25   C29   A    
C27   C31   A    
C13   C17   A    
O4    V2    S    
O24   H8    S    
C28   C32   A    
C24   C28   A    
C4    O14   A    
C15   H3    S    
C19   C23   A    
C13   C33   A    
C20   C24   A    
