data_mof_unit_16177.cif
_audit_creation_date              2012-12-10T17:16:42-0500
_audit_creation_method            fapswitch 2.2
_symmetry_space_group_name_H-M    P1
_symmetry_Int_Tables_number       1
_space_group_crystal_system       triclinic
_cell_length_a                    10.18185
_cell_length_b                    10.66875
_cell_length_c                    10.788899
_cell_angle_alpha                 90.176084
_cell_angle_beta                  95.07453
_cell_angle_gamma                 81.574209
_cell_volume                      1154.72049914

loop_
_atom_site_label
_atom_site_type_symbol
_atom_type_description
_atom_site_fract_x
_atom_site_fract_y
_atom_site_fract_z
_atom_type_partial_charge
C1    C     C_R   0.444215 0.504247 0.267420 0.912792
C2    C     C_R   0.500589 0.738963 0.500031 0.869934
C3    C     C_R   0.543526 0.123586 0.277375 -0.151970
C4    C     C_R   0.456743 0.876415 0.722719 -0.152578
C5    C     C_R   0.569378 0.054742 0.170166 -0.151149
C6    C     C_R   0.430774 0.945343 0.829882 -0.151390
C7    C     C_R   0.571446 0.924365 0.170541 -0.149315
C8    C     C_R   0.428456 0.075757 0.829411 -0.148930
C9    C     C_R   0.547552 0.862733 0.278091 -0.152770
C10   C     C_R   0.452181 0.137344 0.721803 -0.151823
C11   C     C_R   0.524799 0.930817 0.389382 0.070972
C12   C     C_R   0.555695 0.487738 0.732559 0.912303
C13   C     C_R   0.475120 0.069212 0.610584 0.071610
C14   C     C_R   0.522831 0.062015 0.389025 0.075003
C15   C     C_R   0.477245 0.937992 0.610996 0.074312
C16   C     C_R   0.501766 0.871245 0.500326 -0.197225
C17   C     C_R   0.498229 0.128765 0.499668 -0.194364
C18   C     C_2   0.412693 0.493155 0.135363 -0.379177
C19   C     C_2   0.586866 0.467403 0.864501 -0.379171
C20   C     C_2   0.511395 0.450247 0.066112 -0.171015
C21   C     C_2   0.487599 0.453802 0.933510 -0.170971
C22   C     C_2   0.073315 0.489708 0.489228 0.096866
C23   C     C_2   0.926699 0.510255 0.510799 0.098810
C24   C     C_R   0.499409 0.261036 0.499964 0.864388
H1    H     H_    0.408791 0.129477 0.912705 0.140005
H2    H     H_    0.613294 0.422222 0.106348 0.187591
H3    H     H_    0.688684 0.465484 0.905378 0.153847
H4    H     H_    0.311119 0.521341 0.094608 0.153735
H5    H     H_    0.876938 0.384392 0.383598 0.133366
H6    H     H_    0.123050 0.615636 0.616372 0.135056
H7    H     H_    0.926690 0.572537 0.688276 0.153951
H8    H     H_    0.897669 0.688921 0.577348 0.166606
H9    H     H_    0.073381 0.427367 0.311766 0.154798
H10   H     H_    0.102336 0.311018 0.422729 0.166321
H11   H     H_    0.591060 0.870718 0.087199 0.138106
H12   H     H_    0.539841 0.225108 0.271217 0.142068
H13   H     H_    0.460732 0.774815 0.728985 0.143676
H14   H     H_    0.587333 0.102921 0.086543 0.140337
H15   H     H_    0.412902 0.897216 0.913560 0.138445
H16   H     H_    0.547113 0.761658 0.272411 0.145984
H17   H     H_    0.452281 0.238429 0.727367 0.144107
H18   H     H_    0.385461 0.455985 0.893151 0.188332
N1    N     N_2   0.157300 0.551390 0.551120 -0.189816
N2    N     N_2   0.842700 0.448610 0.448880 -0.189141
N3    N     N_3   0.877124 0.599403 0.601328 -0.373790
N4    N     N_3   0.122908 0.400523 0.398734 -0.373442
O1    O     O_R   0.568940 0.489660 0.307530 -0.626676
O2    O     O_R   0.431060 0.510340 0.692470 -0.626706
O3    O     O_R   0.348880 0.522640 0.340350 -0.586240
O4    O     O_R   0.651120 0.477360 0.659650 -0.586172
O5    O     O_R   0.610030 0.300280 0.483580 -0.615110
O6    O     O_R   0.389970 0.699720 0.516420 -0.612035
O7    O     O_R   0.389970 0.333270 0.516400 -0.596430
O8    O     O_R   0.610030 0.666730 0.483600 -0.593319
Zn1   Zn    Zn3+2 0.646940 0.477980 0.478080 0.948757
Zn2   Zn    Zn3+2 0.353060 0.522020 0.521920 0.948653

loop_
_geom_bond_atom_site_label_1
_geom_bond_atom_site_label_2
_ccdc_geom_bond_type
C12   O4    A    
H10   N4    S    
O3    Zn2   S    
C2    C16   S    
H8    N3    S    
C18   C20   D    
C22   N1    D    
N2    Zn1   S    
C2    O6    A    
C13   C17   A    
C12   O2    A    
C7    C9    A    
C24   O5    A    
O1    Zn1   S    
C18   H4    S    
C5    H14   S    
C20   C21   S    
C10   H17   S    
C8    H1    S    
C9    C11   A    
C14   C17   A    
C1    C18   S    
C3    C14   A    
C20   H2    S    
C3    H12   S    
C4    C15   A    
C23   N3    S    
C12   C19   S    
C4    C6    A    
C19   C21   D    
O5    Zn1   S    
C13   C15   A    
H5    N2    S    
H7    N3    S    
C8    C10   A    
C11   C14   A    
H6    N1    S    
C17   C24   S    
C15   C16   A    
C23   N2    D    
C21   H18   S    
O6    Zn2   S    
N1    Zn2   S    
C19   H3    S    
C4    H13   S    
O2    Zn2   S    
C2    O8    A    
O7    Zn2   S    
C5    C7    A    
O8    Zn1   S    
C1    O1    A    
C6    C8    A    
C22   N4    S    
C24   O7    A    
C6    H15   S    
C11   C16   A    
C7    H11   S    
C9    H16   S    
C22   C23   S    
O4    Zn1   S    
H9    N4    S    
C3    C5    A    
C10   C13   A    
C1    O3    A    
