data_mof_unit_47501.cif
_audit_creation_date              2012-10-26T20:06:13-0400
_audit_creation_method            fapswitch 2.2
_symmetry_space_group_name_H-M    P1
_symmetry_Int_Tables_number       1
_space_group_crystal_system       triclinic
_cell_length_a                    9.547605
_cell_length_b                    10.821047
_cell_length_c                    13.485377
_cell_angle_alpha                 88.83375
_cell_angle_beta                  73.355303
_cell_angle_gamma                 89.809622
_cell_volume                      1334.5840519

loop_
_atom_site_label
_atom_site_type_symbol
_atom_type_description
_atom_site_fract_x
_atom_site_fract_y
_atom_site_fract_z
_atom_type_partial_charge
C1    C     C_R   0.500588 0.737330 0.498306 0.581667
C2    C     C_R   0.383958 0.453709 0.812560 0.059652
C3    C     C_R   0.513728 0.930900 0.587596 -0.058688
C4    C     C_R   0.423753 0.485633 0.699450 0.617890
C5    C     C_R   0.513157 0.060756 0.588865 -0.004740
C6    C     C_R   0.497746 0.128419 0.502042 0.012142
C7    C     C_R   0.481106 0.068378 0.414560 0.029322
C8    C     C_R   0.482528 0.939281 0.412069 0.029159
C9    C     C_R   0.501085 0.871221 0.498318 -0.028914
C10   C     C_R   0.900517 0.579317 0.560492 -0.009185
C11   C     C_R   0.049159 0.579217 0.561130 0.203887
C12   C     C_R   0.440547 0.466307 0.979237 0.026315
C13   C     C_R   0.099776 0.421720 0.438542 0.006822
C14   C     C_R   0.950754 0.420994 0.438713 0.210988
C15   C     C_R   0.499440 0.262532 0.501187 0.589249
C16   C     C_R   0.577693 0.506718 0.300724 0.557380
C17   C     C_R   0.780790 0.592490 0.023107 -0.089373
C18   C     C_R   0.620499 0.523004 0.188063 -0.007650
C19   C     C_R   0.239602 0.418138 0.865396 0.136540
C20   C     C_R   0.193436 0.412820 0.973803 0.117299
C21   C     C_R   0.289121 0.448501 0.030656 0.104140
C22   C     C_2   0.837508 0.663031 0.181939 0.241004
C23   C     C_R   0.488947 0.459039 0.869563 -0.001380
C24   C     C_2   0.528578 0.124723 0.681222 0.295519
C25   C     C_2   0.464687 0.879388 0.317747 0.266507
C26   C     C_2   0.518060 0.856226 0.681372 0.201468
C27   C     C_R   0.546913 0.495360 0.031344 0.052182
C28   C     C_R   0.685414 0.540795 0.973557 0.001299
C29   C     C_R   0.732758 0.521407 0.867982 -0.124408
C30   C     C_R   0.642138 0.459321 0.821305 0.117435
C31   C     C_R   0.525300 0.474272 0.137110 -0.088376
C32   C     C_R   0.745344 0.591148 0.131366 0.015817
Cu1   Cu    Cu3+1 0.359340 0.499980 0.500000 1.040566
Cu2   Cu    Cu3+1 0.640660 0.500020 0.500000 0.995926
H1    H     H_    0.824067 0.642355 0.609279 0.107899
H2    H     H_    0.412258 0.928897 0.267371 0.157939
H3    H     H_    0.073021 0.752941 0.604982 0.212452
H4    H     H_    0.035013 0.646214 0.702139 0.201872
H5    H     H_    0.930778 0.247298 0.392859 0.206070
H6    H     H_    0.959626 0.356678 0.297733 0.195987
H7    H     H_    0.106249 0.293112 0.828548 0.268786
H8    H     H_    0.048860 0.441409 0.831297 0.227284
H9    H     H_    0.181669 0.392317 0.176804 0.204324
H10   H     H_    0.151028 0.542241 0.148061 0.282493
H11   H     H_    0.993201 0.442651 0.074138 0.243562
H12   H     H_    0.176306 0.359102 0.389367 0.100303
H13   H     H_    0.052193 0.294830 0.070904 0.239780
H14   H     H_    0.819100 0.389331 0.711559 0.216943
H15   H     H_    0.695344 0.285585 0.775706 0.229898
H16   H     H_    0.575155 0.768727 0.673771 0.124443
H17   H     H_    0.845273 0.538980 0.825308 0.082052
H18   H     H_    0.882744 0.633599 0.977032 0.164675
H19   H     H_    0.438763 0.414131 0.180774 0.156497
H20   H     H_    0.802644 0.679316 0.264285 0.170715
H21   H     H_    0.608350 0.092808 0.719253 0.121014
H22   H     H_    0.373749 0.190761 0.346037 0.237782
H23   H     H_    0.559294 0.197427 0.300119 0.240162
N1    N     N_R   0.147940 0.499970 0.499970 -0.205721
N2    N     N_R   0.852060 0.500060 0.499990 -0.206351
N3    N     N_3   0.469254 0.138124 0.325316 -0.660721
N4    N     N_3   0.096357 0.663165 0.625525 -0.544580
N5    N     N_3   0.902975 0.336787 0.374813 -0.558776
N6    N     N_3   0.140125 0.384335 0.808519 -0.564180
N7    N     N_3   0.230001 0.473083 0.138673 -0.638357
N8    N     N_3   0.046966 0.373101 0.025402 -0.643528
N9    N     N_3   0.706668 0.373564 0.740971 -0.548561
O1    O     O_R   0.381250 0.680340 0.500010 -0.442805
O2    O     O_2   0.446903 0.209010 0.718622 -0.502392
O3    O     O_2   0.511538 0.776261 0.293023 -0.525876
O4    O     O_2   0.453095 0.889613 0.768388 -0.485347
O5    O     O_R   0.618820 0.680370 0.500010 -0.540621
O6    O     O_R   0.323240 0.499950 0.650980 -0.446804
O7    O     O_R   0.560810 0.499980 0.650980 -0.485826
O8    O     O_R   0.381180 0.319630 0.499990 -0.511382
O9    O     O_R   0.618750 0.319660 0.499990 -0.461031
O10   O     O_R   0.439190 0.500020 0.349020 -0.487523
O11   O     O_R   0.676760 0.500050 0.349020 -0.506324
O12   O     O_2   0.952954 0.709167 0.131045 -0.523687

loop_
_geom_bond_atom_site_label_1
_geom_bond_atom_site_label_2
_ccdc_geom_bond_type
C15   O9    A    
Cu1   N1    S    
C19   C20   A    
C7    C8    A    
C22   H20   S    
H10   N7    S    
C24   H21   S    
C14   N2    A    
C12   C23   A    
C1    O5    A    
C22   C32   S    
C28   C29   A    
C26   H16   S    
Cu2   O11   S    
C5    C6    A    
C14   N5    S    
H6    N5    S    
C16   O11   A    
C21   N7    S    
Cu1   O6    S    
C6    C15   S    
C19   N6    S    
C8    C9    A    
C10   H1    S    
C11   N1    A    
Cu2   O9    S    
H4    N4    S    
C13   C14   A    
C8    C25   S    
C17   H18   S    
H9    N7    S    
H15   N9    S    
C12   C27   A    
C27   C31   A    
C23   C30   A    
C20   N8    S    
C1    C9    S    
C22   O12   D    
H23   N3    S    
C13   N1    A    
C25   H2    S    
C11   N4    S    
C12   C21   A    
H22   N3    S    
C2    C4    S    
C29   C30   A    
C3    C9    A    
Cu1   O10   S    
Cu1   Cu2   S    
C31   H19   S    
C4    O7    A    
C30   N9    S    
H11   N8    S    
Cu2   N2    S    
C26   O4    D    
C18   C32   A    
H7    N6    S    
C7    N3    S    
C4    O6    A    
Cu1   O1    S    
C29   H17   S    
H5    N5    S    
C2    C19   A    
C16   O10   A    
C17   C28   A    
C3    C26   S    
C3    C5    A    
H3    N4    S    
C6    C7    A    
C10   N2    A    
C13   H12   S    
C5    C24   S    
H8    N6    S    
C1    O1    A    
C10   C11   A    
C24   O2    D    
Cu2   O7    S    
Cu1   O8    S    
C15   O8    A    
C25   O3    D    
C20   C21   A    
C16   C18   S    
C2    C23   A    
C17   C32   A    
C18   C31   A    
H14   N9    S    
Cu2   O5    S    
H13   N8    S    
C27   C28   A    
