data_mof_unit_42710.cif
_audit_creation_date              2012-12-10T16:54:52-0500
_audit_creation_method            fapswitch 2.2
_symmetry_space_group_name_H-M    P1
_symmetry_Int_Tables_number       1
_space_group_crystal_system       triclinic
_cell_length_a                    7.898072
_cell_length_b                    8.552338
_cell_length_c                    15.728238
_cell_angle_alpha                 91.516462
_cell_angle_beta                  85.155686
_cell_angle_gamma                 93.435265
_cell_volume                      1056.45309879

loop_
_atom_site_label
_atom_site_type_symbol
_atom_type_description
_atom_site_fract_x
_atom_site_fract_y
_atom_site_fract_z
_atom_type_partial_charge
C1    C     C_R   0.545157 0.794109 0.497990 0.959005
C2    C     C_2   0.431293 0.042168 0.503614 -0.368218
C3    C     C_R   0.500998 0.500656 0.661138 0.905066
C4    C     C_R   0.454847 0.205889 0.502215 0.954905
C5    C     C_R   0.499179 0.500210 0.338833 0.896352
C6    C     C_3   0.387722 0.645303 0.958118 -0.190005
C7    C     C_3   0.693519 0.562684 0.943514 -0.057022
C8    C     C_3   0.683220 0.576422 0.044901 -0.195327
C9    C     C_1   0.498308 0.505570 0.250245 -0.148367
C10   C     C_3   0.508433 0.519321 0.917060 0.135477
C11   C     C_1   0.230021 0.649640 0.915184 0.219007
C12   C     C_3   0.363593 0.626075 0.056951 -0.163236
C13   C     C_1   0.192332 0.563276 0.089146 0.196920
C14   C     C_1   0.974201 0.648158 0.579842 0.420022
C15   C     C_2   0.812646 0.438164 0.907232 0.389555
C16   C     C_1   0.757819 0.712474 0.902987 0.194688
C17   C     C_2   0.741219 0.735651 0.081822 0.380454
C18   C     C_3   0.501901 0.517784 0.083369 0.174604
C19   C     C_3   0.464936 0.349200 0.047583 -0.396069
C20   C     C_3   0.444816 0.355255 0.951420 -0.387599
C21   C     C_1   0.499311 0.511290 0.175106 -0.089818
C22   C     C_1   0.506383 0.512320 0.824855 -0.110368
C23   C     C_1   0.504109 0.506188 0.749714 -0.144084
C24   C     C_2   0.568728 0.957828 0.496978 -0.359945
H1    H     H_    0.379803 0.743427 0.088161 0.172883
H2    H     H_    0.347701 0.292370 0.080428 0.199840
H3    H     H_    0.835121 0.423509 0.838462 0.088922
H4    H     H_    0.843445 0.743344 0.123902 0.092510
H5    H     H_    0.571014 0.274083 0.058639 0.226551
H6    H     H_    0.698768 0.008366 0.490663 0.184592
H7    H     H_    0.301257 0.991609 0.510000 0.183660
H8    H     H_    0.012017 0.380870 0.435886 0.190092
H9    H     H_    0.449726 0.763745 0.946793 0.166393
H10   H     H_    0.770624 0.495110 0.069019 0.184182
H11   H     H_    0.308370 0.331533 0.939939 0.220472
H12   H     H_    0.515997 0.260328 0.917619 0.196327
N1    N     N_2   0.950340 0.457950 0.477370 -0.184763
N2    N     N_2   0.049660 0.542050 0.522630 -0.148958
N3    N     N_1   0.111237 0.654439 0.877800 -0.196998
N4    N     N_1   0.060962 0.511629 0.116256 -0.212422
N5    N     N_1   0.913053 0.737373 0.627970 -0.239134
N6    N     N_1   0.805482 0.829451 0.871253 -0.143743
O1    O     O_R   0.389240 0.738570 0.505550 -0.621209
O2    O     O_2   0.673700 0.855357 0.066495 -0.577248
O3    O     O_R   0.678400 0.711630 0.491050 -0.628540
O4    O     O_R   0.355360 0.513470 0.630110 -0.613047
O5    O     O_R   0.644510 0.486530 0.615610 -0.624094
O6    O     O_R   0.321600 0.288370 0.508950 -0.630759
O7    O     O_R   0.610760 0.261430 0.494450 -0.613537
O8    O     O_R   0.355490 0.513470 0.384390 -0.621995
O9    O     O_R   0.644640 0.486530 0.369890 -0.610518
O10   O     O_2   0.883559 0.353090 0.952427 -0.569109
Zn1   Zn    Zn3+2 0.306930 0.517990 0.509680 0.954783
Zn2   Zn    Zn3+2 0.693070 0.482010 0.490320 0.958869

loop_
_geom_bond_atom_site_label_1
_geom_bond_atom_site_label_2
_ccdc_geom_bond_type
C6    C10   S    
C7    C10   S    
C2    C4    S    
C5    C9    S    
N1    N2    D    
C14   N2    S    
C18   C21   S    
C4    O7    A    
C3    O4    A    
C3    C23   S    
C8    C17   S    
C6    H9    S    
C12   H1    S    
O9    Zn2   S    
C1    O3    A    
C7    C15   S    
C17   O2    D    
C7    C8    S    
C8    H10   S    
C15   O10   D    
C10   C22   S    
C6    C12   S    
C17   H4    S    
C9    C21   T    
N2    Zn1   S    
O5    Zn2   S    
N1    Zn2   S    
O4    Zn1   S    
C3    O5    A    
C7    C16   S    
O1    Zn1   S    
O3    Zn2   S    
C14   N5    T    
C2    C24   D    
O6    Zn1   S    
C11   N3    T    
C24   H6    S    
C5    O8    A    
O8    Zn1   S    
O7    Zn2   S    
C20   H12   S    
C16   N6    T    
C12   C13   S    
C1    C24   S    
C18   C19   S    
C4    O6    A    
C12   C18   S    
C6    C11   S    
C19   H2    S    
C22   C23   T    
C5    O9    A    
C13   N4    T    
H8    N1    S    
C20   H11   S    
C15   H3    S    
C1    O1    A    
C8    C18   S    
C19   C20   S    
C10   C20   S    
C2    H7    S    
C19   H5    S    
