data_mof_unit_59771.cif
_audit_creation_date              2012-12-10T17:23:12-0500
_audit_creation_method            fapswitch 2.2
_symmetry_space_group_name_H-M    P1
_symmetry_Int_Tables_number       1
_space_group_crystal_system       triclinic
_cell_length_a                    15.868179
_cell_length_b                    10.866447
_cell_length_c                    9.582444
_cell_angle_alpha                 90.327732
_cell_angle_beta                  89.950388
_cell_angle_gamma                 92.519863
_cell_volume                      1650.68274437

loop_
_atom_site_label
_atom_site_type_symbol
_atom_type_description
_atom_site_fract_x
_atom_site_fract_y
_atom_site_fract_z
_atom_type_partial_charge
C1    C     C_R   0.506570 0.263039 0.500411 0.798835
C2    C     C_3   0.082944 0.501515 0.500925 0.143420
C3    C     C_3   0.973886 0.563423 0.611789 0.216891
C4    C     C_3   0.916995 0.501869 0.500202 0.142743
C5    C     C_3   0.031311 0.617276 0.496155 0.215847
C6    C     C_3   0.973616 0.556382 0.383240 -0.200857
C7    C     C_1   0.174642 0.500765 0.500614 -0.051868
C8    C     C_1   0.825304 0.501423 0.499876 -0.052845
C9    C     C_R   0.553173 0.121877 0.755590 -0.160109
C10   C     C_R   0.542634 0.063770 0.883992 -0.159395
C11   C     C_R   0.500877 0.949063 0.890597 -0.140971
C12   C     C_R   0.339903 0.499693 0.500046 0.832787
C13   C     C_R   0.477578 0.887216 0.767804 -0.162191
C14   C     C_R   0.496634 0.939335 0.635275 0.093434
C15   C     C_R   0.521977 0.065114 0.631172 0.095860
C16   C     C_R   0.513966 0.129181 0.503328 -0.119775
C17   C     C_R   0.501537 0.063065 0.378766 -0.213602
C18   C     C_R   0.494388 0.935897 0.380112 -0.216099
C19   C     C_R   0.491820 0.872235 0.506860 -0.112888
C20   C     C_R   0.611661 0.664692 0.144927 -0.150089
C21   C     C_R   0.665849 0.745521 0.072976 -0.222943
C22   C     C_R   0.665966 0.745267 0.929236 -0.193398
C23   C     C_R   0.495308 0.737576 0.501492 0.777618
C24   C     C_R   0.611737 0.664400 0.856593 -0.136601
C25   C     C_R   0.554800 0.581026 0.925545 0.191504
C26   C     C_R   0.554768 0.581066 0.075227 0.206779
C27   C     C_R   0.448206 0.422467 0.073504 -0.068363
C28   C     C_R   0.448225 0.422507 0.925509 -0.066419
C29   C     C_R   0.660077 0.500466 0.499976 0.801749
C30   C     C_3   0.968263 0.384960 0.505048 -0.190944
C31   C     C_3   0.026310 0.439353 0.388235 -0.189624
C32   C     C_1   0.250185 0.500215 0.500286 -0.183974
C33   C     C_1   0.749762 0.501002 0.499872 -0.179178
C34   C     C_3   0.026303 0.447074 0.617942 -0.200575
Cu1   Cu    Cu3+1 0.499990 0.499990 0.640660 0.921858
Cu2   Cu    Cu3+1 0.500010 0.500010 0.359340 0.931684
H1    H     H_    0.049095 0.387904 0.296221 0.143322
H2    H     H_    0.488133 0.906585 0.990807 0.137714
H3    H     H_    0.442082 0.801026 0.779877 0.169115
H4    H     H_    0.489482 0.887493 0.281087 0.164567
H5    H     H_    0.405794 0.358902 0.128473 0.137422
H6    H     H_    0.617652 0.671926 0.254885 0.200645
H7    H     H_    0.708328 0.808569 0.129507 0.150610
H8    H     H_    0.708378 0.808303 0.873244 0.151538
H9    H     H_    0.617197 0.672048 0.746680 0.200997
H10   H     H_    0.405853 0.358928 0.869775 0.145041
H11   H     H_    0.941058 0.289144 0.508330 0.142600
H12   H     H_    0.951149 0.601518 0.287377 0.141465
H13   H     H_    0.048763 0.402763 0.714315 0.139854
H14   H     H_    0.497347 0.109564 0.279451 0.161774
H15   H     H_    0.587535 0.209935 0.755247 0.163876
H16   H     H_    0.564704 0.109384 0.978711 0.136267
N1    N     N_R   0.500800 0.501210 0.147910 -0.197654
N2    N     N_R   0.500830 0.501290 0.852040 -0.203618
O1    O     O_R   0.499990 0.319640 0.618810 -0.588573
O2    O     O_R   0.500000 0.319660 0.381240 -0.581336
O3    O     O_R   0.379070 0.499980 0.618770 -0.574787
O4    O     O_R   0.379080 0.500000 0.381190 -0.571310
O5    O     O_R   0.500000 0.680340 0.618760 -0.614132
O6    O     O_R   0.500010 0.680360 0.381190 -0.600155
O7    O     O_R   0.620920 0.500000 0.618810 -0.596250
O8    O     O_R   0.620930 0.500020 0.381230 -0.590145
C35   C     C_3   0.067793 0.748944 0.491030 -0.891677
H17   H     H_    0.015748 0.813837 0.488376 0.233874
H18   H     H_    0.107226 0.768308 0.584868 0.238586
H19   H     H_    0.107231 0.761554 0.396061 0.235738
C36   C     C_3   0.943226 0.633598 0.738518 -0.892055
H20   H     H_    0.998137 0.668206 0.801240 0.235478
H21   H     H_    0.906672 0.712667 0.703970 0.234735
H22   H     H_    0.902278 0.571546 0.803625 0.238173

loop_
_geom_bond_atom_site_label_1
_geom_bond_atom_site_label_2
_ccdc_geom_bond_type
C17   H14   S    
C3    C36   S    
C11   H2    S    
C19   C23   S    
C24   C25   A    
C27   N1    A    
Cu2   O2    S    
Cu2   N1    S    
C9    C10   A    
C27   H5    S    
C20   H6    S    
C2    C7    S    
C9    H15   S    
C4    C8    S    
C30   C31   S    
Cu1   O3    S    
C36   H22   S    
C12   O4    A    
C2    C34   S    
C35   H18   S    
C17   C18   A    
C1    O1    A    
C35   H19   S    
C10   H16   S    
Cu1   O7    S    
C1    C16   S    
C21   H7    S    
C13   C14   A    
C12   C32   S    
Cu1   N2    S    
C23   O5    A    
C11   C13   A    
C28   H10   S    
C5    C6    S    
C20   C26   A    
C25   N2    A    
Cu2   O8    S    
C24   H9    S    
Cu1   O5    S    
Cu2   O6    S    
C1    O2    A    
C6    C31   S    
Cu2   O4    S    
C8    C33   T    
C9    C15   A    
C23   O6    A    
C22   C24   A    
C13   H3    S    
C4    C30   S    
C16   C17   A    
C29   O7    A    
C12   O3    A    
C35   H17   S    
Cu1   O1    S    
C36   H20   S    
C2    C5    S    
C26   N1    A    
C29   C33   S    
C30   H11   S    
C20   C21   A    
C5    C35   S    
C4    C6    S    
C18   C19   A    
C10   C11   A    
C27   C28   A    
C28   N2    A    
C29   O8    A    
C30   C34   S    
C34   H13   S    
C18   H4    S    
C7    C32   T    
C3    C34   S    
C3    C5    S    
C25   C26   A    
C21   C22   A    
C14   C15   A    
C14   C19   A    
C22   H8    S    
C3    C4    S    
C15   C16   A    
C31   H1    S    
C2    C31   S    
C36   H21   S    
Cu1   Cu2   S    
C6    H12   S    
