data_mof_unit_32575.cif
_audit_creation_date              2012-12-10T18:05:14-0500
_audit_creation_method            fapswitch 2.2
_symmetry_space_group_name_H-M    P1
_symmetry_Int_Tables_number       1
_space_group_crystal_system       triclinic
_cell_length_a                    9.690315
_cell_length_b                    10.928973
_cell_length_c                    16.979947
_cell_angle_alpha                 84.393938
_cell_angle_beta                  95.513979
_cell_angle_gamma                 89.062888
_cell_volume                      1780.78085371

loop_
_atom_site_label
_atom_site_type_symbol
_atom_type_description
_atom_site_fract_x
_atom_site_fract_y
_atom_site_fract_z
_atom_type_partial_charge
C1    C     C_R   0.500904 0.262150 0.498459 0.860382
C2    C     C_R   0.500449 0.736211 0.506579 0.836248
C3    C     C_R   0.376878 0.937327 0.512870 0.183466
C4    C     C_R   0.626375 0.057989 0.530234 0.141478
C5    C     C_R   0.502042 0.868814 0.517190 -0.178355
C6    C     C_R   0.504291 0.126123 0.500421 -0.179654
C7    C     C_R   0.084433 0.415202 0.548928 0.006585
C8    C     C_R   0.915594 0.575493 0.445376 0.079436
C9    C     C_R   0.936589 0.420662 0.553667 0.247454
C10   C     C_R   0.063681 0.582979 0.449468 0.291528
C11   C     C_R   0.519497 0.510542 0.650688 0.847103
C12   C     C_R   0.480845 0.495606 0.348754 0.846782
C13   C     C_R   0.533751 0.538142 0.736692 -0.143925
C14   C     C_R   0.469058 0.475515 0.262143 -0.143677
C15   C     C_R   0.414686 0.576555 0.770827 0.167174
C16   C     C_R   0.583458 0.420673 0.231073 0.168989
C17   C     C_R   0.416809 0.575387 0.854375 -0.071713
C18   C     C_R   0.583740 0.414863 0.148197 -0.111092
C19   C     C_R   0.541300 0.546191 0.902915 0.209130
C20   C     C_R   0.463545 0.452106 0.097379 0.234599
C21   C     C_R   0.665876 0.544753 0.867533 -0.112103
C22   C     C_R   0.341348 0.484354 0.129291 -0.107347
C23   C     C_R   0.663811 0.538715 0.784326 -0.159936
C24   C     C_R   0.345370 0.503394 0.210704 -0.169914
C25   C     C_R   0.382279 0.061352 0.481723 -0.112500
C26   C     C_R   0.626815 0.929064 0.537138 -0.059662
Cu1   Cu    Cu3+1 0.640660 0.500020 0.500000 1.010305
Cu2   Cu    Cu3+1 0.359340 0.499980 0.500000 0.993963
N1    N     N_2   0.545290 0.535801 0.987319 -0.180128
N2    N     N_2   0.463047 0.458657 0.013350 -0.153071
N3    N     N_R   0.852070 0.500030 0.499980 -0.249064
N4    N     N_R   0.147930 0.499970 0.500020 -0.262757
O1    O     O_R   0.618740 0.319660 0.500000 -0.577147
O2    O     O_R   0.381260 0.680340 0.500000 -0.608769
O3    O     O_R   0.381170 0.319630 0.500010 -0.553628
O4    O     O_R   0.618830 0.680370 0.499990 -0.509361
O5    O     O_R   0.631780 0.498870 0.613920 -0.594121
O6    O     O_R   0.368220 0.501130 0.386080 -0.585373
O7    O     O_R   0.394210 0.498840 0.613930 -0.519414
O8    O     O_R   0.605790 0.501160 0.386070 -0.548961
N5    N     N_2   0.689877 0.358230 0.284657 -0.397651
H1    H     H_    0.790005 0.377933 0.273689 0.328561
C27   C     C_3   0.667898 0.228266 0.301893 -0.610155
H2    H     H_    0.663806 0.181117 0.246676 0.227656
H3    H     H_    0.569838 0.213771 0.329969 0.250274
H4    H     H_    0.754857 0.186931 0.343375 0.226820
N6    N     N_2   0.309125 0.645337 0.720531 -0.420235
H5    H     H_    0.305226 0.737399 0.729164 0.256670
C28   C     C_3   0.174828 0.591086 0.710642 -0.516439
H6    H     H_    0.177147 0.494818 0.738310 0.281615
H7    H     H_    0.141742 0.592747 0.646461 0.202812
H8    H     H_    0.098343 0.646218 0.737860 0.234619
C29   C     C_2   0.704112 0.359458 0.115158 0.933080
O9    O     O_2   0.684771 0.285574 0.065809 -0.537901
O10   O     O_R   0.839232 0.392278 0.139595 -0.715355
H9    H     H_    0.911999 0.346085 0.114170 0.364552
C30   C     C_2   0.295536 0.620456 0.891007 0.888452
O11   O     O_2   0.183772 0.571419 0.881113 -0.566733
O12   O     O_R   0.311040 0.717006 0.939137 -0.732598
H10   H     H_    0.221341 0.740222 0.960765 0.354418
C31   C     C_2   0.796600 0.563532 0.917362 0.976464
O13   O     O_2   0.832239 0.492186 0.975853 -0.556506
O14   O     O_R   0.877378 0.664753 0.897714 -0.721631
H11   H     H_    0.961339 0.670426 0.937498 0.368920
C32   C     C_2   0.208765 0.490206 0.076654 0.909435
O15   O     O_2   0.124022 0.574174 0.076941 -0.552939
O16   O     O_R   0.181578 0.397416 0.026546 -0.714342
H12   H     H_    0.088332 0.409168 0.993974 0.383949
C33   C     C_2   0.797844 0.543715 0.748938 0.917752
O17   O     O_2   0.899205 0.486657 0.783132 -0.606149
O18   O     O_R   0.811236 0.621439 0.680226 -0.714812
H13   H     H_    0.902208 0.609278 0.657302 0.317640
C34   C     C_2   0.218420 0.550744 0.239837 0.940704
O19   O     O_2   0.143632 0.480443 0.275530 -0.547888
O20   O     O_R   0.179092 0.674299 0.220240 -0.720023
H14   H     H_    0.081206 0.692491 0.232607 0.366897
C35   C     C_2   0.267212 0.117030 0.424418 0.929196
O21   O     O_2   0.149919 0.078298 0.425554 -0.617000
O22   O     O_R   0.294356 0.210993 0.366363 -0.766601
H15   H     H_    0.208494 0.239745 0.329989 0.363206
C36   C     C_2   0.752862 0.863283 0.577526 0.918918
O23   O     O_2   0.832055 0.810599 0.539516 -0.608681
O24   O     O_R   0.788189 0.874789 0.658221 -0.746028
H16   H     H_    0.885189 0.841975 0.677604 0.339731
N7    N     N_2   0.301314 0.914452 0.580802 -0.410506
H17   H     H_    0.298103 0.987519 0.614869 0.276165
C37   C     C_3   0.168969 0.856942 0.570366 -0.588395
H18   H     H_    0.124029 0.844671 0.628205 0.204191
H19   H     H_    0.179965 0.765378 0.549227 0.267651
H20   H     H_    0.096501 0.915702 0.528672 0.258794
N8    N     N_2   0.749840 0.118956 0.552802 -0.433899
H21   H     H_    0.782075 0.103453 0.612614 0.277277
C38   C     C_3   0.860109 0.110822 0.501577 -0.500159
H22   H     H_    0.954722 0.072651 0.537539 0.251809
H23   H     H_    0.881668 0.203942 0.474214 0.258815
H24   H     H_    0.834199 0.050409 0.453507 0.216424
C39   C     C_2   0.166478 0.308046 0.589308 0.923611
O25   O     O_2   0.152285 0.208351 0.563498 -0.631049
O26   O     O_R   0.252870 0.317245 0.659013 -0.774573
H25   H     H_    0.300996 0.236182 0.680742 0.319408
C40   C     C_2   0.833546 0.638818 0.374664 0.927075
O27   O     O_2   0.756569 0.726203 0.380632 -0.577482
O28   O     O_R   0.852327 0.602839 0.299631 -0.747757
H26   H     H_    0.792962 0.653412 0.255313 0.337583
N9    N     N_2   0.874190 0.334505 0.608199 -0.431812
H27   H     H_    0.769334 0.334156 0.606369 0.321463
C41   C     C_3   0.940733 0.287372 0.685565 -0.642218
H28   H     H_    0.862521 0.276815 0.729349 0.241922
H29   H     H_    0.020774 0.349652 0.707440 0.269463
H30   H     H_    0.986792 0.194576 0.682490 0.243098
N10   N     N_2   0.123200 0.670755 0.395132 -0.422502
H31   H     H_    0.225340 0.661409 0.387227 0.316443
C42   C     C_3   0.076136 0.798334 0.386725 -0.660991
H32   H     H_    0.166087 0.857616 0.397865 0.253400
H33   H     H_    0.998571 0.815906 0.428258 0.258409
H34   H     H_    0.028972 0.824504 0.325200 0.252721

loop_
_geom_bond_atom_site_label_1
_geom_bond_atom_site_label_2
_ccdc_geom_bond_type
C37   H18   S    
C38   H22   S    
C3    N7    S    
C34   O20   S    
N5    H1    S    
C23   C33   S    
N10   H31   S    
C15   N6    S    
O10   H9    S    
C36   O23   D    
C1    O1    A    
N6    C28   S    
C20   N2    S    
C35   O21   D    
Cu1   O1    S    
N9    C41   S    
C40   O27   D    
C25   C35   S    
C22   C24   A    
C19   C21   A    
N7    H17   S    
C24   C34   S    
C30   O12   S    
C6    C25   A    
C9    N9    S    
C13   C23   A    
C33   O18   S    
C34   O19   D    
C14   C24   A    
C31   O14   S    
C38   H23   S    
C18   C29   S    
C36   O24   S    
N6    H5    S    
Cu2   O3    S    
C28   H7    S    
C41   H28   S    
C8    C40   S    
C21   C31   S    
C42   H34   S    
C2    O2    A    
C29   O10   S    
Cu2   O2    S    
O12   H10   S    
C40   O28   S    
N5    C27   S    
C33   O17   D    
C39   O26   S    
C39   O25   D    
C35   O22   S    
N7    C37   S    
Cu1   N3    S    
O16   H12   S    
Cu2   N4    S    
O22   H15   S    
C4    C6    A    
N8    H21   S    
Cu2   O7    S    
C32   O16   S    
C29   O9    D    
C1    C6    S    
C12   O8    A    
O20   H14   S    
C22   C32   S    
N1    N2    D    
N8    C38   S    
O24   H16   S    
C13   C15   A    
Cu2   O6    S    
Cu1   O8    S    
C28   H8    S    
C10   N10   S    
N10   C42   S    
C11   O7    A    
C27   H3    S    
C8    C10   A    
C12   C14   S    
C32   O15   D    
C26   C36   S    
C21   C23   A    
C27   H2    S    
C41   H30   S    
C14   C16   A    
C2    C5    S    
C19   N1    S    
Cu1   Cu2   S    
C1    O3    A    
C11   O5    A    
C42   H32   S    
C2    O4    A    
C7    C9    A    
C7    N4    A    
C7    C39   S    
C8    N3    A    
C20   C22   A    
O14   H11   S    
C3    C5    A    
C4    C26   A    
C15   C17   A    
Cu1   O4    S    
C38   H24   S    
N9    H27   S    
O26   H25   S    
C4    N8    S    
C37   H19   S    
O18   H13   S    
C11   C13   S    
C30   O11   D    
C41   H29   S    
Cu1   O5    S    
C17   C19   A    
C18   C20   A    
C12   O6    A    
C31   O13   D    
C27   H4    S    
C9    N3    A    
C5    C26   A    
C10   N4    A    
C3    C25   A    
C16   C18   A    
C28   H6    S    
C37   H20   S    
O28   H26   S    
C16   N5    S    
C17   C30   S    
C42   H33   S    
