data_mof_unit_7977.cif
_audit_creation_date              2012-12-10T18:47:03-0500
_audit_creation_method            fapswitch 2.2
_symmetry_space_group_name_H-M    P1
_symmetry_Int_Tables_number       1
_space_group_crystal_system       triclinic
_cell_length_a                    10.718429
_cell_length_b                    9.959288
_cell_length_c                    14.963778
_cell_angle_alpha                 89.257578
_cell_angle_beta                  93.492169
_cell_angle_gamma                 90.016984
_cell_volume                      1594.25208305

loop_
_atom_site_label
_atom_site_type_symbol
_atom_type_description
_atom_site_fract_x
_atom_site_fract_y
_atom_site_fract_z
_atom_type_partial_charge
C1    C     C_R   0.260273 0.499924 0.500967 0.820787
C2    C     C_R   0.739389 0.500206 0.496441 0.809983
C3    C     C_R   0.289514 0.608521 0.029196 0.296152
C4    C     C_R   0.734687 0.463134 0.971665 0.297416
C5    C     C_R   0.062823 0.378527 0.489971 -0.200918
C6    C     C_R   0.936315 0.622258 0.500060 -0.170398
C7    C     C_R   0.934864 0.379240 0.484821 -0.199649
C8    C     C_R   0.064169 0.621796 0.504163 -0.185531
C9    C     C_R   0.871788 0.500666 0.492876 -0.000051
C10   C     C_R   0.127409 0.499900 0.499214 -0.009733
C11   C     C_R   0.562062 0.070783 0.567413 0.416354
C12   C     C_R   0.443503 0.929450 0.430039 0.358298
C13   C     C_R   0.441539 0.073237 0.430855 0.380040
C14   C     C_R   0.556286 0.927104 0.570124 0.347858
C15   C     C_R   0.494711 0.501141 0.327105 0.904540
C16   C     C_R   0.506916 0.499657 0.673050 0.885389
C17   C     C_R   0.627612 0.494587 0.820736 0.499148
C18   C     C_R   0.388758 0.554821 0.179822 0.532998
C19   C     C_R   0.513065 0.500294 0.769215 -0.159255
C20   C     C_R   0.492573 0.504767 0.231350 -0.165396
C21   C     C_R   0.401996 0.525243 0.808022 -0.213559
C22   C     C_R   0.600934 0.467672 0.193276 -0.227408
C23   C     C_R   0.400576 0.545576 0.899383 0.021425
C24   C     C_R   0.610915 0.479942 0.101656 0.029058
C25   C     C_R   0.510426 0.518766 0.953912 -0.057432
C26   C     C_R   0.504558 0.520239 0.047056 -0.060437
C27   C     C_R   0.625865 0.491638 0.915005 -0.077966
C28   C     C_R   0.392652 0.561938 0.085816 -0.101174
C29   C     C_R   0.292295 0.594741 0.936301 0.233833
C30   C     C_R   0.725611 0.453747 0.064486 0.233404
H1    H     H_    0.317822 0.534575 0.764607 0.190007
H2    H     H_    0.678248 0.433084 0.237466 0.196270
H3    H     H_    0.110379 0.283220 0.486963 0.148212
H4    H     H_    0.888880 0.717483 0.503166 0.143923
H5    H     H_    0.886005 0.284920 0.475342 0.154855
H6    H     H_    0.112825 0.716478 0.511953 0.150554
N1    N     N_R   0.500000 0.857200 0.500000 -0.214178
N2    N     N_R   0.500000 0.142800 0.500000 -0.208335
O1    O     O_R   0.316770 0.614620 0.499990 -0.634165
O2    O     O_R   0.683230 0.385380 0.500010 -0.622003
O3    O     O_R   0.683230 0.614620 0.500010 -0.640633
O4    O     O_R   0.316770 0.385380 0.499990 -0.624641
O5    O     O_R   0.499980 0.614680 0.367850 -0.548751
O6    O     O_R   0.500020 0.385320 0.632150 -0.575933
O7    O     O_R   0.500020 0.614680 0.632150 -0.558337
O8    O     O_R   0.499980 0.385320 0.367850 -0.568897
Zn1   Zn    Zn3+2 0.500000 0.653120 0.500000 1.011509
Zn2   Zn    Zn3+2 0.500000 0.346880 0.500000 1.013859
O9    O     O_3   0.738822 0.518738 0.780954 -0.604293
C31   C     C_3   0.773837 0.405712 0.733037 -0.230827
H7    H     H_    0.732243 0.412484 0.664415 0.164162
H8    H     H_    0.749406 0.308662 0.765652 0.197336
H9    H     H_    0.876645 0.407616 0.727859 0.215529
O10   O     O_3   0.287111 0.602875 0.221913 -0.599188
C32   C     C_3   0.212763 0.494959 0.249395 -0.257804
H10   H     H_    0.245040 0.463833 0.317830 0.125612
H11   H     H_    0.210817 0.408047 0.203014 0.187133
H12   H     H_    0.115301 0.531022 0.252775 0.239002
Br1   Br    Br    0.150004 0.653779 0.859083 -0.387013
Br2   Br    Br    0.873290 0.408063 0.140935 -0.464617
Br3   Br    Br    0.144007 0.697148 0.072525 -0.309639
Br4   Br    Br    0.897605 0.425778 0.928408 -0.333499
O11   O     O_3   0.632470 0.138720 0.632519 -0.547808
C33   C     C_3   0.761157 0.124481 0.617398 -0.274560
H13   H     H_    0.803483 0.223918 0.608967 0.166858
H14   H     H_    0.782782 0.067333 0.556564 0.102523
H15   H     H_    0.810203 0.078144 0.677365 0.180923
O12   O     O_3   0.394930 0.863103 0.355264 -0.532807
C34   C     C_3   0.267049 0.834079 0.363948 -0.062134
H16   H     H_    0.252664 0.724697 0.360839 0.213934
H17   H     H_    0.211552 0.877315 0.305665 0.174502
H18   H     H_    0.227661 0.869863 0.426663 0.047519
O13   O     O_3   0.391139 0.143301 0.357112 -0.535390
C35   C     C_3   0.259828 0.150600 0.359845 -0.189724
H19   H     H_    0.231660 0.256530 0.360237 0.162738
H20   H     H_    0.219909 0.101337 0.419044 0.083461
H21   H     H_    0.215987 0.107734 0.297593 0.181192
O14   O     O_3   0.593971 0.860395 0.648852 -0.548722
C36   C     C_3   0.718483 0.814769 0.646733 -0.065583
H22   H     H_    0.765729 0.842428 0.585062 0.066322
H23   H     H_    0.720976 0.704326 0.654690 0.211606
H24   H     H_    0.773812 0.854836 0.705435 0.172164

loop_
_geom_bond_atom_site_label_1
_geom_bond_atom_site_label_2
_ccdc_geom_bond_type
C32   H10   S    
C11   N2    A    
O13   C35   S    
C6    C9    A    
C21   H1    S    
C35   H20   S    
C23   C29   A    
O1    Zn1   S    
C3    C28   A    
C19   C21   A    
C24   C26   A    
C11   O11   S    
C11   C14   A    
C2    O3    A    
C4    Br4   S    
C3    C29   A    
C8    H6    S    
C12   N1    A    
C34   H17   S    
O2    Zn2   S    
C29   Br1   S    
C5    H3    S    
O12   C34   S    
C35   H21   S    
C30   Br2   S    
C31   H8    S    
N1    Zn1   S    
C16   O6    A    
N2    Zn2   S    
C23   C25   A    
O7    Zn1   S    
C15   C20   S    
O8    Zn2   S    
C31   H9    S    
C35   H19   S    
C17   C27   A    
C33   H15   S    
C18   C28   A    
C36   H22   S    
C17   O9    S    
C36   H23   S    
C18   O10   S    
O14   C36   S    
C6    C8    A    
C25   C26   A    
C6    H4    S    
C3    Br3   S    
C33   H14   S    
C34   H18   S    
C12   O12   S    
C31   H7    S    
O3    Zn1   S    
O4    Zn2   S    
C13   N2    A    
C22   H2    S    
C13   O13   S    
C32   H11   S    
C22   C24   A    
C4    C27   A    
C5    C7    A    
C7    C9    A    
O10   C32   S    
C7    H5    S    
C1    C10   S    
C20   C22   A    
C16   O7    A    
C36   H24   S    
C25   C27   A    
C26   C28   A    
C33   H13   S    
C21   C23   A    
C15   O5    A    
C5    C10   A    
C14   N1    A    
C16   C19   S    
C17   C19   A    
C18   C20   A    
C14   O14   S    
C34   H16   S    
C24   C30   A    
C1    O1    A    
O11   C33   S    
C2    O2    A    
C1    O4    A    
C12   C13   A    
C8    C10   A    
O9    C31   S    
C32   H12   S    
C15   O8    A    
C2    C9    S    
O5    Zn1   S    
C4    C30   A    
O6    Zn2   S    
