data_mof_unit_10536.cif
_audit_creation_date              2012-12-10T16:32:43-0500
_audit_creation_method            fapswitch 2.2
_symmetry_space_group_name_H-M    P1
_symmetry_Int_Tables_number       1
_space_group_crystal_system       triclinic
_cell_length_a                    16.878468
_cell_length_b                    16.891601
_cell_length_c                    16.781379
_cell_angle_alpha                 65.333492
_cell_angle_beta                  65.361217
_cell_angle_gamma                 65.92806
_cell_volume                      3790.26808266

loop_
_atom_site_label
_atom_site_type_symbol
_atom_type_description
_atom_site_fract_x
_atom_site_fract_y
_atom_site_fract_z
_atom_type_partial_charge
C1    C     C_R   0.586211 0.051930 0.581370 -0.059333
C2    C     C_R   0.837264 0.575226 0.994659 0.919579
C3    C     C_R   0.440364 0.956577 0.179143 0.914872
C4    C     C_R   0.562455 0.038183 0.820322 0.867444
C5    C     C_R   0.567733 0.821797 0.026476 0.868410
C6    C     C_R   0.436048 0.178391 0.966957 0.855282
C7    C     C_R   0.043005 0.559891 0.820767 0.905870
C8    C     C_R   0.960754 0.438098 0.179574 0.893467
C9    C     C_R   0.820907 0.039667 0.561350 0.913486
C10   C     C_R   0.177938 0.974589 0.431526 0.933776
C11   C     C_R   0.541670 0.033946 0.533187 0.120130
C12   C     C_R   0.412418 0.977122 0.398076 -0.095825
C13   C     C_R   0.459527 0.996882 0.442312 0.043070
C14   C     C_R   0.999944 0.542227 0.557967 0.034948
C15   C     C_R   0.963305 0.460709 0.466111 0.118036
C16   C     C_R   0.559484 0.556246 0.971875 0.141281
C17   C     C_R   0.471441 0.467725 0.938525 0.144285
C18   C     C_R   0.497371 0.105121 0.470893 -0.169306
C19   C     C_R   0.504823 0.925785 0.503789 -0.176963
C20   C     C_R   0.910576 0.542385 0.576775 -0.150159
C21   C     C_R   0.052743 0.459006 0.448814 -0.081813
C22   C     C_R   0.543862 0.586331 0.886527 -0.114261
C23   C     C_R   0.019573 0.588874 0.602756 -0.091002
C24   C     C_R   0.487990 0.437374 0.023447 -0.105118
C25   C     C_R   0.456826 0.086627 0.425353 -0.175728
C26   C     C_R   0.546209 0.944141 0.548421 -0.079438
C27   C     C_R   0.500152 0.542335 0.869847 -0.152842
C28   C     C_R   0.531765 0.481132 0.039993 -0.152463
C29   C     C_R   0.892296 0.502023 0.530855 -0.159181
C30   C     C_R   0.070865 0.499976 0.494014 -0.181764
C31   C     C_R   0.542628 0.055707 0.672353 -0.021919
C32   C     C_R   0.461894 0.938738 0.325163 -0.023071
C33   C     C_R   0.996902 0.684431 0.575194 -0.018613
C34   C     C_R   0.945864 0.415484 0.418121 -0.053784
C35   C     C_R   0.941444 0.325357 0.460754 -0.045692
C36   C     C_R   0.704299 0.571617 0.964322 -0.065212
C37   C     C_R   0.329958 0.460511 0.928367 -0.068423
C38   C     C_R   0.316752 0.000030 0.425845 -0.020994
C39   C     C_R   0.675076 0.059908 0.537932 -0.042590
C40   C     C_R   0.461758 0.329845 0.922966 -0.041525
C41   C     C_R   0.561621 0.675622 0.025052 -0.034812
C42   C     C_R   0.939797 0.459423 0.327882 -0.021914
C43   C     C_R   0.058680 0.539036 0.675214 -0.007540
C44   C     C_R   0.591527 0.062905 0.720037 -0.229095
C45   C     C_R   0.608550 0.601410 0.988001 -0.048274
C46   C     C_R   0.412845 0.929943 0.279417 -0.126827
C47   C     C_R   0.032135 0.726244 0.606647 -0.148527
C48   C     C_R   0.935485 0.278382 0.410331 -0.130242
C49   C     C_R   0.749680 0.618653 0.976366 -0.136433
C50   C     C_R   0.274534 0.402347 0.957435 -0.142703
C51   C     C_R   0.274283 0.966174 0.393640 -0.149758
C52   C     C_R   0.721739 0.065450 0.588786 -0.123547
C53   C     C_R   0.402811 0.274419 0.955494 -0.207960
C54   C     C_R   0.612118 0.731423 0.015244 -0.210751
C55   C     C_R   0.934738 0.409533 0.279973 -0.222699
C56   C     C_R   0.422103 0.420643 0.925082 -0.025403
C57   C     C_R   0.068744 0.587650 0.720565 -0.115105
C58   C     C_R   0.674725 0.081429 0.673076 -0.086208
C59   C     C_R   0.325632 0.923557 0.325070 -0.117638
C60   C     C_R   0.075384 0.674713 0.674577 -0.151325
C61   C     C_R   0.918018 0.325621 0.326509 -0.108735
C62   C     C_R   0.706762 0.706198 0.979771 -0.099981
C63   C     C_R   0.310016 0.309569 0.987518 -0.100305
C64   C     C_2   0.443689 0.062569 0.713458 0.477480
C65   C     C_2   0.563124 0.910676 0.295562 0.450898
C66   C     C_2   0.936989 0.738106 0.514627 0.440153
C67   C     C_R   0.961043 0.179189 0.438168 0.903897
C68   C     C_2   0.938062 0.284402 0.559405 0.490626
C69   C     C_2   0.755764 0.495011 0.923649 0.436667
C70   C     C_2   0.294472 0.561110 0.901933 0.446997
C71   C     C_2   0.263634 0.058893 0.487400 0.443712
C72   C     C_2   0.715024 0.067789 0.438174 0.476961
C73   C     C_2   0.562091 0.295770 0.881847 0.452092
C74   C     C_2   0.462039 0.695088 0.073690 0.463668
C75   C     C_2   0.928591 0.559195 0.287448 0.473798
C76   C     C_2   0.086619 0.437884 0.704370 0.482478
C77   C     C_2   0.706232 0.130002 0.705159 0.945421
C78   C     C_R   0.024574 0.822307 0.568706 0.939033
C79   C     C_2   0.292556 0.869280 0.301548 0.932353
C80   C     C_2   0.132266 0.707617 0.694683 0.995671
C81   C     C_2   0.871315 0.293565 0.292719 0.983879
C82   C     C_2   0.762331 0.771554 0.934273 0.981169
C83   C     C_2   0.252182 0.251377 0.063065 0.962058
C84   C     C_R   0.178363 0.435545 0.968368 0.921318
H1    H     H_    0.581038 0.888518 0.595676 0.152734
H2    H     H_    0.565836 0.643679 0.832895 0.146414
H3    H     H_    0.108292 0.426414 0.399765 0.155422
H4    H     H_    0.855177 0.574543 0.626234 0.168908
H5    H     H_    0.399552 0.110236 0.752577 0.085201
H6    H     H_    0.600012 0.938779 0.311744 0.064444
H7    H     H_    0.945558 0.716102 0.458602 0.097786
H8    H     H_    0.983614 0.292714 0.583837 0.062756
H9    H     H_    0.725132 0.442873 0.939360 0.090132
H10   H     H_    0.310555 0.599885 0.927976 0.085819
H11   H     H_    0.285273 0.048144 0.544519 0.097149
H12   H     H_    0.422352 0.142174 0.377780 0.159392
H13   H     H_    0.705660 0.025440 0.410695 0.061066
H14   H     H_    0.590129 0.237362 0.856871 0.096232
H15   H     H_    0.433256 0.728345 0.126725 0.080546
H16   H     H_    0.882520 0.600675 0.246033 0.095427
H17   H     H_    0.057850 0.401416 0.688433 0.071239
H18   H     H_    0.705069 0.251202 0.701727 0.374895
H19   H     H_    0.294818 0.744512 0.313907 0.343178
H20   H     H_    0.256987 0.717787 0.665352 0.361220
H21   H     H_    0.752386 0.303275 0.283022 0.365090
H22   H     H_    0.828485 0.839525 0.947241 0.345196
H23   H     H_    0.140084 0.499267 0.478861 0.155244
H24   H     H_    0.172453 0.172084 0.100123 0.354303
H25   H     H_    0.823131 0.502826 0.545672 0.156639
H26   H     H_    0.544121 0.456548 0.105765 0.140050
H27   H     H_    0.488490 0.566418 0.803813 0.147786
H28   H     H_    0.507539 0.856271 0.517496 0.152566
H29   H     H_    0.494281 0.174604 0.457779 0.152333
H30   H     H_    0.466399 0.379856 0.077195 0.141788
O1    O     O_R   0.982940 0.138950 0.510160 -0.581954
O2    O     O_R   0.982940 0.510160 0.138950 -0.641772
O3    O     O_R   0.861050 0.017060 0.489840 -0.582387
O4    O     O_R   0.138950 0.982940 0.510160 -0.609719
O5    O     O_R   0.867700 0.025880 0.612340 -0.586747
O6    O     O_R   0.132300 0.974120 0.387660 -0.600716
O7    O     O_R   0.025880 0.612340 0.867700 -0.600606
O8    O     O_R   0.974120 0.387660 0.132300 -0.585866
O9    O     O_R   0.612340 0.867700 0.025880 -0.571136
O10   O     O_R   0.387660 0.132300 0.974120 -0.582889
O11   O     O_R   0.387660 0.974120 0.132300 -0.593661
O12   O     O_R   0.017060 0.861050 0.489840 -0.607649
O13   O     O_R   0.612340 0.025880 0.867700 -0.585889
O14   O     O_R   0.132300 0.387660 0.974120 -0.587801
O15   O     O_R   0.867700 0.612340 0.025880 -0.611148
O16   O     O_R   0.974120 0.132300 0.387660 -0.592526
O17   O     O_R   0.025880 0.867700 0.612340 -0.606430
O18   O     O_2   0.410890 0.014659 0.705782 -0.561042
O19   O     O_2   0.606452 0.853421 0.254964 -0.539977
O20   O     O_2   0.874583 0.804789 0.529868 -0.564063
O21   O     O_2   0.881038 0.245178 0.614859 -0.543444
O22   O     O_2   0.831750 0.491497 0.869047 -0.565902
O23   O     O_R   0.138950 0.510160 0.982940 -0.602458
O24   O     O_2   0.250549 0.601715 0.847245 -0.539018
O25   O     O_2   0.197976 0.122779 0.471803 -0.563333
O26   O     O_2   0.754850 0.125009 0.385247 -0.551750
O27   O     O_2   0.614800 0.333819 0.872176 -0.567051
O28   O     O_2   0.411035 0.675172 0.055463 -0.558623
O29   O     O_2   0.970934 0.595797 0.298326 -0.562484
O30   O     O_2   0.144523 0.394175 0.744225 -0.549632
O31   O     O_2   0.754724 0.087925 0.755719 -0.555475
O32   O     O_R   0.680128 0.224873 0.675967 -0.796171
O33   O     O_2   0.243822 0.906697 0.251309 -0.581249
O34   O     O_R   0.861050 0.489840 0.017060 -0.604463
O35   O     O_R   0.320398 0.774609 0.335043 -0.793584
O36   O     O_2   0.098226 0.749873 0.750622 -0.557187
O37   O     O_R   0.225111 0.690844 0.647772 -0.773186
O38   O     O_2   0.914795 0.241029 0.246502 -0.564700
O39   O     O_R   0.776946 0.327083 0.311646 -0.780434
O40   O     O_2   0.784277 0.803083 0.850625 -0.615000
O41   O     O_R   0.790796 0.795156 0.986519 -0.737928
O42   O     O_2   0.242487 0.240749 0.142898 -0.631212
O43   O     O_R   0.209499 0.209448 0.042822 -0.733532
O44   O     O_R   0.510160 0.982940 0.138950 -0.597030
O45   O     O_R   0.489840 0.017060 0.861050 -0.637902
O46   O     O_R   0.489840 0.861050 0.017060 -0.637154
O47   O     O_R   0.510160 0.138950 0.982940 -0.652700
O48   O     O_R   0.017060 0.489840 0.861050 -0.586975
Zn1   Zn    Zn3+2 0.004880 0.004880 0.583590 1.126967
Zn2   Zn    Zn3+2 0.995120 0.995120 0.416410 1.122678
Zn3   Zn    Zn3+2 0.004880 0.583590 0.004880 1.081735
Zn4   Zn    Zn3+2 0.995120 0.416410 0.995120 1.112773
Zn5   Zn    Zn3+2 0.583590 0.004880 0.004880 1.075784
Zn6   Zn    Zn3+2 0.416410 0.995120 0.995120 1.071192

loop_
_geom_bond_atom_site_label_1
_geom_bond_atom_site_label_2
_ccdc_geom_bond_type
C84   O14   A    
C80   O37   S    
H21   O39   S    
C21   H3    S    
C11   C18   A    
C24   H30   S    
O8    Zn4   S    
C46   C59   A    
O34   Zn4   S    
C34   C42   A    
C6    O10   A    
O23   Zn3   S    
C50   C84   S    
C73   O27   D    
C19   H28   S    
C40   C73   S    
C80   O36   D    
C9    C52   S    
C42   C75   S    
H19   O35   S    
C8    O2    A    
C20   C29   A    
H20   O37   S    
C29   H25   S    
C70   H10   S    
C7    O7    A    
C69   H9    S    
O10   Zn6   S    
C30   H23   S    
C4    O45   A    
C71   H11   S    
C10   C51   S    
C2    O34   A    
C55   C61   A    
C1    C31   A    
C2    O15   A    
C81   O39   S    
O45   Zn6   S    
C8    C55   S    
C34   C35   A    
C19   C26   A    
C67   O1    A    
C58   C77   S    
C47   C60   A    
O48   Zn4   S    
C37   C56   A    
C64   O18   D    
C44   C58   A    
C23   C33   A    
C1    C11   S    
O44   Zn5   S    
C3    O44   A    
C39   C72   S    
C15   C34   S    
C16   C28   A    
C79   O35   S    
O9    Zn5   S    
C22   H2    S    
C39   C52   A    
C62   C82   S    
C27   H27   S    
C66   O20   D    
C37   C70   S    
C12   C32   A    
O14   Zn4   S    
C50   C63   A    
C13   C25   A    
C65   H6    S    
C18   C25   A    
C64   H5    S    
C14   C30   A    
O12   Zn2   S    
C35   C48   A    
C18   H29   S    
C33   C66   S    
C15   C29   A    
C72   H13   S    
O3    Zn2   S    
C73   H14   S    
C52   C58   A    
C7    O48   A    
O4    Zn1   S    
C17   C24   A    
C31   C44   A    
C13   C19   A    
C17   C27   A    
C14   C20   A    
C5    C54   S    
O11   Zn6   S    
C74   H15   S    
O5    Zn1   S    
C43   C57   A    
C57   C60   A    
C79   O33   D    
C38   C51   A    
C4    C44   S    
C11   C26   A    
C40   C56   A    
C63   C83   S    
C14   C23   S    
C78   O17   A    
C36   C49   A    
C10   O4    A    
C2    C49   S    
C42   C55   A    
C83   O43   S    
C6    O47   A    
O17   Zn1   S    
C5    O46   A    
C36   C45   A    
C83   O42   D    
C17   C56   S    
O47   Zn5   S    
C75   O29   D    
C82   O41   S    
C76   O30   D    
C84   O23   A    
C70   O24   D    
C69   O22   D    
C22   C27   A    
C9    O5    A    
O2    Zn3   S    
C67   O16   A    
C51   C59   A    
C6    C53   S    
C59   C79   S    
C78   O12   A    
C77   O31   D    
O7    Zn3   S    
C36   C69   S    
O6    Zn2   S    
O16   Zn2   S    
C76   H17   S    
C38   C71   S    
C60   C80   S    
C16   C22   A    
C49   C62   A    
C4    O13   A    
C23   C43   A    
C32   C46   A    
C31   C64   S    
C68   O21   D    
C24   C28   A    
C16   C45   S    
C71   O25   D    
C3    O11   A    
C66   H7    S    
H24   O43   S    
C81   O38   D    
C54   C62   A    
C21   C30   A    
C5    O9    A    
C3    C46   S    
O15   Zn3   S    
C28   H26   S    
C72   O26   D    
O1    Zn1   S    
C61   C81   S    
H18   O32   S    
C41   C74   S    
C37   C50   A    
C53   C63   A    
C8    O8    A    
C48   C61   A    
C15   C21   A    
C35   C68   S    
C26   H1    S    
C33   C47   A    
C20   H4    S    
C75   H16   S    
C68   H8    S    
O46   Zn6   S    
C48   C67   S    
C12   C38   A    
C41   C54   A    
C10   O6    A    
C1    C39   A    
C40   C53   A    
C82   O40   D    
C74   O28   D    
C12   C13   S    
C25   H12   S    
O13   Zn5   S    
H22   O41   S    
C41   C45   A    
C43   C76   S    
C47   C78   S    
C77   O32   S    
C7    C57   S    
C65   O19   D    
C9    O3    A    
C32   C65   S    
