data_mof_unit_38354.cif
_audit_creation_date              2012-12-11T17:19:15-0500
_audit_creation_method            fapswitch 2.2
_symmetry_space_group_name_H-M    P1
_symmetry_Int_Tables_number       1
_space_group_crystal_system       triclinic
_cell_length_a                    15.009318
_cell_length_b                    7.270441
_cell_length_c                    13.170357
_cell_angle_alpha                 90.000145
_cell_angle_beta                  100.294296
_cell_angle_gamma                 89.999951
_cell_volume                      1414.07183428

loop_
_atom_site_label
_atom_site_type_symbol
_atom_type_description
_atom_site_fract_x
_atom_site_fract_y
_atom_site_fract_z
_atom_type_partial_charge
O1    O     O_R   0.648180 0.355050 0.151550 -0.531492
O2    O     O_R   0.351820 0.644950 0.848450 -0.531496
O3    O     O_R   0.851820 0.855050 0.348450 -0.531496
O4    O     O_R   0.148180 0.144950 0.651550 -0.531493
O5    O     O_R   0.835240 0.681980 0.154280 -0.535576
O6    O     O_R   0.164760 0.318020 0.845720 -0.535577
O7    O     O_R   0.664760 0.181980 0.345720 -0.535578
O8    O     O_R   0.335240 0.818020 0.654280 -0.535576
H1    H     H_    0.639835 0.061428 0.853775 0.138199
H2    H     H_    0.360163 0.938541 0.146228 0.138202
H3    H     H_    0.860162 0.561478 0.646230 0.138202
H4    H     H_    0.139836 0.438579 0.353777 0.138199
C1    C     C_R   0.859304 0.515371 0.127776 0.706039
C2    C     C_R   0.140695 0.484629 0.872224 0.706036
C3    C     C_R   0.640695 0.015371 0.372223 0.706036
C4    C     C_R   0.359305 0.984629 0.627776 0.706036
O9    O     O_R   0.647870 0.684600 0.139630 -0.539800
O10   O     O_R   0.352130 0.315400 0.860370 -0.539799
O11   O     O_R   0.852130 0.184600 0.360370 -0.539799
O12   O     O_R   0.147870 0.815400 0.639630 -0.539801
O13   O     O_R   0.663110 0.857440 0.333700 -0.537446
O14   O     O_R   0.336890 0.142560 0.666300 -0.537446
O15   O     O_R   0.836890 0.357440 0.166300 -0.537447
O16   O     O_R   0.163110 0.642560 0.833700 -0.537447
C5    C     C_R   0.613929 0.516292 0.114802 0.726119
C6    C     C_R   0.386070 0.483708 0.885198 0.726123
C7    C     C_R   0.886070 0.016292 0.385198 0.726123
C8    C     C_R   0.113929 0.983708 0.614802 0.726120
H5    H     H_    0.489850 0.033023 0.765406 0.137759
H6    H     H_    0.510150 0.966952 0.234595 0.137762
H7    H     H_    0.010150 0.533060 0.734595 0.137764
H8    H     H_    0.989850 0.466980 0.265407 0.137760
O17   O     O_3   0.755220 0.522230 0.313690 -0.377386
O18   O     O_3   0.244780 0.477770 0.686310 -0.377386
O19   O     O_3   0.744780 0.022230 0.186310 -0.377386
O20   O     O_3   0.255220 0.977770 0.813690 -0.377386
V1    V     V_3+5 0.749030 0.796100 0.238190 1.399664
V2    V     V_3+5 0.250970 0.203900 0.761810 1.399661
V3    V     V_3+5 0.750970 0.296100 0.261810 1.399662
V4    V     V_3+5 0.249030 0.703900 0.738190 1.399662
C9    C     C_1   0.966492 0.005603 0.466149 -0.181514
C10   C     C_1   0.033508 0.994397 0.533852 -0.181515
C11   C     C_1   0.533508 0.505603 0.033851 -0.181514
C12   C     C_1   0.466492 0.494397 0.966149 -0.181513
C13   C     C_R   0.541501 0.029402 0.717852 -0.199984
C14   C     C_R   0.458498 0.970583 0.282149 -0.199990
C15   C     C_R   0.958499 0.529425 0.782150 -0.199990
C16   C     C_R   0.041502 0.470601 0.217853 -0.199985
C17   C     C_R   0.628971 0.045297 0.770646 -0.199707
C18   C     C_R   0.371029 0.954686 0.229356 -0.199708
C19   C     C_R   0.871028 0.545326 0.729357 -0.199705
C20   C     C_R   0.128971 0.454709 0.270647 -0.199705
C21   C     C_R   0.701631 0.035810 0.719114 0.226053
C22   C     C_R   0.298369 0.964191 0.280889 0.226043
C23   C     C_R   0.798369 0.535816 0.780891 0.226042
C24   C     C_R   0.201631 0.464197 0.219115 0.226049
C25   C     C_R   0.685714 0.012287 0.610004 0.140928
C26   C     C_R   0.314287 0.987735 0.389997 0.140935
C27   C     C_R   0.814287 0.512260 0.889997 0.140935
C28   C     C_R   0.185715 0.487718 0.110005 0.140929
C29   C     C_R   0.593835 0.010532 0.551899 0.009795
C30   C     C_R   0.406165 0.989476 0.448101 0.009798
C31   C     C_R   0.906166 0.510522 0.948102 0.009799
C32   C     C_R   0.093836 0.489470 0.051900 0.009796
C33   C     C_R   0.521146 0.012005 0.609037 0.038338
C34   C     C_R   0.478854 0.987993 0.390964 0.038335
C35   C     C_R   0.978855 0.512009 0.890965 0.038335
C36   C     C_R   0.021146 0.487997 0.109038 0.038336
C37   C     C_R   0.571137 0.003849 0.440790 -0.133329
C38   C     C_R   0.428863 0.996154 0.559210 -0.133332
C39   C     C_R   0.928863 0.503845 0.059211 -0.133332
C40   C     C_R   0.071138 0.496153 0.940791 -0.133329
C41   C     C_3   0.204528 0.949270 0.216252 -0.764444
H9    H     H_    0.206449 0.913860 0.134610 0.205959
H10   H     H_    0.165388 0.840114 0.247322 0.222578
H11   H     H_    0.168285 0.082021 0.215947 0.218312
C42   C     C_3   0.795471 0.050727 0.783753 -0.764444
H12   H     H_    0.793548 0.086092 0.865400 0.205957
H13   H     H_    0.831721 0.917987 0.784038 0.218315
H14   H     H_    0.834606 0.159911 0.752700 0.222576
C43   C     C_3   0.295471 0.449280 0.283754 -0.764436
H15   H     H_    0.293549 0.413922 0.365403 0.205955
H16   H     H_    0.334605 0.340091 0.252702 0.222577
H17   H     H_    0.331723 0.582019 0.284035 0.218313
C44   C     C_3   0.704528 0.550746 0.716256 -0.764443
H18   H     H_    0.706449 0.586178 0.634617 0.205961
H19   H     H_    0.668286 0.417991 0.715941 0.218311
H20   H     H_    0.665387 0.659890 0.747335 0.222578
C45   C     C_3   0.767064 0.983962 0.559342 -0.789746
H21   H     H_    0.776512 0.109063 0.514890 0.207064
H22   H     H_    0.831610 0.961742 0.613049 0.208762
H23   H     H_    0.758376 0.857406 0.511841 0.204860
C46   C     C_3   0.232939 0.016103 0.440656 -0.789745
H24   H     H_    0.223474 0.891007 0.485104 0.207046
H25   H     H_    0.241642 0.142652 0.488162 0.204873
H26   H     H_    0.168400 0.038364 0.386947 0.208769
C47   C     C_3   0.732941 0.483876 0.940656 -0.789749
H27   H     H_    0.723470 0.608971 0.985102 0.207044
H28   H     H_    0.668403 0.461604 0.886945 0.208770
H29   H     H_    0.741647 0.357329 0.988163 0.204876
C48   C     C_3   0.267064 0.516042 0.059343 -0.789748
H30   H     H_    0.276513 0.390940 0.014892 0.207063
H31   H     H_    0.258375 0.642595 0.011840 0.204861
H32   H     H_    0.331608 0.538267 0.113049 0.208763

loop_
_geom_bond_atom_site_label_1
_geom_bond_atom_site_label_2
_ccdc_geom_bond_type
C26   C30   A    
C46   H24   S    
O5    V1    S    
C41   H10   S    
C41   H9    S    
O10   C6    A    
C5    C11   S    
C43   H15   S    
C6    C12   S    
C24   C43   S    
C42   H12   S    
C30   C38   A    
C18   C22   A    
C25   C45   S    
O18   V4    S    
C32   C36   A    
O19   V1    S    
C26   C46   S    
C14   C34   A    
C16   C20   A    
C23   C27   A    
O12   V4    S    
C17   C21   A    
C42   H14   S    
C34   C37   A    
C33   C38   A    
O14   V2    S    
C1    O15   A    
C35   C40   A    
C9    C10   T    
C2    O16   A    
C47   H28   S    
O17   V3    S    
O6    V2    S    
C45   H22   S    
O11   C7    A    
O5    C1    A    
O8    C4    A    
O7    C3    A    
C48   H31   S    
H7    C15   S    
O1    C5    A    
H8    C16   S    
C15   C35   A    
C43   H16   S    
C47   H27   S    
O3    C7    A    
C42   H13   S    
C3    C37   S    
C31   C35   A    
C30   C34   A    
C44   H19   S    
C48   H30   S    
H1    C17   S    
C21   C25   A    
C15   C19   A    
C1    C39   S    
C44   H18   S    
C24   C28   A    
H5    C13   S    
C23   C44   S    
C21   C42   S    
C11   C12   T    
O2    V4    S    
O6    C2    A    
C22   C41   S    
C7    C9    S    
C13   C17   A    
C4    C38   S    
O2    C6    A    
O9    V1    S    
C16   C36   A    
C45   H23   S    
O11   V3    S    
O4    V2    S    
C46   H26   S    
C13   C33   A    
C27   C47   S    
C41   H11   S    
C28   C48   S    
H2    C18   S    
C43   H17   S    
C22   C26   A    
C44   H20   S    
C29   C37   A    
C4    O14   A    
C47   H29   S    
C2    C40   S    
H6    C14   S    
C31   C39   A    
C25   C29   A    
C48   H32   S    
O12   C8    A    
C14   C18   A    
C27   C31   A    
C28   C32   A    
O9    C5    A    
O20   V2    S    
H4    C20   S    
C36   C39   A    
O15   V3    S    
C8    C10   S    
O16   V4    S    
C19   C23   A    
C32   C40   A    
O10   V2    S    
H3    C19   S    
O1    V3    S    
C29   C33   A    
C3    O13   A    
O13   V1    S    
O3    V1    S    
C46   H25   S    
O4    C8    A    
O7    V3    S    
O8    V4    S    
C45   H21   S    
C20   C24   A    
