data_mof_unit_52051.cif
_audit_creation_date              2013-03-05T16:12:15-0500
_audit_creation_method            fapswitch 2.2
_symmetry_space_group_name_H-M    P1
_symmetry_Int_Tables_number       1
_space_group_crystal_system       triclinic
_cell_length_a                    10.931885
_cell_length_b                    9.616822
_cell_length_c                    27.600764
_cell_angle_alpha                 91.281003
_cell_angle_beta                  87.90418
_cell_angle_gamma                 89.369718
_cell_volume                      2898.79954551

loop_
_atom_site_label
_atom_site_type_symbol
_atom_site_description
_atom_site_fract_x
_atom_site_fract_y
_atom_site_fract_z
_atom_type_partial_charge
O1    O     O_R   0.317570 0.620260 0.500030 -0.620877
O2    O     O_R   0.317570 0.379740 0.500030 -0.615958
C1    C     C_R   0.261615 0.500957 0.502757 0.774330
O3    O     O_R   0.499900 0.620250 0.430280 -0.548019
O4    O     O_R   0.499900 0.379750 0.430280 -0.592335
C2    C     C_R   0.490991 0.499702 0.407767 0.883166
Cu1   Cu    Cu3+1 0.499860 0.642410 0.500020 1.039501
Cu2   Cu    Cu3+1 0.499860 0.357590 0.500020 1.025485
O5    O     O_R   0.682190 0.620260 0.500010 -0.534059
O6    O     O_R   0.682190 0.379740 0.500010 -0.524278
O7    O     O_R   0.499860 0.620280 0.569750 -0.538902
O8    O     O_R   0.499860 0.379720 0.569750 -0.546308
C3    C     C_R   0.741092 0.500039 0.500490 0.918308
C4    C     C_R   0.497087 0.500762 0.592365 0.867580
C5    C     C_R   0.296521 0.582737 0.182893 0.587208
O9    O     O_2   0.189511 0.584034 0.208740 -0.459101
N1    N     N_R   0.403151 0.558687 0.206095 -0.472552
C6    C     C_R   0.513040 0.551180 0.180689 0.550762
C7    C     C_R   0.460998 0.411654 0.273006 -0.150291
C8    C     C_R   0.496776 0.401778 0.320828 -0.100384
C9    C     C_R   0.386784 0.616931 0.340628 -0.169012
C10   C     C_R   0.361771 0.632726 0.291688 -0.040447
C11   C     C_R   0.402245 0.531698 0.257326 0.323596
C12   C     C_R   0.407988 0.563674 0.105154 -0.064435
C13   C     C_R   0.298357 0.597781 0.131759 -0.041376
C14   C     C_R   0.195869 0.642008 0.105897 -0.032559
C15   C     C_R   0.516730 0.545435 0.130084 -0.024296
C16   C     C_R   0.458893 0.504253 0.355782 -0.043644
H1    H     H_    0.354021 0.696602 0.366436 0.163908
H2    H     H_    0.315666 0.726119 0.280385 0.175759
C17   C     C_R   0.481097 0.499815 0.645597 0.002793
C18   C     C_R   0.299616 0.545385 0.977301 -0.063266
C19   C     C_R   0.520836 0.487483 0.977220 0.056323
C20   C     C_R   0.412012 0.511136 0.951864 0.038346
C21   C     C_R   0.190937 0.550571 0.949930 0.318188
C22   C     C_R   0.200227 0.555524 0.899229 -0.166952
C23   C     C_R   0.311957 0.530886 0.874189 -0.089347
C24   C     C_R   0.415837 0.498807 0.900426 -0.045059
C25   C     C_R   0.523754 0.454329 0.875060 -0.024244
C26   C     C_R   0.525842 0.443366 0.824335 0.576127
N2    N     N_R   0.426983 0.485975 0.799139 -0.444075
C27   C     C_R   0.321201 0.530729 0.823136 0.642243
C28   C     C_R   0.365657 0.411788 0.715860 0.026511
C29   C     C_R   0.384133 0.422462 0.665527 -0.284451
C30   C     C_R   0.561035 0.568627 0.676873 -0.021591
C31   C     C_R   0.533927 0.571747 0.726712 -0.204129
C32   C     C_R   0.439326 0.491574 0.746949 0.326796
O10   O     O_2   0.225575 0.575120 0.797821 -0.520927
C33   C     C_R   0.300588 0.570612 0.028583 0.063872
C34   C     C_R   0.409486 0.547829 0.053753 0.076727
C35   C     C_R   0.520507 0.510565 0.028122 0.045888
C36   C     C_R   0.199557 0.630226 0.055178 -0.186896
H3    H     H_    0.325225 0.365619 0.641472 0.156472
H4    H     H_    0.117436 0.566347 0.879156 0.224057
H5    H     H_    0.124160 0.675971 0.036772 0.174139
O11   O     O_2   0.618669 0.545367 0.204524 -0.487462
C37   C     C_R   0.626965 0.519700 0.104234 -0.122127
H6    H     H_    0.493442 0.334328 0.246184 0.146149
H7    H     H_    0.712435 0.509630 0.122610 0.199389
C38   C     C_R   0.626340 0.437934 0.950675 -0.162464
C39   C     C_R   0.627312 0.421193 0.900678 -0.108519
O12   O     O_2   0.626654 0.391606 0.800250 -0.507380
C40   C     C_R   0.629098 0.502607 0.054292 -0.185981
H8    H     H_    0.709653 0.407812 0.967448 0.174690
H9    H     H_    0.710765 0.383855 0.882108 0.204663
H10   H     H_    0.592842 0.628638 0.750718 0.152716
H11   H     H_    0.718370 0.485476 0.037307 0.174644
C41   C     C_3   0.074093 0.645426 0.521755 -0.438447
C42   C     C_3   0.074039 0.391558 0.537812 -0.405510
H12   H     H_    0.121544 0.732034 0.503138 0.232497
H13   H     H_    0.102183 0.286303 0.524407 0.255299
H14   H     H_    0.091644 0.660451 0.561023 0.168008
H15   H     H_    0.114550 0.403539 0.574121 0.141920
C43   C     C_3   0.934880 0.653372 0.513642 0.098100
C44   C     C_3   0.933310 0.412455 0.543203 0.147737
H16   H     H_    0.889874 0.685115 0.549091 0.183868
H17   H     H_    0.921627 0.477723 0.576976 0.158616
H18   H     H_    0.115743 0.564237 0.428957 0.207150
H19   H     H_    0.138301 0.383879 0.434363 0.188511
C45   C     C_3   0.086257 0.474257 0.450943 -0.413844
C46   C     C_3   0.126150 0.502648 0.503420 -0.039883
C47   C     C_3   0.882717 0.501756 0.499833 -0.296254
C48   C     C_3   0.945058 0.450276 0.448564 0.499448
C49   C     C_3   0.576905 0.084493 0.540063 0.247423
C50   C     C_3   0.595537 0.922216 0.532279 0.220546
H20   H     H_    0.667531 0.131522 0.537329 0.197184
H21   H     H_    0.683399 0.908621 0.512455 0.178822
H22   H     H_    0.320924 0.141983 0.538381 0.234196
H23   H     H_    0.358504 0.896973 0.556539 0.246066
C51   C     C_3   0.374397 0.084742 0.509507 -0.269597
C52   C     C_3   0.379466 0.920359 0.518056 -0.288425
C53   C     C_3   0.538839 0.079154 0.452361 0.108857
C54   C     C_3   0.517498 0.915600 0.450657 0.149424
N3    N     N_3   0.500250 0.143650 0.501060 -0.277810
N4    N     N_3   0.500250 0.856350 0.501060 -0.266103
H24   H     H_    0.477943 0.123197 0.424887 0.106531
H25   H     H_    0.430163 0.900495 0.431393 0.086106
H26   H     H_    0.317188 0.103627 0.477624 0.155675
H27   H     H_    0.303890 0.872706 0.497977 0.172632
C55   C     C_2   0.680347 0.624159 0.660332 0.540605
H28   H     H_    0.726451 0.700157 0.682664 0.098136
O13   O     O_2   0.731746 0.580615 0.622999 -0.553776
N5    N     N_R   0.914295 0.768765 0.480955 0.194628
O14   O     O_R   0.966563 0.767863 0.437871 -0.258840
O15   O     O_R   0.895135 0.890368 0.501494 -0.252065
N6    N     N_R   0.867023 0.285548 0.555015 0.164455
O16   O     O_R   0.919401 0.163699 0.549980 -0.249784
O17   O     O_R   0.777048 0.299307 0.586840 -0.308949
N7    N     N_R   0.897194 0.529003 0.407595 0.181692
O18   O     O_R   0.964041 0.539122 0.367777 -0.255032
O19   O     O_R   0.780349 0.552036 0.404830 -0.263021
N8    N     N_R   0.926521 0.301006 0.437478 0.156113
O20   O     O_R   0.986016 0.206070 0.460056 -0.290222
O21   O     O_R   0.885364 0.264620 0.395510 -0.169224
N9    N     N_R   0.533212 0.121518 0.590574 0.185484
O22   O     O_R   0.614073 0.140974 0.623390 -0.227369
O23   O     O_R   0.420971 0.104345 0.606307 -0.375047
N10   N     N_R   0.612658 0.855704 0.578794 0.166954
O24   O     O_R   0.724096 0.846678 0.593493 -0.330019
O25   O     O_R   0.523551 0.851191 0.611328 -0.319234
N11   N     N_R   0.663657 0.113485 0.435358 0.180298
O26   O     O_R   0.689608 0.096028 0.389329 -0.246963
O27   O     O_R   0.754713 0.107458 0.463948 -0.253558
N12   N     N_R   0.609958 0.843854 0.419063 0.200628
O28   O     O_R   0.588544 0.825753 0.373253 -0.308269
O29   O     O_R   0.720555 0.824924 0.432620 -0.202257
C56   C     C_2   0.086846 0.712912 0.129002 0.501971
H29   H     H_    0.997825 0.699561 0.113437 0.069190
O30   O     O_2   0.096344 0.794076 0.163271 -0.465851
C57   C     C_2   0.273237 0.311406 0.733674 0.495985
H30   H     H_    0.205094 0.272472 0.709310 0.077978
O31   O     O_2   0.274529 0.266522 0.774666 -0.507635
N13   N     N_R   0.071171 0.530045 0.971652 0.101228
O32   O     O_R   0.976462 0.594337 0.955164 -0.370030
O33   O     O_R   0.053805 0.430437 0.002231 -0.350353
C58   C     C_2   0.593454 0.300663 0.329319 0.500014
H31   H     H_    0.588740 0.195833 0.314142 0.092502
O34   O     O_2   0.685284 0.338396 0.349230 -0.385734

loop_
_geom_bond_atom_site_label_1
_geom_bond_atom_site_label_2
_geom_bond_distance
_ccdc_geom_bond_type
C12   C13   1.413986 A    
N2    C27   1.371657 A    
C7    C11   1.399609 A    
C21   C22   1.401250 A    
C54   N12   1.466757 S    
C4    C17   1.473485 S    
C21   N13   1.437426 S    
N8    O21   1.300036 A    
Cu1   Cu2   2.739062 S    
C30   C31   1.396124 A    
Cu1   O7    1.941055 S    
N1    C11   1.443035 S    
C43   H16   1.113861 S    
C41   C46   1.547899 S    
C22   C23   1.396513 A    
C49   H20   1.094382 S    
C31   H10   1.084389 S    
O2    C1    1.309871 A    
N7    O19   1.299285 A    
O4    C2    1.326751 A    
Cu2   O6    2.006880 S    
O7    C4    1.320267 A    
H18   C45   1.111862 S    
C5    C13   1.421382 A    
N6    O16   1.300929 A    
C41   C43   1.547634 S    
N9    O22   1.300536 A    
C53   H24   1.114744 S    
C26   O12   1.350471 S    
C5    N1    1.370278 A    
C23   C27   1.409001 A    
C42   H13   1.106449 S    
O5    C3    1.317726 A    
N10   O24   1.300626 A    
C55   H28   1.085711 S    
C34   C35   1.420630 A    
C29   H3    1.084943 S    
C2    C16   1.491003 S    
C7    C8    1.395261 A    
N9    O23   1.300027 A    
C1    C46   1.480234 S    
C48   N7    1.482733 S    
C42   H15   1.114515 S    
Cu2   O8    1.931597 S    
H23   C52   1.106941 S    
C36   H5    1.078704 S    
C6    O11   1.350952 S    
C33   C36   1.412532 A    
C54   N4    1.521247 S    
O1    Cu1   2.006446 S    
C9    C10   1.399186 A    
C43   C47   1.614226 S    
C45   C48   1.566736 S    
C53   N3    1.511558 S    
N8    O20   1.298809 A    
C51   N3    1.505902 S    
C50   H21   1.092997 S    
C7    H6    1.084986 S    
C12   C34   1.422954 A    
C25   C39   1.394202 A    
C40   H11   1.076506 S    
C17   C29   1.404475 A    
C18   C21   1.432042 A    
Cu2   N3    2.058224 S    
C49   C50   1.580467 S    
O3    C2    1.309284 A    
C15   C37   1.394695 A    
C25   C26   1.400988 A    
C58   H31   1.085497 S    
C27   O10   1.349134 S    
C8    C16   1.411645 A    
O3    Cu1   1.931881 S    
C13   C14   1.416800 A    
C9    H1    1.083345 S    
C3    C47   1.547945 S    
O6    C3    1.330236 A    
C38   C39   1.385381 A    
O1    C1    1.308474 A    
C18   C20   1.424342 A    
C57   O31   1.220461 D    
C28   C29   1.402702 A    
C56   O30   1.220902 D    
C23   C24   1.404135 A    
C14   C36   1.401003 A    
C41   H14   1.114083 S    
C12   C15   1.406417 A    
C55   O13   1.219033 D    
N1    C6    1.369028 A    
N2    C32   1.444141 S    
C35   C40   1.414218 A    
N5    O15   1.299656 A    
C49   N3    1.505856 S    
C8    C58   1.457115 S    
C44   H17   1.114701 S    
N11   O26   1.298342 A    
C42   C46   1.544699 S    
C58   O34   1.216927 D    
C26   N2    1.370193 A    
C9    C16   1.412838 A    
O8    C4    1.308010 A    
C47   C48   1.613281 S    
C49   N9    1.491299 S    
N13   O32   1.301649 A    
C37   H7    1.083748 S    
C19   C35   1.417327 A    
C56   H29   1.085797 S    
C54   H25   1.118945 S    
N12   O29   1.290813 A    
Cu1   O5    2.002218 S    
C31   C32   1.403733 A    
C10   H2    1.082637 S    
C20   C24   1.421082 A    
C28   C57   1.483501 S    
O2    Cu2   2.001785 S    
C6    C15   1.395683 A    
C37   C40   1.383856 A    
H22   C51   1.104134 S    
C45   C46   1.547155 S    
C30   C55   1.475633 S    
O4    Cu2   1.941353 S    
C44   C47   1.600081 S    
C19   C38   1.415823 A    
Cu1   N4    2.057035 S    
C38   H8    1.076458 S    
C57   H30   1.085739 S    
N7    O18   1.303430 A    
C50   N4    1.511470 S    
C51   C52   1.604218 S    
C24   C25   1.407130 A    
N6    O17   1.298188 A    
C53   C54   1.592513 S    
C19   C20   1.420864 A    
C42   C44   1.550626 S    
C10   C11   1.399234 A    
C14   C56   1.482966 S    
C50   N10   1.464261 S    
N10   O25   1.302235 A    
C18   C33   1.431157 A    
N11   O27   1.294275 A    
C22   H4    1.083570 S    
C52   N4    1.505429 S    
H19   C45   1.113932 S    
C39   H9    1.083643 S    
C44   N6    1.463158 S    
C41   H12   1.111738 S    
C33   C34   1.417531 A    
C17   C30   1.410355 A    
N5    O14   1.300159 A    
N13   O33   1.301699 A    
C48   N8    1.478733 S    
C43   N5    1.466331 S    
C52   H27   1.109143 S    
C53   N11   1.470073 S    
C28   C32   1.417141 A    
C51   H26   1.115065 S    
C5    O9    1.347506 S    
N12   O28   1.302498 A    
