data_mof_unit_28210.cif
_audit_creation_date              2013-03-05T15:54:52-0500
_audit_creation_method            fapswitch 2.2
_symmetry_space_group_name_H-M    P1
_symmetry_Int_Tables_number       1
_space_group_crystal_system       triclinic
_cell_length_a                    12.462236
_cell_length_b                    13.304372
_cell_length_c                    14.320987
_cell_angle_alpha                 95.167977
_cell_angle_beta                  107.226671
_cell_angle_gamma                 117.639175
_cell_volume                      1935.17746829

loop_
_atom_site_label
_atom_site_type_symbol
_atom_site_description
_atom_site_fract_x
_atom_site_fract_y
_atom_site_fract_z
_atom_type_partial_charge
O1    O     O_R   0.545970 0.684450 0.528810 -0.572129
O2    O     O_R   0.687130 0.639470 0.490120 -0.551906
C1    C     C_R   0.650434 0.714337 0.508891 0.834806
O3    O     O_R   0.519670 0.535100 0.660030 -0.614405
O4    O     O_R   0.660830 0.490120 0.621340 -0.549729
C2    C     C_R   0.617331 0.516500 0.686544 0.853749
Cu1   Cu    Cu3+1 0.416420 0.526630 0.522910 0.999814
Cu2   Cu    Cu3+1 0.583580 0.473370 0.477090 1.049939
O5    O     O_R   0.312870 0.360530 0.509880 -0.592966
O6    O     O_R   0.454030 0.315550 0.471190 -0.493319
O7    O     O_R   0.339170 0.509880 0.378660 -0.539066
O8    O     O_R   0.480330 0.464900 0.339970 -0.607618
C3    C     C_R   0.347554 0.284438 0.488518 0.845358
C4    C     C_R   0.382994 0.485235 0.313615 0.831314
C5    C     C_R   0.693487 0.540990 0.795093 -0.073928
C6    C     C_R   0.306044 0.466703 0.206247 -0.135323
C7    C     C_R   0.829714 0.693836 0.953021 -0.160975
C8    C     C_R   0.723340 0.642717 0.860992 -0.160987
C9    C     C_R   0.758050 0.479207 0.828376 -0.065901
C10   C     C_R   0.860644 0.526282 0.927007 0.015188
C11   C     C_R   0.903534 0.640649 0.982824 0.144901
C12   C     C_R   0.929663 0.469594 0.969217 0.063767
C13   C     C_R   0.055222 0.536695 0.050730 0.069374
C14   C     C_R   0.104236 0.657294 0.090140 -0.117005
C15   C     C_R   0.025134 0.705016 0.063234 -0.212389
C16   C     C_R   0.876444 0.347682 0.934258 -0.136149
C17   C     C_R   0.955294 0.299742 0.955634 -0.164508
C18   C     C_R   0.082230 0.366511 0.028368 0.120923
C19   C     C_R   0.127998 0.480741 0.086749 -0.013075
C20   C     C_R   0.159031 0.315360 0.048795 -0.185959
C21   C     C_R   0.271976 0.367263 0.135474 -0.220522
C22   C     C_R   0.238605 0.528268 0.180604 0.274489
H1    H     H_    0.063549 0.796035 0.100689 0.158755
H2    H     H_    0.321277 0.319825 0.152896 0.204340
H3    H     H_    0.914294 0.207866 0.919060 0.139799
H4    H     H_    0.859422 0.779092 0.997942 0.137075
H5    H     H_    0.674268 0.690433 0.836344 0.143076
H6    H     H_    0.204293 0.717826 0.140880 0.209811
H7    H     H_    0.773821 0.287538 0.889110 0.156801
H8    H     H_    0.126821 0.230530 0.001383 0.154455
C23   C     C_R   0.140979 0.953626 0.379266 -0.252779
H9    H     H_    0.908250 0.756661 0.300478 0.152965
H10   H     H_    0.137281 0.882577 0.332207 0.191980
C24   C     C_R   0.256100 0.158137 0.475181 -0.158205
C25   C     C_R   0.734660 0.924609 0.580806 -0.141247
C26   C     C_R   0.829192 0.042776 0.604300 -0.120451
C27   C     C_R   0.929349 0.076820 0.568074 -0.132954
C28   C     C_R   0.932345 0.992860 0.502103 0.108866
C29   C     C_R   0.825323 0.875026 0.467600 0.114263
C30   C     C_R   0.039059 0.020358 0.471245 0.088662
C31   C     C_R   0.032027 0.932268 0.401990 0.096381
C32   C     C_R   0.917065 0.822596 0.357445 -0.166111
C33   C     C_R   0.813611 0.795138 0.388106 -0.127036
C34   C     C_R   0.153338 0.132042 0.507969 -0.290241
C35   C     C_R   0.256167 0.064339 0.419193 0.348480
C36   C     C_R   0.734606 0.839269 0.515555 -0.056312
H11   H     H_    0.163214 0.202643 0.559549 0.189463
H12   H     H_    0.664232 0.899693 0.616744 0.159602
H13   H     H_    0.001950 0.169395 0.592863 0.164346
H14   H     H_    0.828437 0.107910 0.654819 0.165553
H15   H     H_    0.725691 0.709555 0.350550 0.155440
C37   C     C_R   0.245030 0.629642 0.694754 -0.258502
H16   H     H_    0.434927 0.666205 0.704909 0.121248
H17   H     H_    0.068984 0.646209 0.745047 0.178406
H18   H     H_    0.281683 0.678405 0.772960 0.146793
N1    N     N_R   0.290690 0.566960 0.557640 -0.190965
C38   C     C_R   0.660139 0.354740 0.350214 0.191587
C39   C     C_R   0.735243 0.316973 0.321248 -0.275184
C40   C     C_R   0.864041 0.358772 0.381389 0.005412
C41   C     C_R   0.925256 0.449537 0.471959 -0.095639
C42   C     C_R   0.843605 0.483669 0.504422 0.144489
C43   C     C_R   0.064725 0.509407 0.531415 -0.020443
C44   C     C_R   0.111558 0.572796 0.632773 0.085014
C45   C     C_R   0.027808 0.589102 0.669244 -0.206462
C46   C     C_R   0.907962 0.567703 0.601660 0.386169
C47   C     C_R   0.161190 0.512735 0.494760 0.152705
C48   C     C_R   0.332890 0.625447 0.655674 0.085106
N2    N     N_R   0.709100 0.433710 0.442970 -0.237209
H19   H     H_    0.135763 0.473833 0.416658 0.155555
H20   H     H_    0.689761 0.249243 0.250454 0.190936
N3    N     N_R   0.371010 0.076633 0.405437 0.167820
O9    O     O_R   0.484373 0.135249 0.480655 -0.335359
O10   O     O_R   0.358599 0.008862 0.326576 -0.339031
N4    N     N_R   0.270676 0.626598 0.256895 0.103637
O11   O     O_R   0.391091 0.714461 0.300569 -0.361473
O12   O     O_R   0.183352 0.621712 0.291547 -0.364897
C49   C     C_2   0.528202 0.304278 0.272028 0.882348
O13   O     O_2   0.517638 0.316018 0.186580 -0.630920
O14   O     O_R   0.417295 0.231307 0.290201 -0.710652
H21   H     H_    0.334719 0.185380 0.226444 0.309135
C50   C     C_2   0.922859 0.294125 0.349709 0.823549
O15   O     O_2   0.909088 0.270305 0.260800 -0.584741
O16   O     O_R   0.990774 0.257472 0.420435 -0.778479
H22   H     H_    0.025338 0.214523 0.388131 0.334767
N5    N     N_R   0.892014 0.666211 0.617936 0.133283
O17   O     O_R   0.885733 0.699577 0.703432 -0.400456
O18   O     O_R   0.944156 0.747417 0.574299 -0.373694
C51   C     C_2   0.726454 0.374730 0.753982 0.818902
O19   O     O_2   0.811732 0.373476 0.729090 -0.590716
O20   O     O_R   0.598561 0.277766 0.712980 -0.760594
H23   H     H_    0.591323 0.208313 0.670253 0.368019

loop_
_geom_bond_atom_site_label_1
_geom_bond_atom_site_label_2
_geom_bond_distance
_ccdc_geom_bond_type
C39   H20   1.087334 S    
C5    C8    1.398424 A    
C49   O13   1.223629 D    
O16   H22   1.012341 S    
C44   C45   1.386275 A    
C37   C48   1.388971 A    
N5    O17   1.301307 A    
C47   H19   1.073754 S    
C43   C47   1.432232 A    
N3    O9    1.299801 A    
C46   N5    1.423213 S    
Cu1   Cu2   2.714372 S    
C25   C26   1.387172 A    
C6    C21   1.392914 A    
Cu1   O7    1.945269 S    
C16   C17   1.380074 A    
C30   C34   1.401755 A    
C13   C19   1.435740 A    
C18   C19   1.420709 A    
C8    H5    1.083657 S    
N4    O12   1.301850 A    
C19   C22   1.430829 A    
C20   C21   1.381247 A    
O7    C4    1.298434 A    
C16   H7    1.077730 S    
O5    C3    1.316742 A    
C23   C35   1.399123 A    
C2    C5    1.473576 S    
C33   H15   1.081379 S    
C9    C10   1.431813 A    
C25   C36   1.403604 A    
C39   C40   1.376281 A    
C14   H6    1.075932 S    
C13   C14   1.410458 A    
C37   C44   1.401435 A    
C41   C42   1.458989 A    
C7    H4    1.084141 S    
C35   N3    1.438579 S    
C28   C30   1.422512 A    
Cu2   N2    2.033754 S    
C23   H10   1.084550 S    
C38   N2    1.383619 A    
O3    Cu1   1.963023 S    
N3    O10   1.302327 A    
C9    C51   1.482948 S    
C30   C31   1.417300 A    
C22   N4    1.436530 S    
C25   H12   1.083261 S    
C45   C46   1.395762 A    
C31   C32   1.392843 A    
N4    O11   1.301691 A    
O3    C2    1.307406 A    
C50   O15   1.224132 D    
C17   H3    1.084547 S    
C7    C11   1.398227 A    
C38   C39   1.389010 A    
O1    C1    1.301704 A    
C5    C9    1.416782 A    
C50   O16   1.394357 S    
C1    C36   1.471954 S    
C27   C28   1.418182 A    
Cu2   O8    1.963023 S    
N1    C47   1.370348 A    
C7    C8    1.387107 A    
C21   H2    1.065561 S    
C20   H8    1.084485 S    
C14   C15   1.386788 A    
C28   C29   1.418052 A    
C10   C12   1.431830 A    
C51   O20   1.396733 S    
C49   O14   1.390748 S    
C4    C6    1.477715 S    
C32   C33   1.384087 A    
H16   C48   1.080970 S    
Cu1   O5    1.928939 S    
N1    C48   1.356209 A    
C11   C15   1.393044 A    
C26   C27   1.390535 A    
C37   H18   1.084004 S    
C26   H14   1.083100 S    
O1    Cu1   1.940226 S    
O2    Cu2   1.928940 S    
O8    C4    1.318626 A    
C43   C44   1.407073 A    
O6    C3    1.302915 A    
O4    Cu2   1.945269 S    
N5    O18   1.300309 A    
C6    C22   1.422037 A    
C29   C36   1.412715 A    
C38   C49   1.468968 S    
C18   C20   1.392511 A    
O2    C1    1.311764 A    
Cu1   N1    2.045465 S    
C42   C46   1.434730 A    
C24   C35   1.421725 A    
O4    C2    1.306265 A    
C29   C33   1.409500 A    
O20   H23   1.012175 S    
C3    C24   1.481698 S    
C40   C41   1.414073 A    
C27   H13   1.076422 S    
C24   C34   1.397889 A    
C10   C11   1.418836 A    
Cu2   O6    1.940225 S    
C51   O19   1.223348 D    
C12   C16   1.407206 A    
H9    C32   1.084308 S    
C17   C18   1.389272 A    
H17   C45   1.085717 S    
C12   C13   1.429117 A    
C41   C43   1.448166 A    
O14   H21   1.012724 S    
C40   C50   1.481382 S    
C23   C31   1.396657 A    
C42   N2    1.418873 A    
C15   H1    1.084584 S    
C34   H11   1.075629 S    
