data_mof_unit_52687.cif
_audit_creation_date              2013-03-05T15:46:21-0500
_audit_creation_method            fapswitch 2.2
_symmetry_space_group_name_H-M    P1
_symmetry_Int_Tables_number       1
_space_group_crystal_system       triclinic
_cell_length_a                    10.271268
_cell_length_b                    10.615161
_cell_length_c                    10.661076
_cell_angle_alpha                 91.425251
_cell_angle_beta                  95.302136
_cell_angle_gamma                 81.494098
_cell_volume                      1144.61101112

loop_
_atom_site_label
_atom_site_type_symbol
_atom_site_description
_atom_site_fract_x
_atom_site_fract_y
_atom_site_fract_z
_atom_type_partial_charge
O1    O     O_R   0.568950 0.489660 0.307530 -0.631223
O2    O     O_R   0.348880 0.522640 0.340350 -0.641254
C1    C     C_R   0.444236 0.503370 0.266603 0.840562
O3    O     O_R   0.610060 0.300270 0.483590 -0.608473
O4    O     O_R   0.389990 0.333260 0.516410 -0.631503
C2    C     C_R   0.498989 0.261164 0.497306 0.868877
Zn1   Zn    Zn3+2 0.646940 0.477980 0.478090 0.941820
Zn2   Zn    Zn3+2 0.353060 0.522020 0.521910 0.940611
O5    O     O_R   0.651120 0.477360 0.659650 -0.607137
O6    O     O_R   0.431050 0.510340 0.692470 -0.592662
O7    O     O_R   0.610010 0.666740 0.483590 -0.601545
O8    O     O_R   0.389940 0.699730 0.516410 -0.611107
C3    C     C_R   0.555403 0.486391 0.732879 1.004421
C4    C     C_R   0.499963 0.739032 0.499300 0.965796
H1    H     H_    0.458248 0.130193 0.686489 0.177240
C5    C     C_R   0.528583 0.119858 0.264267 -0.185557
H2    H     H_    0.526405 0.221710 0.259227 0.126928
C6    C     C_R   0.543325 0.048491 0.153573 -0.114053
H3    H     H_    0.553238 0.095203 0.066544 0.156646
C7    C     C_R   0.544119 0.917340 0.154774 -0.101096
H4    H     H_    0.554610 0.862032 0.068633 0.183508
C8    C     C_R   0.530463 0.857255 0.266719 -0.185057
H5    H     H_    0.529988 0.755515 0.262856 0.145909
C9    C     C_R   0.515842 0.928272 0.380191 0.050018
C10   C     C_R   0.514652 0.060228 0.378507 0.103707
C11   C     C_R   0.496015 0.129192 0.491244 -0.145477
C12   C     C_R   0.473367 0.073008 0.601797 -0.287106
C13   C     C_R   0.476470 0.943362 0.605895 0.309820
C14   C     C_R   0.499384 0.871745 0.495278 -0.245478
H6    H     H_    0.402178 0.399904 0.880076 0.176223
H7    H     H_    0.603000 0.390887 0.109479 0.166227
C15   C     C_2   0.410882 0.489466 0.131901 0.012767
C16   C     C_2   0.505961 0.427960 0.064499 -0.210058
H8    H     H_    0.678783 0.483420 0.913435 0.155553
C17   C     C_2   0.585665 0.463137 0.866108 -0.326514
C18   C     C_2   0.492987 0.423861 0.928874 -0.167993
H9    H     H_    0.896708 0.551520 0.603062 0.171069
N1    N     N_2   0.157290 0.551390 0.551110 -0.087076
C19   C     C_2   0.072945 0.481289 0.495527 0.243233
H10   H     H_    0.867513 0.400489 0.368077 0.178227
N2    N     N_2   0.842740 0.448550 0.448960 -0.208407
C20   C     C_2   0.929744 0.498263 0.520994 -0.141561
C21   C     C_3   0.274129 0.547140 0.076358 -0.407637
C22   C     C_3   0.262761 0.692002 0.071666 -0.806270
H11   H     H_    0.281364 0.732473 0.167619 0.251657
H12   H     H_    0.335100 0.719768 0.010066 0.289377
H13   H     H_    0.161581 0.732719 0.033322 0.249811
H14   H     H_    0.248531 0.509772 0.981074 0.209850
H15   H     H_    0.198527 0.521210 0.135259 0.206472
C23   C     C_3   0.118831 0.373963 0.405006 -0.370924
C24   C     C_3   0.118451 0.242786 0.461185 -0.822170
H16   H     H_    0.176942 0.234391 0.554324 0.280598
H17   H     H_    0.016220 0.226244 0.473280 0.250857
H18   H     H_    0.163047 0.167591 0.397264 0.246367
H19   H     H_    0.058368 0.383175 0.313269 0.145862
H20   H     H_    0.215856 0.378493 0.374929 0.261198
C25   C     C_3   0.110306 0.670145 0.615057 -0.225191
C26   C     C_3   0.120019 0.651509 0.756693 -0.841825
H21   H     H_    0.066233 0.573065 0.780038 0.235134
H22   H     H_    0.225259 0.628903 0.793215 0.292807
H23   H     H_    0.076290 0.740691 0.802861 0.249121
H24   H     H_    0.172417 0.742818 0.595370 0.233125
H25   H     H_    0.008414 0.711891 0.579387 0.153375
N3    N     N_R   0.459423 0.885723 0.723061 0.199946
O9    O     O_R   0.379045 0.945307 0.799817 -0.427906
O10   O     O_R   0.536604 0.782848 0.761251 -0.442462

loop_
_geom_bond_atom_site_label_1
_geom_bond_atom_site_label_2
_geom_bond_distance
_ccdc_geom_bond_type
O4    Zn2   1.983843 S    
C21   C22   1.526569 S    
H7    C16   1.087783 S    
C9    C10   1.399526 A    
C25   H25   1.110813 S    
N1    C25   1.457697 S    
C23   H20   1.082715 S    
N2    C20   1.288157 D    
H1    C12   1.085643 S    
C17   C18   1.332952 D    
C22   H13   1.109664 S    
H6    C18   1.085903 S    
Zn2   O8    1.981542 S    
C24   H18   1.110768 S    
N3    O9    1.302265 A    
C16   C18   1.439891 S    
C26   H23   1.110000 S    
C23   C24   1.530111 S    
C11   C12   1.387669 A    
C25   H24   1.106585 S    
C5    C6    1.394318 A    
C15   C16   1.346879 D    
Zn1   O7    1.983844 S    
C13   C14   1.406354 A    
C25   C26   1.519980 S    
C2    C11   1.405501 S    
Zn2   N1    2.040309 S    
O3    Zn1   1.981542 S    
O4    C2    1.288999 A    
C13   N3    1.440644 S    
O3    C2    1.291957 A    
H10   N2    1.024129 S    
C10   C11   1.405140 A    
C15   C21   1.519325 S    
O8    C4    1.290644 A    
C3    C17   1.445033 S    
C19   C20   1.504184 S    
C6    C7    1.391382 A    
Zn1   N2    2.040433 S    
C7    C8    1.395020 A    
C1    C15   1.454273 S    
O7    C4    1.290954 A    
C8    C9    1.417397 A    
H9    C20   1.083405 S    
C4    C14   1.409605 S    
C26   H22   1.108050 S    
C24   H16   1.110475 S    
C5    C10   1.414864 A    
C19   C23   1.523791 S    
N1    C19   1.315030 D    
C7    H4    1.082786 S    
Zn2   O6    1.917317 S    
H8    C17   1.087212 S    
C21   H14   1.104453 S    
C12   C13   1.373546 A    
Zn1   O5    1.932283 S    
C6    H3    1.082761 S    
O5    C3    1.302108 A    
C9    C14   1.413859 A    
C21   H15   1.111319 S    
O2    C1    1.301663 A    
O1    C1    1.302750 A    
C26   H21   1.110109 S    
O1    Zn1   1.917316 S    
C8    H5    1.080473 S    
O2    Zn2   1.932283 S    
C22   H11   1.110776 S    
C23   H19   1.107382 S    
C22   H12   1.111223 S    
C5    H2    1.080672 S    
C24   H17   1.109388 S    
O6    C3    1.299741 A    
N3    O10   1.301205 A    
