data_mof_unit_42880.cif
_audit_creation_date              2012-12-10T17:51:29-0500
_audit_creation_method            fapswitch 2.2
_symmetry_space_group_name_H-M    P1
_symmetry_Int_Tables_number       1
_space_group_crystal_system       triclinic
_cell_length_a                    9.92932
_cell_length_b                    10.649672
_cell_length_c                    16.587409
_cell_angle_alpha                 93.500497
_cell_angle_beta                  85.70783
_cell_angle_gamma                 90.297837
_cell_volume                      1745.83592615

loop_
_atom_site_label
_atom_site_type_symbol
_atom_type_description
_atom_site_fract_x
_atom_site_fract_y
_atom_site_fract_z
_atom_type_partial_charge
C1    C     C_R   0.501273 0.737078 0.487819 0.953842
C2    C     C_R   0.360203 0.490375 0.791559 0.415865
C3    C     C_R   0.416864 0.418272 0.136704 -0.142585
C4    C     C_R   0.409619 0.456103 0.218203 -0.222069
C5    C     C_R   0.654347 0.455701 0.215365 -0.206102
C6    C     C_R   0.661540 0.417814 0.133366 -0.174516
C7    C     C_R   0.542923 0.396267 0.094072 0.195256
C8    C     C_2   0.450979 0.313986 0.968044 -0.210987
C9    C     C_2   0.552726 0.367007 0.006522 -0.209162
C10   C     C_R   0.528050 0.473571 0.258432 -0.039202
C11   C     C_R   0.257617 0.875774 0.438440 0.584326
C12   C     C_R   0.481646 0.495916 0.653291 0.893616
C13   C     C_R   0.132619 0.931363 0.461912 -0.210403
C14   C     C_R   0.125786 0.043817 0.509024 -0.249655
C15   C     C_R   0.244244 0.106169 0.527715 -0.131578
C16   C     C_R   0.372282 0.055874 0.499367 0.053000
C17   C     C_R   0.377574 0.931669 0.466942 -0.078022
C18   C     C_R   0.501648 0.867385 0.467916 -0.272447
C19   C     C_R   0.623947 0.934386 0.466925 0.523234
C20   C     C_R   0.619763 0.062170 0.483656 -0.299364
C21   C     C_R   0.495763 0.123708 0.501181 -0.179812
C22   C     C_R   0.858216 0.686535 0.604469 0.475868
C23   C     C_R   0.498513 0.259342 0.503772 0.886880
C24   C     C_R   0.933262 0.778073 0.646828 -0.410502
C25   C     C_R   0.073292 0.772595 0.644819 0.525508
C26   C     C_R   0.136396 0.674153 0.599477 -0.196452
C27   C     C_R   0.068805 0.587818 0.549264 0.027596
C28   C     C_R   0.924168 0.590286 0.550196 0.109441
C29   C     C_R   0.933842 0.415803 0.452960 -0.139913
C30   C     C_R   0.076681 0.415963 0.452944 -0.088274
C31   C     C_R   0.518249 0.496730 0.346264 0.835124
C32   C     C_R   0.470818 0.455862 0.735975 -0.247499
C33   C     C_R   0.562586 0.364466 0.754751 -0.245528
C34   C     C_R   0.547550 0.309146 0.828072 -0.209941
C35   C     C_R   0.440119 0.343590 0.884056 -0.029070
C36   C     C_R   0.342320 0.431385 0.864681 0.463940
H1    H     H_    0.645786 0.334296 0.712054 0.184415
H2    H     H_    0.759535 0.404785 0.100626 0.133535
H3    H     H_    0.040679 0.886436 0.444131 0.184033
H4    H     H_    0.028509 0.084319 0.529571 0.164522
H5    H     H_    0.233434 0.191416 0.566367 0.172657
H6    H     H_    0.714863 0.112706 0.482578 0.182930
H7    H     H_    0.884699 0.346854 0.414479 0.137927
H8    H     H_    0.879459 0.849570 0.685373 0.144498
H9    H     H_    0.310845 0.469801 0.249824 0.164125
H10   H     H_    0.240869 0.668070 0.606202 0.228418
H11   H     H_    0.134639 0.347017 0.414431 0.137826
H12   H     H_    0.747240 0.468632 0.245190 0.155415
H13   H     H_    0.638571 0.406103 0.971745 0.168204
H14   H     H_    0.323452 0.409384 0.107227 0.128306
H15   H     H_    0.365267 0.272483 0.001131 0.140753
H16   H     H_    0.623290 0.243098 0.842877 0.171539
N1    N     N_R   0.857140 0.501200 0.500750 -0.091671
N2    N     N_R   0.142740 0.501280 0.500770 -0.083122
O1    O     O_R   0.385310 0.683220 0.500000 -0.606286
O2    O     O_R   0.614640 0.683250 0.500010 -0.512435
O3    O     O_R   0.371780 0.500010 0.615800 -0.641017
O4    O     O_R   0.601110 0.500030 0.615800 -0.539205
O5    O     O_R   0.385360 0.316750 0.499990 -0.631266
O6    O     O_R   0.614690 0.316780 0.500000 -0.630131
O7    O     O_R   0.398890 0.499970 0.384200 -0.586860
O8    O     O_R   0.628220 0.499990 0.384200 -0.633210
Zn1   Zn    Zn3+2 0.346870 0.499980 0.499990 0.968986
Zn2   Zn    Zn3+2 0.653130 0.500020 0.500010 0.989395
O9    O     O_3   0.748623 0.876009 0.454942 -0.597314
C37   C     C_3   0.772699 0.840880 0.371713 -0.312824
H17   H     H_    0.779911 0.925268 0.335201 0.151847
H18   H     H_    0.693948 0.775365 0.349553 0.152983
H19   H     H_    0.870547 0.790428 0.362194 0.191793
O10   O     O_3   0.259403 0.768014 0.387252 -0.591248
C38   C     C_3   0.318639 0.796244 0.310521 -0.342064
H20   H     H_    0.429235 0.811449 0.312114 0.148350
H21   H     H_    0.270025 0.879176 0.286894 0.156325
H22   H     H_    0.303667 0.714747 0.267273 0.199532
O11   O     O_3   0.721927 0.689034 0.622028 -0.700874
H23   H     H_    0.692829 0.761955 0.659241 0.314303
O12   O     O_3   0.155379 0.853313 0.689428 -0.595384
C39   C     C_3   0.090904 0.964880 0.721834 -0.261719
H24   H     H_    0.019230 0.945143 0.774255 0.169262
H25   H     H_    0.040056 0.013636 0.675109 0.151910
H26   H     H_    0.168854 0.030088 0.744639 0.189050
O13   O     O_3   0.234149 0.469844 0.917633 -0.723061
H27   H     H_    0.220897 0.410826 0.961239 0.311524
O14   O     O_3   0.269478 0.583067 0.777712 -0.697768
H28   H     H_    0.314055 0.641029 0.739602 0.332681

loop_
_geom_bond_atom_site_label_1
_geom_bond_atom_site_label_2
_ccdc_geom_bond_type
C37   H18   S    
C16   C21   A    
C31   O7    A    
C2    O14   S    
C35   C36   A    
C27   N2    A    
O12   C39   S    
C23   O5    A    
C30   N2    A    
C26   C27   A    
C25   O12   S    
C1    O2    A    
C18   C19   A    
C3    C7    A    
C5    C6    A    
N1    Zn2   S    
C39   H25   S    
C37   H19   S    
N2    Zn1   S    
C15   C16   A    
C2    C32   A    
C34   C35   A    
O7    Zn1   S    
O8    Zn2   S    
C10   C31   S    
C19   C20   A    
C36   O13   S    
C16   C17   A    
O1    Zn1   S    
O2    Zn2   S    
O10   C38   S    
C12   O4    A    
C37   H17   S    
C22   C28   A    
C13   C14   A    
C29   H7    S    
C31   O8    A    
C22   O11   S    
C3    H14   S    
O3    Zn1   S    
C4    H9    S    
O4    Zn2   S    
C23   O6    A    
C5    H12   S    
C11   O10   S    
C30   H11   S    
C9    H13   S    
O14   H28   S    
C15   H5    S    
C38   H21   S    
C39   H24   S    
C8    C9    D    
C25   C26   A    
C33   H1    S    
C8    C35   S    
O11   H23   S    
C29   C30   A    
C6    H2    S    
C17   C18   A    
C1    C18   S    
C24   C25   A    
C8    H15   S    
C12   O3    A    
O13   H27   S    
C21   C23   S    
C24   H8    S    
C22   C24   A    
C4    C10   A    
C3    C4    A    
C2    C36   A    
C7    C9    S    
C11   C17   A    
O5    Zn1   S    
C38   H22   S    
C20   H6    S    
C28   N1    A    
C6    C7    A    
C34   H16   S    
O6    Zn2   S    
C32   C33   A    
C1    O1    A    
C38   H20   S    
C11   C13   A    
C39   H26   S    
C29   N1    A    
C33   C34   A    
C19   O9    S    
C13   H3    S    
C26   H10   S    
C14   H4    S    
C5    C10   A    
C20   C21   A    
O9    C37   S    
C27   C28   A    
C14   C15   A    
C12   C32   S    
