data_mof_unit_63809.cif
_audit_creation_date              2013-03-05T16:00:18-0500
_audit_creation_method            fapswitch 2.2
_symmetry_space_group_name_H-M    P1
_symmetry_Int_Tables_number       1
_space_group_crystal_system       triclinic
_cell_length_a                    7.184311
_cell_length_b                    26.390476
_cell_length_c                    28.091847
_cell_angle_alpha                 89.999707
_cell_angle_beta                  89.998662
_cell_angle_gamma                 90.000067
_cell_volume                      5326.1407863

loop_
_atom_site_label
_atom_site_type_symbol
_atom_site_description
_atom_site_fract_x
_atom_site_fract_y
_atom_site_fract_z
_atom_type_partial_charge
O1    O     O_R   0.600980 0.796780 0.202430 -0.557722
O2    O     O_R   0.399020 0.203220 0.797570 -0.556235
O3    O     O_R   0.399020 0.203220 0.702430 -0.557711
O4    O     O_R   0.600980 0.796780 0.297570 -0.556248
O5    O     O_R   0.100980 0.703220 0.297570 -0.557683
O6    O     O_R   0.899020 0.296780 0.702430 -0.556253
O7    O     O_R   0.899020 0.296780 0.797570 -0.557709
O8    O     O_R   0.100980 0.703220 0.202430 -0.556277
O9    O     O_R   0.271240 0.802920 0.297240 -0.596055
O10   O     O_R   0.728760 0.197080 0.702760 -0.585337
O11   O     O_R   0.728760 0.197080 0.797240 -0.596060
O12   O     O_R   0.271240 0.802920 0.202760 -0.585337
O13   O     O_R   0.771240 0.697080 0.202760 -0.596037
O14   O     O_R   0.228760 0.302920 0.797240 -0.585329
O15   O     O_R   0.228760 0.302920 0.702760 -0.596042
O16   O     O_R   0.771240 0.697080 0.297240 -0.585295
C1    C     C_R   0.440568 0.815260 0.313275 0.917955
C2    C     C_R   0.559102 0.183354 0.688364 0.933481
C3    C     C_R   0.559429 0.184739 0.813275 0.917960
C4    C     C_R   0.440900 0.816645 0.188364 0.933492
C5    C     C_R   0.940571 0.684739 0.186725 0.917982
C6    C     C_R   0.059099 0.316645 0.811636 0.933509
C7    C     C_R   0.059433 0.315261 0.686724 0.917952
C8    C     C_R   0.940899 0.683355 0.311637 0.933531
O17   O     O_3   0.434470 0.717290 0.250000 -0.266369
O18   O     O_3   0.565530 0.282710 0.750000 -0.266402
O19   O     O_3   0.934470 0.782710 0.250000 -0.266424
O20   O     O_3   0.065530 0.217290 0.750000 -0.266415
V1    V     V_3+5 0.159620 0.756070 0.250000 1.193196
V2    V     V_3+5 0.840380 0.243930 0.750000 1.193178
V3    V     V_3+5 0.659620 0.743930 0.250000 1.193241
V4    V     V_3+5 0.340380 0.256070 0.750000 1.193197
C9    C     C_R   0.117153 0.611018 0.350311 0.480701
C10   C     C_R   0.882565 0.362117 0.620678 0.456990
C11   C     C_R   0.882864 0.388992 0.850301 0.480471
C12   C     C_R   0.117476 0.637878 0.120689 0.456880
C13   C     C_R   0.617132 0.888994 0.149700 0.480441
C14   C     C_R   0.382523 0.137876 0.879309 0.456909
C15   C     C_R   0.382875 0.111004 0.649701 0.480422
C16   C     C_R   0.617458 0.862119 0.379314 0.456917
C17   C     C_R   0.146651 0.578387 0.389924 -0.240405
C18   C     C_R   0.872808 0.402076 0.586942 -0.208004
C19   C     C_R   0.853362 0.421612 0.889917 -0.240061
C20   C     C_R   0.127260 0.597917 0.086958 -0.207886
C21   C     C_R   0.646631 0.921613 0.110083 -0.240002
C22   C     C_R   0.372741 0.097914 0.913040 -0.207913
C23   C     C_R   0.353384 0.078386 0.610084 -0.239978
C24   C     C_R   0.627235 0.902080 0.413046 -0.207923
C25   C     C_R   0.004366 0.573819 0.424826 -0.033426
C26   C     C_R   0.032246 0.431825 0.577226 -0.034037
C27   C     C_R   0.995582 0.426167 0.924831 -0.033407
C28   C     C_R   0.967819 0.568173 0.077229 -0.033919
C29   C     C_R   0.504416 0.926166 0.075169 -0.033415
C30   C     C_R   0.532183 0.068171 0.922769 -0.033907
C31   C     C_R   0.495603 0.073832 0.575170 -0.033429
C32   C     C_R   0.467796 0.931826 0.422772 -0.033926
C33   C     C_R   0.840204 0.602149 0.420050 -0.122536
C34   C     C_R   0.193020 0.424345 0.604542 -0.132082
C35   C     C_R   0.159747 0.397837 0.920058 -0.122062
C36   C     C_R   0.807029 0.575655 0.104542 -0.132174
C37   C     C_R   0.340249 0.897837 0.079942 -0.122004
C38   C     C_R   0.692973 0.075654 0.895457 -0.132157
C39   C     C_R   0.659770 0.102160 0.579943 -0.122004
C40   C     C_R   0.307013 0.924346 0.395459 -0.132151
H1    H     H_    0.729734 0.598237 0.446050 0.161920
H2    H     H_    0.314325 0.447687 0.598536 0.176989
H3    H     H_    0.270189 0.401741 0.946064 0.162129
H4    H     H_    0.685731 0.552312 0.098536 0.177084
H5    H     H_    0.229806 0.901741 0.053936 0.162166
H6    H     H_    0.814272 0.052311 0.901462 0.177085
H7    H     H_    0.770216 0.098257 0.553936 0.162183
H8    H     H_    0.185715 0.947689 0.401464 0.177071
C41   C     C_R   0.817191 0.636360 0.382560 -0.191155
C42   C     C_R   0.200871 0.386386 0.639290 -0.182475
C43   C     C_R   0.182780 0.363632 0.882563 -0.191583
C44   C     C_R   0.799154 0.613615 0.139288 -0.182493
C45   C     C_R   0.317215 0.863632 0.117437 -0.191632
C46   C     C_R   0.700847 0.113614 0.860711 -0.182521
C47   C     C_R   0.682801 0.136364 0.617439 -0.191642
C48   C     C_R   0.299145 0.886386 0.360712 -0.182500
H9    H     H_    0.691729 0.659067 0.381188 0.157164
H10   H     H_    0.328303 0.382131 0.659497 0.181958
H11   H     H_    0.308231 0.340920 0.881195 0.157130
H12   H     H_    0.671709 0.617871 0.159491 0.181986
H13   H     H_    0.191765 0.840920 0.118806 0.157128
H14   H     H_    0.828293 0.117872 0.840508 0.181979
H15   H     H_    0.808253 0.159075 0.618808 0.157134
H16   H     H_    0.171705 0.882131 0.340508 0.181971
C49   C     C_R   0.956646 0.642484 0.348170 -0.290504
C50   C     C_R   0.047316 0.354634 0.648152 -0.296847
C51   C     C_R   0.043350 0.357517 0.848166 -0.290409
C52   C     C_R   0.952704 0.645366 0.148155 -0.296811
C53   C     C_R   0.456647 0.857518 0.151835 -0.290397
C54   C     C_R   0.547296 0.145365 0.851845 -0.296819
C55   C     C_R   0.543362 0.142480 0.651836 -0.290397
C56   C     C_R   0.452694 0.854634 0.351847 -0.296826
N1    N     N_R   0.948044 0.489441 0.458960 -0.061785
N2    N     N_R   0.104904 0.516220 0.542382 -0.046446
N3    N     N_R   0.052608 0.510481 0.959016 -0.061782
N4    N     N_R   0.894451 0.483849 0.042321 -0.046407
N5    N     N_R   0.447401 0.010481 0.040983 -0.061790
N6    N     N_R   0.605551 0.983847 0.957677 -0.046395
N7    N     N_R   0.552473 0.989504 0.540995 -0.061803
N8    N     N_R   0.394564 0.016164 0.457669 -0.046398
N9    N     N_R   0.956703 0.456089 0.494505 -0.064141
N10   N     N_R   0.095676 0.549734 0.506797 -0.037763
N11   N     N_R   0.044002 0.543836 0.994560 -0.064075
N12   N     N_R   0.903606 0.450332 0.006736 -0.037440
N13   N     N_R   0.456006 0.043835 0.005439 -0.064083
N14   N     N_R   0.596397 0.950330 0.993264 -0.037418
N15   N     N_R   0.543854 0.956149 0.505451 -0.064105
N16   N     N_R   0.403736 0.049681 0.493254 -0.037450
C57   C     C_R   0.034048 0.468777 0.537058 0.193084
C58   C     C_R   0.016220 0.536975 0.464506 0.217658
C59   C     C_R   0.966035 0.531218 0.037058 0.192682
C60   C     C_R   0.983703 0.463019 0.964503 0.216921
C61   C     C_R   0.533970 0.031216 0.962941 0.192667
C62   C     C_R   0.516303 0.963018 0.035496 0.216863
C63   C     C_R   0.466006 0.968781 0.462944 0.192723
C64   C     C_R   0.483711 0.036980 0.535497 0.216903
O21   O     O_3   0.250065 0.613773 0.314658 -0.594859
C65   C     C_3   0.188798 0.584444 0.275497 0.357813
H17   H     H_    0.059497 0.600465 0.259686 0.024868
H18   H     H_    0.161964 0.544471 0.286340 0.096468
C66   C     C_3   0.338541 0.584150 0.237177 -0.785836
H19   H     H_    0.470221 0.568437 0.251701 0.253467
H20   H     H_    0.292665 0.560437 0.206694 0.192074
H21   H     H_    0.363966 0.623204 0.224153 0.274433
O22   O     O_3   0.724847 0.333287 0.628907 -0.623051
C67   C     C_3   0.732337 0.288999 0.600578 0.343475
H22   H     H_    0.820682 0.259975 0.618210 0.070426
H23   H     H_    0.789008 0.296134 0.564187 0.098110
C68   C     C_3   0.536331 0.267795 0.595015 -0.850213
H24   H     H_    0.449208 0.293561 0.573229 0.277128
H25   H     H_    0.541706 0.230303 0.577180 0.198792
H26   H     H_    0.469550 0.263753 0.630332 0.253858
O23   O     O_3   0.749934 0.386247 0.814652 -0.595128
C69   C     C_3   0.811296 0.415529 0.775468 0.357978
H27   H     H_    0.940474 0.399446 0.759648 0.024829
H28   H     H_    0.838386 0.455496 0.786286 0.096705
C70   C     C_3   0.661480 0.415865 0.737167 -0.785917
H29   H     H_    0.529917 0.431643 0.751701 0.253454
H30   H     H_    0.707438 0.439541 0.706667 0.192095
H31   H     H_    0.635802 0.376815 0.724167 0.274394
O24   O     O_3   0.275192 0.666707 0.128922 -0.623094
C71   C     C_3   0.267742 0.710989 0.100583 0.343428
H32   H     H_    0.179392 0.740019 0.118206 0.070444
H33   H     H_    0.211099 0.703847 0.064192 0.098128
C72   C     C_3   0.463760 0.732187 0.095024 -0.850267
H34   H     H_    0.550888 0.706414 0.073246 0.277122
H35   H     H_    0.458411 0.769676 0.077182 0.198801
H36   H     H_    0.530513 0.736235 0.130342 0.253880
O25   O     O_3   0.750069 0.886250 0.185347 -0.595170
C73   C     C_3   0.688695 0.915521 0.224536 0.357971
H37   H     H_    0.559539 0.899427 0.240358 0.024833
H38   H     H_    0.661561 0.955489 0.213725 0.096743
C74   C     C_3   0.838523 0.915863 0.262834 -0.785893
H39   H     H_    0.970058 0.931659 0.248300 0.253444
H40   H     H_    0.792544 0.939526 0.293341 0.192118
H41   H     H_    0.864260 0.876811 0.275823 0.274401
O26   O     O_3   0.224805 0.166704 0.871076 -0.623071
C75   C     C_3   0.232251 0.210986 0.899415 0.343424
H42   H     H_    0.320601 0.240016 0.881793 0.070442
H43   H     H_    0.288890 0.203843 0.935807 0.098127
C76   C     C_3   0.036232 0.232183 0.904973 -0.850281
H44   H     H_    0.949102 0.206408 0.926750 0.277121
H45   H     H_    0.041577 0.269671 0.922816 0.198797
H46   H     H_    0.969482 0.236231 0.869654 0.253886
O27   O     O_3   0.249923 0.113750 0.685346 -0.595188
C77   C     C_3   0.311281 0.084481 0.724538 0.358005
H47   H     H_    0.440411 0.100583 0.740366 0.024840
H48   H     H_    0.338456 0.044516 0.713727 0.096722
C78   C     C_3   0.161414 0.084130 0.762828 -0.785871
H49   H     H_    0.029903 0.068329 0.748287 0.253447
H50   H     H_    0.207379 0.060468 0.793338 0.192122
H51   H     H_    0.135636 0.123180 0.775818 0.274385
O28   O     O_3   0.775173 0.833289 0.371082 -0.623062
C79   C     C_3   0.767703 0.789005 0.399418 0.343453
H52   H     H_    0.679357 0.759977 0.381793 0.070428
H53   H     H_    0.711046 0.796146 0.435810 0.098108
C80   C     C_3   0.963715 0.767805 0.404980 -0.850315
H54   H     H_    0.050837 0.793575 0.426762 0.277128
H55   H     H_    0.958352 0.730314 0.422818 0.198780
H56   H     H_    0.030486 0.763761 0.369663 0.253878
C81   C     C_2   0.326540 0.550080 0.394586 1.033761
O29   O     O_2   0.382911 0.536909 0.433743 -0.648848
O30   O     O_R   0.434345 0.539211 0.354416 -0.778738
H57   H     H_    0.553957 0.520719 0.362512 0.323367
C82   C     C_2   0.692021 0.414902 0.564149 1.047654
O31   O     O_2   0.642039 0.459154 0.561994 -0.651158
O32   O     O_R   0.580782 0.377020 0.544362 -0.803758
H58   H     H_    0.463162 0.390874 0.529256 0.323111
C83   C     C_2   0.673547 0.449941 0.894560 1.034102
O33   O     O_2   0.616640 0.462875 0.933737 -0.648917
O34   O     O_R   0.566445 0.461108 0.854341 -0.779032
H59   H     H_    0.446785 0.479585 0.862417 0.323406
C84   C     C_2   0.308087 0.585078 0.064195 1.047706
O35   O     O_2   0.358110 0.540827 0.062088 -0.651178
O36   O     O_R   0.419303 0.622947 0.044374 -0.803788
H60   H     H_    0.536944 0.609085 0.029284 0.323066
C85   C     C_2   0.826439 0.949942 0.105439 1.034152
O37   O     O_2   0.883417 0.962841 0.066259 -0.648929
O38   O     O_R   0.933448 0.961152 0.145664 -0.779067
H61   H     H_    0.053116 0.979626 0.137590 0.323414
C86   C     C_2   0.191915 0.085075 0.935804 1.047705
O39   O     O_2   0.141893 0.040824 0.937910 -0.651168
O40   O     O_R   0.080699 0.122943 0.955625 -0.803794
H62   H     H_    0.963060 0.109080 0.970716 0.323061
C87   C     C_2   0.173571 0.050061 0.605438 1.034168
O41   O     O_2   0.116584 0.037174 0.566256 -0.648936
O42   O     O_R   0.066569 0.038840 0.645663 -0.779080
H63   H     H_    0.946895 0.020371 0.637588 0.323417
C88   C     C_2   0.808052 0.914915 0.435815 1.047698
O43   O     O_2   0.858072 0.959166 0.437931 -0.651168
O44   O     O_R   0.919265 0.877043 0.455629 -0.803789
H64   H     H_    0.036901 0.890903 0.470723 0.323060

loop_
_geom_bond_atom_site_label_1
_geom_bond_atom_site_label_2
_geom_bond_distance
_ccdc_geom_bond_type
O17   V3    1.763725 S    
C22   C86   1.487078 S    
C4    C53   1.493070 S    
O18   V4    1.763725 S    
C74   H39   1.110601 S    
O12   V1    1.983118 S    
O19   V1    1.763727 S    
C40   C48   1.399826 A    
O27   C77   1.415325 S    
N7    C64   1.355623 A    
C10   C18   1.419534 A    
C24   C32   1.415266 A    
N12   C60   1.360406 A    
O38   H61   1.014028 S    
C19   C27   1.421418 A    
C8    C49   1.493109 S    
N14   C62   1.360388 A    
C47   H15   1.083065 S    
O24   C71   1.415026 S    
C81   O29   1.222626 D    
N13   C61   1.360082 A    
O15   V4    1.983144 S    
C39   C47   1.397034 A    
C78   H49   1.110613 S    
O16   V3    1.983142 S    
O11   C3    1.337489 A    
C76   H44   1.108486 S    
O12   C4    1.334325 A    
N10   C58   1.360405 A    
O8    V1    1.977016 S    
N9    C57   1.360095 A    
C16   O28   1.384273 S    
C16   C56   1.426758 A    
C71   H32   1.111252 S    
C72   H35   1.109731 S    
C81   O30   1.398388 S    
C77   H47   1.113076 S    
C84   O35   1.223286 D    
N5    N13   1.332537 A    
C71   C72   1.523320 S    
O1    V3    1.977008 S    
C25   C33   1.402830 A    
C12   C52   1.426755 A    
C38   H6    1.080445 S    
O3    C2    1.324258 A    
O2    V4    1.977006 S    
C85   O37   1.222643 D    
C41   H9    1.083067 S    
C82   O32   1.395393 S    
C28   C36   1.400735 A    
C35   H3    1.083489 S    
C21   C29   1.421393 A    
C29   C37   1.402827 A    
C34   H2    1.080472 S    
C14   O26   1.384273 S    
C10   O22   1.384275 S    
C37   C45   1.397019 A    
O20   V2    1.763727 S    
C83   O34   1.398383 S    
C31   C39   1.402827 A    
C66   H21   1.108815 S    
C6    C51   1.493071 S    
C32   C40   1.400732 A    
C48   C56   1.407525 A    
C11   C19   1.422855 A    
C73   H38   1.114785 S    
C43   C51   1.401158 A    
O4    V3    1.977002 S    
N8    C63   1.359807 A    
N1    N9    1.332534 A    
C46   H14   1.083074 S    
O15   C7    1.337490 A    
C25   C58   1.481624 S    
C23   C31   1.421391 A    
C45   H13   1.083067 S    
C20   C84   1.487080 S    
C74   H40   1.110650 S    
O7    V2    1.977015 S    
C48   H16   1.083073 S    
C9    O21   1.385707 S    
C2    C55   1.493085 S    
C85   O38   1.398384 S    
C14   C54   1.426754 A    
C76   H45   1.109729 S    
N4    C59   1.359811 A    
C42   C50   1.407539 A    
C42   H10   1.083072 S    
C17   C25   1.421514 A    
C38   C46   1.399816 A    
C79   H52   1.111251 S    
C71   H33   1.116361 S    
C31   C64   1.481639 S    
C88   O44   1.395399 S    
C44   H12   1.083073 S    
N4    N12   1.336429 A    
O13   C5    1.337491 A    
O40   H62   1.013817 S    
C26   C34   1.400712 A    
C13   O25   1.385724 S    
O11   V2    1.983116 S    
C73   C74   1.521921 S    
C80   H55   1.109730 S    
O14   V4    1.983126 S    
N3    C60   1.355616 A    
N16   C64   1.360392 A    
C29   C62   1.481624 S    
N2    C57   1.359805 A    
C30   C38   1.400731 A    
C80   H54   1.108486 S    
C36   C44   1.399822 A    
O32   H58   1.013818 S    
N8    N16   1.336441 A    
C67   H23   1.116362 S    
O44   H64   1.013818 S    
C10   C50   1.426776 A    
C47   C55   1.401169 A    
C9    C49   1.422292 A    
C68   H26   1.107152 S    
C75   C76   1.523317 S    
O10   V2    1.983151 S    
O42   H63   1.014019 S    
C46   C54   1.407522 A    
C88   O43   1.223284 D    
N11   C59   1.360097 A    
C22   C30   1.415268 A    
C87   O41   1.222656 D    
C73   H37   1.113070 S    
C7    C50   1.503780 S    
C13   C53   1.422304 A    
O3    V4    1.977004 S    
C1    C56   1.503771 S    
C84   O36   1.395397 S    
C3    C54   1.503753 S    
C15   C55   1.422314 A    
O21   C65   1.415296 S    
C39   H7    1.083483 S    
N6    C61   1.359811 A    
C69   H28   1.114792 S    
C18   C26   1.415244 A    
O4    C1    1.326889 A    
N15   C63   1.360093 A    
C21   C85   1.498227 S    
O6    V2    1.976994 S    
C44   C52   1.407522 A    
C83   O33   1.222635 D    
C74   H41   1.108819 S    
C23   C87   1.498212 S    
C68   H24   1.108484 S    
C32   C63   1.491558 S    
C72   H36   1.107153 S    
C67   C68   1.523324 S    
C27   C35   1.402825 A    
N5    C62   1.355621 A    
C65   H18   1.114796 S    
O5    V1    1.976992 S    
C35   C43   1.397023 A    
C17   C81   1.498498 S    
C34   C42   1.399824 A    
C15   C23   1.422840 A    
C75   H42   1.111251 S    
C28   C59   1.491566 S    
O9    C1    1.337493 A    
C16   C24   1.419514 A    
C86   O39   1.223284 D    
C24   C88   1.487090 S    
C87   O42   1.398381 S    
O1    C4    1.324253 A    
C80   H56   1.107152 S    
O2    C3    1.326885 A    
C33   C41   1.397007 A    
O13   V3    1.983127 S    
C33   H1    1.083506 S    
C69   C70   1.521927 S    
O8    C5    1.326886 A    
C20   C28   1.415270 A    
C79   H53   1.116363 S    
C65   H17   1.113089 S    
N1    C58   1.355644 A    
C70   H31   1.108822 S    
N7    N15   1.332535 A    
O9    V1    1.983150 S    
C76   H46   1.107151 S    
O7    C6    1.324252 A    
N3    N11   1.332531 A    
O23   C69   1.415316 S    
C27   C60   1.481630 S    
N2    N10   1.336407 A    
C19   C83   1.498266 S    
C26   C57   1.491458 S    
C37   H5    1.083490 S    
O14   C6    1.334330 A    
C65   C66   1.521905 S    
C70   H30   1.110646 S    
C67   H22   1.111250 S    
O22   C67   1.415026 S    
C9    C17   1.422949 A    
O30   H57   1.014069 S    
C15   O27   1.385726 S    
C75   H43   1.116360 S    
O26   C75   1.415025 S    
C72   H34   1.108487 S    
C11   O23   1.385721 S    
C18   C82   1.487130 S    
C43   H11   1.083064 S    
C78   H50   1.110654 S    
C66   H19   1.110596 S    
O5    C8    1.324254 A    
C77   H48   1.114791 S    
O10   C2    1.334331 A    
N6    N14   1.336443 A    
O6    C7    1.326895 A    
C45   C53   1.401164 A    
C78   H51   1.108832 S    
C40   H8    1.080451 S    
C82   O31   1.223288 D    
C14   C22   1.419507 A    
C79   C80   1.523320 S    
C12   C20   1.419509 A    
C69   H27   1.113077 S    
C41   C49   1.401131 A    
O34   H59   1.014040 S    
C12   O24   1.384274 S    
O36   H60   1.013818 S    
C36   H4    1.080446 S    
O16   C8    1.334341 A    
O28   C79   1.415027 S    
C30   C61   1.491564 S    
C66   H20   1.110654 S    
C68   H25   1.109727 S    
O25   C73   1.415320 S    
C70   H29   1.110598 S    
C86   O40   1.395399 S    
C13   C21   1.422847 A    
C77   C78   1.521942 S    
C5    C52   1.503759 S    
C11   C51   1.422303 A    
