data_mof_unit_32840.cif
_audit_creation_date              2012-12-10T18:35:22-0500
_audit_creation_method            fapswitch 2.2
_symmetry_space_group_name_H-M    P1
_symmetry_Int_Tables_number       1
_space_group_crystal_system       triclinic
_cell_length_a                    14.963406
_cell_length_b                    15.515864
_cell_length_c                    16.756074
_cell_angle_alpha                 92.199589
_cell_angle_beta                  100.382597
_cell_angle_gamma                 98.069534
_cell_volume                      3780.56581165

loop_
_atom_site_label
_atom_site_type_symbol
_atom_type_description
_atom_site_fract_x
_atom_site_fract_y
_atom_site_fract_z
_atom_type_partial_charge
C1    C     C_R   0.558249 0.662601 0.510590 0.876153
C2    C     C_R   0.441934 0.337336 0.486538 0.879563
C3    C     C_R   0.595507 0.755585 0.508860 -0.082358
C4    C     C_R   0.406650 0.243884 0.466756 -0.088664
C5    C     C_R   0.717190 0.880214 0.527758 -0.203046
C6    C     C_R   0.292908 0.121208 0.403963 -0.203208
C7    C     C_R   0.689991 0.790810 0.533158 0.191507
C8    C     C_R   0.314930 0.210323 0.428501 0.192158
C9    C     C_R   0.532397 0.810329 0.478956 -0.311045
C10   C     C_R   0.471754 0.187367 0.480402 -0.308263
C11   C     C_R   0.559193 0.899116 0.472476 0.090946
C12   C     C_R   0.452065 0.100502 0.450506 0.092392
C13   C     C_R   0.652690 0.934393 0.499509 0.127693
C14   C     C_R   0.360450 0.066518 0.414621 0.126036
C15   C     C_R   0.493865 0.954650 0.445647 0.081168
C16   C     C_R   0.520831 0.045790 0.459424 0.079086
C17   C     C_R   0.615544 0.079179 0.481607 -0.226762
C18   C     C_R   0.402399 0.922466 0.406867 -0.222726
C19   C     C_R   0.680488 0.023912 0.500128 -0.225693
C20   C     C_R   0.337198 0.978051 0.390596 -0.225018
C21   C     C_R   0.171331 0.643030 0.386181 0.115300
C22   C     C_R   0.827996 0.354892 0.611203 0.107632
C23   C     C_R   0.511709 0.499777 0.349482 0.857906
C24   C     C_R   0.490985 0.506778 0.650913 0.853871
C25   C     C_R   0.257659 0.617220 0.404685 -0.002376
C26   C     C_R   0.742607 0.382991 0.595489 -0.005838
C27   C     C_R   0.205124 0.508007 0.487532 -0.087755
C28   C     C_R   0.793672 0.489339 0.509376 -0.089150
C29   C     C_R   0.115443 0.528687 0.470827 -0.042290
C30   C     C_R   0.882597 0.466720 0.523605 -0.041246
C31   C     C_R   0.099142 0.598472 0.419878 0.151210
C32   C     C_R   0.899099 0.397166 0.574785 0.151912
C33   C     C_R   0.042757 0.483478 0.504192 0.102149
C34   C     C_R   0.954580 0.510418 0.488363 0.101223
C35   C     C_R   0.941350 0.580584 0.438339 -0.247861
C36   C     C_R   0.055512 0.412165 0.552812 -0.246545
C37   C     C_R   0.011653 0.622819 0.404440 -0.207765
C38   C     C_R   0.985662 0.370738 0.587727 -0.209882
C39   C     C_R   0.523912 0.515359 0.266655 -0.035785
C40   C     C_R   0.496602 0.534677 0.735810 -0.033639
C41   C     C_R   0.451079 0.536614 0.209617 -0.214125
C42   C     C_R   0.583197 0.562803 0.784438 -0.207768
C43   C     C_R   0.465745 0.561453 0.133844 -0.145622
C44   C     C_R   0.589881 0.599468 0.862364 -0.159215
C45   C     C_R   0.553924 0.566286 0.114583 0.206308
C46   C     C_R   0.509982 0.606387 0.893314 0.204554
C47   C     C_R   0.626069 0.543150 0.170910 -0.181995
C48   C     C_R   0.423508 0.581705 0.843888 -0.167383
C49   C     C_R   0.611354 0.517920 0.246548 -0.192906
C50   C     C_R   0.416732 0.545891 0.765322 -0.193535
C51   C     C_2   0.570262 0.583923 0.032947 -0.229851
C52   C     C_2   0.514470 0.624194 0.980197 -0.242918
H1    H     H_    0.641533 0.147897 0.483581 0.154545
H2    H     H_    0.379806 0.854814 0.386483 0.142331
H3    H     H_    0.686166 0.352066 0.621654 0.140125
H4    H     H_    0.314789 0.649611 0.380279 0.134446
H5    H     H_    0.877303 0.605602 0.423868 0.135745
H6    H     H_    0.118844 0.385620 0.565295 0.135394
H7    H     H_    0.349295 0.526538 0.727922 0.151829
H8    H     H_    0.669001 0.502246 0.289692 0.157397
H9    H     H_    0.460199 0.654929 0.999110 0.147529
H10   H     H_    0.623686 0.552671 0.012817 0.151231
H11   H     H_    0.752293 0.051755 0.518349 0.145872
H12   H     H_    0.267682 0.951168 0.361290 0.147138
H13   H     H_    0.538456 0.212102 0.516139 0.168368
H14   H     H_    0.460781 0.783154 0.464020 0.171200
N1    N     N_R   0.271750 0.551950 0.454510 -0.118656
N2    N     N_R   0.728250 0.448050 0.545490 -0.118891
O1    O     O_R   0.615140 0.606020 0.522930 -0.610259
O2    O     O_R   0.384860 0.393980 0.477070 -0.608403
O3    O     O_R   0.468580 0.639400 0.493740 -0.620101
O4    O     O_R   0.531420 0.360600 0.506260 -0.618228
O5    O     O_R   0.581950 0.481350 0.400520 -0.616392
O6    O     O_R   0.418050 0.518650 0.599480 -0.611338
O7    O     O_R   0.435380 0.514730 0.371330 -0.620713
O8    O     O_R   0.564620 0.485270 0.628670 -0.620244
Zn1   Zn    Zn3+2 0.597860 0.477710 0.519490 0.932640
Zn2   Zn    Zn3+2 0.402140 0.522290 0.480510 0.935280
H15   H     H_    0.382956 0.534703 0.223642 0.156766
H16   H     H_    0.645874 0.558126 0.761821 0.158543
H17   H     H_    0.996454 0.675748 0.366491 0.161061
H18   H     H_    0.000645 0.317208 0.624953 0.160678
H19   H     H_    0.772713 0.537986 0.469156 0.132277
H20   H     H_    0.225651 0.458749 0.527264 0.135739
C53   C     C_3   0.158788 0.717547 0.331929 -0.978927
H21   H     H_    0.223474 0.743599 0.311673 0.237266
H22   H     H_    0.106040 0.694958 0.276846 0.250094
H23   H     H_    0.137110 0.771760 0.365378 0.248554
C54   C     C_3   0.840696 0.280394 0.665427 -0.968741
H24   H     H_    0.776944 0.256293 0.688038 0.243432
H25   H     H_    0.859202 0.225037 0.631023 0.245270
H26   H     H_    0.895789 0.302193 0.719048 0.250413
H27   H     H_    0.693880 0.544499 0.156250 0.128031
H28   H     H_    0.361330 0.586320 0.867383 0.126142
H29   H     H_    0.657362 0.620099 0.899243 0.130311
H30   H     H_    0.407271 0.574404 0.090320 0.123959
C55   C     C_3   0.239699 0.266315 0.413000 -0.870987
H31   H     H_    0.256459 0.316797 0.370623 0.255280
H32   H     H_    0.172517 0.227465 0.384808 0.223585
H33   H     H_    0.230954 0.297506 0.471279 0.239129
C56   C     C_3   0.762698 0.736638 0.566464 -0.870239
H34   H     H_    0.744217 0.703073 0.619867 0.248229
H35   H     H_    0.770179 0.688340 0.518512 0.243004
H36   H     H_    0.831001 0.777165 0.586867 0.223726
H37   H     H_    0.788789 0.908274 0.547395 0.136391
H38   H     H_    0.222975 0.094315 0.375778 0.136632

loop_
_geom_bond_atom_site_label_1
_geom_bond_atom_site_label_2
_ccdc_geom_bond_type
C15   C18   A    
C42   H16   S    
C56   H34   S    
C29   C33   A    
O2    Zn2   S    
O1    Zn1   S    
C25   N1    A    
C25   H4    S    
C4    C8    A    
C26   H3    S    
C55   H31   S    
C39   C41   A    
C5    H37   S    
C53   H21   S    
C21   C31   A    
C1    O3    A    
C49   H8    S    
C22   C32   A    
C51   H10   S    
C50   H7    S    
C27   H20   S    
C35   C37   A    
C36   H6    S    
C52   H9    S    
C23   C39   S    
C10   H13   S    
C27   C29   A    
C45   C51   S    
C15   C16   A    
C46   C52   S    
C33   C36   A    
C34   C35   A    
C9    H14   S    
C24   C40   S    
C11   C15   A    
C12   C16   A    
C19   H11   S    
C16   C17   A    
C32   C38   A    
C54   H25   S    
C5    C13   A    
C40   C42   A    
C56   H35   S    
C38   H18   S    
C28   H19   S    
C41   C43   A    
C37   H17   S    
N1    Zn2   S    
C42   C44   A    
C23   O5    A    
C2    O4    A    
C55   H32   S    
C44   C46   A    
C43   H30   S    
C21   C53   S    
C45   C47   A    
C47   H27   S    
C46   C48   A    
C30   C34   A    
C53   H22   S    
C51   C52   D    
C14   C20   A    
O8    Zn1   S    
C47   C49   A    
C5    C7    A    
C13   C19   A    
C24   O8    A    
C6    C8    A    
C1    O1    A    
C31   C37   A    
C1    C3    S    
C20   H12   S    
C2    C4    S    
C8    C55   S    
O4    Zn1   S    
C3    C9    A    
C6    C14   A    
C43   C45   A    
C33   C34   A    
C6    H38   S    
C54   H26   S    
C9    C11   A    
C10   C12   A    
C39   C49   A    
C12   C14   A    
C48   H28   S    
C56   H36   S    
C22   C26   A    
C4    C10   A    
C36   C38   A    
C17   H1    S    
C55   H33   S    
C53   H23   S    
N2    Zn1   S    
C21   C25   A    
C28   N2    A    
C23   O7    A    
C41   H15   S    
C3    C7    A    
C35   H5    S    
C26   N2    A    
C28   C30   A    
C29   C31   A    
C44   H29   S    
C30   C32   A    
C11   C13   A    
C24   O6    A    
C40   C50   A    
C48   C50   A    
C17   C19   A    
C22   C54   S    
C18   C20   A    
O7    Zn2   S    
C27   N1    A    
C18   H2    S    
O6    Zn2   S    
O5    Zn1   S    
C54   H24   S    
C2    O2    A    
O3    Zn2   S    
C7    C56   S    
