data_mof_unit_21782.cif
_audit_creation_date              2012-12-10T17:22:53-0500
_audit_creation_method            fapswitch 2.2
_symmetry_space_group_name_H-M    P1
_symmetry_Int_Tables_number       1
_space_group_crystal_system       triclinic
_cell_length_a                    10.145834
_cell_length_b                    10.511759
_cell_length_c                    10.707306
_cell_angle_alpha                 90.258272
_cell_angle_beta                  95.87483
_cell_angle_gamma                 80.500138
_cell_volume                      1120.2749946

loop_
_atom_site_label
_atom_site_type_symbol
_atom_type_description
_atom_site_fract_x
_atom_site_fract_y
_atom_site_fract_z
_atom_type_partial_charge
C1    C     C_R   0.443335 0.501909 0.266590 0.820149
C2    C     C_R   0.556830 0.488685 0.733693 0.787727
C3    C     C_R   0.500765 0.257318 0.499302 0.859292
C4    C     C_R   0.499277 0.742676 0.500843 0.882894
C5    C     C_3   0.621506 0.017544 0.474769 0.251521
C6    C     C_3   0.378595 0.982481 0.525541 0.252304
C7    C     C_3   0.525050 0.951247 0.386560 -0.220894
C8    C     C_3   0.475056 0.048785 0.613752 -0.221433
C9    C     C_3   0.496767 0.877858 0.501442 -0.068210
C10   C     C_3   0.503329 0.122153 0.498856 -0.060938
C11   C     C_3   0.594174 0.942066 0.589476 -0.226396
C12   C     C_3   0.405932 0.057946 0.410835 -0.225546
C13   C     C_2   0.410412 0.482306 0.133382 0.328239
C14   C     C_2   0.590113 0.467661 0.868394 0.354064
C15   C     C_2   0.510813 0.429579 0.067486 -0.247547
C16   C     C_2   0.494475 0.433468 0.932440 -0.224474
C17   C     C_2   0.072983 0.488981 0.489939 -0.124214
C18   C     C_2   0.927043 0.510913 0.510169 -0.117728
H1    H     H_    0.545501 0.907384 0.294521 0.144266
H2    H     H_    0.454635 0.092722 0.705772 0.138763
H3    H     H_    0.670519 0.890747 0.661769 0.133519
H4    H     H_    0.329578 0.109254 0.338547 0.134321
H5    H     H_    0.396385 0.423036 0.886176 0.181808
H6    H     H_    0.611155 0.395227 0.112982 0.194211
H7    H     H_    0.890604 0.581634 0.578115 0.154605
H8    H     H_    0.109444 0.418159 0.422098 0.152897
H9    H     H_    0.880659 0.381109 0.385360 0.158262
H10   H     H_    0.119309 0.618996 0.614533 0.162095
N1    N     N_2   0.157310 0.552180 0.551120 -0.190500
N2    N     N_2   0.842690 0.447820 0.448880 -0.190569
O1    O     O_R   0.568940 0.489500 0.307530 -0.631353
O2    O     O_R   0.431060 0.510500 0.692470 -0.628180
O3    O     O_R   0.348880 0.522990 0.340350 -0.587097
O4    O     O_R   0.651120 0.477010 0.659650 -0.587728
O5    O     O_R   0.610000 0.297210 0.483560 -0.630759
O6    O     O_R   0.390000 0.702790 0.516440 -0.623176
O7    O     O_R   0.389940 0.330700 0.516390 -0.611931
O8    O     O_R   0.610060 0.669300 0.483610 -0.605506
Zn1   Zn    Zn3+2 0.646930 0.477640 0.478080 0.932727
Zn2   Zn    Zn3+2 0.353070 0.522360 0.521920 0.934113
C19   C     C_3   0.760754 0.037928 0.444904 -0.394656
C20   C     C_3   0.852038 0.909650 0.427963 -0.871366
H11   H     H_    0.868843 0.851965 0.516516 0.253694
H12   H     H_    0.806862 0.853536 0.351683 0.268288
H13   H     H_    0.950507 0.928080 0.402422 0.252020
H14   H     H_    0.750349 0.096476 0.357264 0.208159
H15   H     H_    0.806889 0.091258 0.522852 0.214929
C21   C     C_3   0.239314 0.962187 0.555385 -0.392222
C22   C     C_3   0.148120 0.090512 0.572374 -0.873829
H16   H     H_    0.193345 0.146561 0.648684 0.266720
H17   H     H_    0.131366 0.148235 0.483846 0.253862
H18   H     H_    0.049618 0.072150 0.597891 0.252135
H19   H     H_    0.193134 0.908921 0.477411 0.215049
H20   H     H_    0.249668 0.903613 0.642997 0.211557
O9    O     O_3   0.716550 0.476170 0.928309 -0.600904
C23   C     C_3   0.747321 0.600200 0.908657 -0.318851
H21   H     H_    0.662945 0.677949 0.927172 0.148593
H22   H     H_    0.776258 0.610692 0.812442 0.170211
H23   H     H_    0.835063 0.613049 0.975441 0.192439
O10   O     O_3   0.283513 0.530186 0.075471 -0.594368
C24   C     C_3   0.201474 0.435069 0.083078 -0.310229
H24   H     H_    0.187445 0.414182 0.182151 0.162817
H25   H     H_    0.242682 0.344660 0.036015 0.150547
H26   H     H_    0.100903 0.471722 0.033752 0.201810

loop_
_geom_bond_atom_site_label_1
_geom_bond_atom_site_label_2
_ccdc_geom_bond_type
C24   H26   S    
O5    Zn1   S    
O9    C23   S    
C4    O6    A    
C18   N2    D    
C21   H19   S    
O7    Zn2   S    
C17   N1    D    
C19   C20   S    
C23   H23   S    
C3    O5    A    
C19   H14   S    
C22   H18   S    
C14   O9    S    
C2    O4    A    
C6    C9    S    
C13   C15   D    
C17   C18   S    
C19   H15   S    
C1    O3    A    
C5    C10   S    
C3    C10   S    
H9    N2    S    
C21   H20   S    
C9    C11   S    
C8    H2    S    
C18   H7    S    
C20   H12   S    
C8    C11   S    
C21   C22   S    
C17   H8    S    
C10   C12   S    
N1    Zn2   S    
C8    C10   S    
H10   N1    S    
C23   H22   S    
N2    Zn1   S    
C5    C11   S    
C16   H5    S    
C7    H1    S    
O2    Zn2   S    
C6    C12   S    
C24   H24   S    
C2    C14   S    
C14   C16   D    
C7    C12   S    
O3    Zn2   S    
C1    C13   S    
C20   H11   S    
C15   C16   S    
C12   H4    S    
C1    O1    A    
O8    Zn1   S    
C23   H21   S    
C3    O7    A    
C2    O2    A    
C22   H16   S    
C7    C9    S    
C5    C19   S    
C5    C7    S    
C15   H6    S    
O6    Zn2   S    
C6    C8    S    
C4    C9    S    
C4    O8    A    
C11   H3    S    
C24   H25   S    
C13   O10   S    
O4    Zn1   S    
O1    Zn1   S    
O10   C24   S    
C22   H17   S    
C20   H13   S    
C6    C21   S    
