data_mof_unit_7834.cif
_audit_creation_date              2012-12-10T17:40:53-0500
_audit_creation_method            fapswitch 2.2
_symmetry_space_group_name_H-M    P1
_symmetry_Int_Tables_number       1
_space_group_crystal_system       triclinic
_cell_length_a                    14.170053
_cell_length_b                    16.239774
_cell_length_c                    10.009469
_cell_angle_alpha                 88.235315
_cell_angle_beta                  84.022615
_cell_angle_gamma                 89.748224
_cell_volume                      2289.75225336

loop_
_atom_site_label
_atom_site_type_symbol
_atom_type_description
_atom_site_fract_x
_atom_site_fract_y
_atom_site_fract_z
_atom_type_partial_charge
C1    C     C_R   0.385670 0.875486 0.504670 0.959402
C2    C     C_R   0.739825 0.215675 0.373235 -0.124036
C3    C     C_R   0.242360 0.290846 0.375313 -0.014827
C4    C     C_R   0.239805 0.715695 0.373204 -0.124053
C5    C     C_R   0.680131 0.806305 0.492664 -0.199026
C6    C     C_R   0.674376 0.197864 0.486326 -0.227289
C7    C     C_R   0.180122 0.306303 0.492657 -0.199006
C8    C     C_R   0.174367 0.697871 0.486303 -0.227356
C9    C     C_R   0.330993 0.967753 0.167461 0.008325
C10   C     C_R   0.830992 0.467750 0.167454 0.008247
C11   C     C_R   0.267834 0.914964 0.118326 -0.264702
C12   C     C_R   0.387567 0.125185 0.502479 0.916257
C13   C     C_R   0.767834 0.414960 0.118315 -0.264669
C14   C     C_R   0.259153 0.921505 0.983056 -0.220553
C15   C     C_R   0.759164 0.421492 0.983039 -0.220498
C16   C     C_R   0.325284 0.964943 0.894171 -0.024930
C17   C     C_R   0.825293 0.464934 0.894161 -0.024928
C18   C     C_R   0.414655 0.987147 0.941149 0.111054
C19   C     C_R   0.914658 0.487141 0.941147 0.111039
C20   C     C_R   0.415828 0.987759 0.085548 0.109234
C21   C     C_R   0.915829 0.487754 0.085546 0.109291
C22   C     C_R   0.581926 0.009553 0.055673 0.024765
C23   C     C_R   0.885669 0.375486 0.504673 0.959404
C24   C     C_R   0.081925 0.509576 0.055672 0.024921
C25   C     C_R   0.615856 0.123620 0.494694 0.851854
C26   C     C_R   0.616774 0.877114 0.497301 0.864410
C27   C     C_R   0.115856 0.623620 0.494689 0.851863
C28   C     C_R   0.116774 0.377115 0.497300 0.864414
C29   C     C_R   0.579829 0.010915 0.913723 -0.080893
C30   C     C_R   0.079827 0.510944 0.913723 -0.080811
C31   C     C_R   0.308937 0.212330 0.758232 -0.156521
C32   C     C_R   0.291286 0.783347 0.757944 -0.174692
C33   C     C_R   0.808973 0.712344 0.758244 -0.156531
C34   C     C_R   0.887573 0.625187 0.502478 0.916232
C35   C     C_R   0.791311 0.283329 0.757962 -0.174745
C36   C     C_R   0.245338 0.224944 0.872345 -0.105935
C37   C     C_R   0.223689 0.763230 0.866252 -0.152991
C38   C     C_R   0.745368 0.724947 0.872357 -0.105956
C39   C     C_R   0.723732 0.263190 0.866283 -0.153032
C40   C     C_R   0.650466 0.744133 0.857526 -0.033000
C41   C     C_R   0.629164 0.250516 0.843911 0.006899
C42   C     C_R   0.150440 0.244133 0.857515 -0.033001
C43   C     C_R   0.129126 0.750553 0.843854 0.006931
C44   C     C_R   0.625573 0.765042 0.729490 -0.211324
C45   C     C_R   0.318607 0.239054 0.386302 -0.208187
C46   C     C_R   0.608658 0.237777 0.713324 -0.198751
C47   C     C_R   0.125547 0.265037 0.729474 -0.211300
C48   C     C_R   0.108634 0.737795 0.713272 -0.198834
C49   C     C_R   0.694345 0.765803 0.616361 0.080775
C50   C     C_R   0.682083 0.238650 0.607061 0.125793
C51   C     C_R   0.194322 0.265794 0.616348 0.080774
C52   C     C_R   0.182072 0.738658 0.607028 0.125868
C53   C     C_R   0.280369 0.225693 0.628190 0.091852
C54   C     C_R   0.267684 0.776821 0.625688 0.121536
C55   C     C_R   0.780397 0.725708 0.628198 0.091914
C56   C     C_R   0.314809 0.767589 0.387024 -0.201550
C57   C     C_R   0.767695 0.276815 0.625711 0.121571
C58   C     C_R   0.333114 0.200987 0.508718 -0.188561
C59   C     C_R   0.326840 0.801952 0.510536 -0.146205
C60   C     C_R   0.833133 0.700996 0.508720 -0.188600
C61   C     C_R   0.826842 0.301951 0.510553 -0.146181
C62   C     C_2   0.271933 0.012125 0.797455 0.943496
C63   C     C_2   0.771943 0.512119 0.797446 0.943527
C64   C     C_2   0.576094 0.737784 0.972307 1.005877
C65   C     C_2   0.551853 0.252491 0.954273 0.963085
C66   C     C_2   0.076075 0.237795 0.972306 1.005904
C67   C     C_R   0.818616 0.739057 0.386303 -0.208213
C68   C     C_2   0.051802 0.752557 0.954193 0.962925
C69   C     C_2   0.729215 0.820962 0.237156 0.980249
C70   C     C_2   0.729790 0.187922 0.236366 0.943603
C71   C     C_2   0.229225 0.320974 0.237153 0.980272
C72   C     C_2   0.229737 0.687965 0.236331 0.943552
C73   C     C_2   0.678544 0.015793 0.101290 0.987782
C74   C     C_2   0.178542 0.515817 0.101290 0.987769
C75   C     C_2   0.280106 0.029796 0.251054 1.017845
C76   C     C_2   0.780106 0.529795 0.251044 1.017863
C77   C     C_R   0.814817 0.267579 0.387052 -0.201584
C78   C     C_R   0.742362 0.790844 0.375317 -0.014848
H1    H     H_    0.267803 0.211601 0.970895 0.224520
H2    H     H_    0.690199 0.406620 0.952855 0.223358
H3    H     H_    0.154729 0.080885 0.782135 0.344592
H4    H     H_    0.654752 0.580898 0.782131 0.344581
H5    H     H_    0.644228 0.018775 0.846413 0.183993
H6    H     H_    0.144225 0.518821 0.846412 0.183989
H7    H     H_    0.379590 0.192236 0.773391 0.192090
H8    H     H_    0.362026 0.799986 0.778342 0.195721
H9    H     H_    0.879634 0.692259 0.773412 0.191953
H10   H     H_    0.862053 0.299970 0.778345 0.195721
H11   H     H_    0.448007 0.775742 0.055662 0.362248
H12   H     H_    0.243492 0.763931 0.967439 0.215392
H13   H     H_    0.492728 0.310777 0.117319 0.372681
H14   H     H_    0.947992 0.275759 0.055656 0.362220
H15   H     H_    0.992772 0.810967 0.117251 0.372789
H16   H     H_    0.552085 0.779353 0.717734 0.177270
H17   H     H_    0.536542 0.224284 0.694734 0.144550
H18   H     H_    0.052061 0.279350 0.717719 0.177244
H19   H     H_    0.036520 0.724300 0.694671 0.144398
H20   H     H_    0.791151 0.862132 0.056830 0.347265
H21   H     H_    0.591662 0.219658 0.244998 0.316854
H22   H     H_    0.291166 0.362158 0.056842 0.347265
H23   H     H_    0.767833 0.711599 0.970906 0.224532
H24   H     H_    0.091588 0.719611 0.245112 0.316690
H25   H     H_    0.764066 0.005568 0.249639 0.350557
H26   H     H_    0.264061 0.505594 0.249646 0.350548
H27   H     H_    0.194805 0.053915 0.419483 0.349884
H28   H     H_    0.694804 0.553919 0.419467 0.349883
H29   H     H_    0.206980 0.891884 0.183270 0.209782
H30   H     H_    0.706976 0.391881 0.183254 0.209874
H31   H     H_    0.743548 0.263875 0.967468 0.215443
H32   H     H_    0.364146 0.224278 0.296228 0.216302
H33   H     H_    0.362179 0.784036 0.298070 0.189826
H34   H     H_    0.864149 0.724277 0.296225 0.216382
H35   H     H_    0.862192 0.284021 0.298096 0.189803
H36   H     H_    0.190178 0.906637 0.952891 0.223476
N1    N     N_R   0.498810 0.000000 0.142780 -0.134524
N2    N     N_R   0.998810 0.500000 0.142780 -0.134499
N3    N     N_R   0.498740 0.000000 0.857170 -0.127015
N4    N     N_R   0.998740 0.500000 0.857170 -0.127043
O1    O     O_R   0.408390 0.908380 0.614690 -0.608638
O2    O     O_R   0.591620 0.908390 0.614640 -0.622801
O3    O     O_R   0.091620 0.591610 0.614640 -0.616600
O4    O     O_R   0.091620 0.408390 0.614640 -0.622795
O5    O     O_R   0.591610 0.091610 0.385310 -0.575491
O6    O     O_R   0.591610 0.908390 0.385310 -0.542479
O7    O     O_R   0.091610 0.591610 0.385310 -0.575492
O8    O     O_R   0.091610 0.408390 0.385310 -0.542498
O9    O     O_2   0.270722 0.991097 0.682083 -0.595011
O10   O     O_R   0.199524 0.063660 0.850688 -0.786716
O11   O     O_2   0.770710 0.491078 0.682087 -0.595030
O12   O     O_R   0.408390 0.091620 0.614690 -0.628844
O13   O     O_R   0.699548 0.563668 0.850681 -0.786732
O14   O     O_2   0.585672 0.689551 0.066236 -0.527034
O15   O     O_R   0.493565 0.785303 0.971688 -0.832460
O16   O     O_2   0.488300 0.201393 0.961821 -0.653527
O17   O     O_R   0.549903 0.314783 0.047683 -0.806402
O18   O     O_2   0.085650 0.189565 0.066239 -0.527012
O19   O     O_R   0.993556 0.285320 0.971694 -0.832511
O20   O     O_2   0.988351 0.701340 0.961990 -0.653239
O21   O     O_R   0.049807 0.814973 0.047418 -0.806428
O22   O     O_2   0.651154 0.818788 0.196231 -0.602552
O23   O     O_R   0.908390 0.408380 0.614690 -0.608653
O24   O     O_R   0.808091 0.846204 0.150103 -0.824498
O25   O     O_2   0.799985 0.165885 0.165073 -0.571549
O26   O     O_R   0.642705 0.191980 0.183382 -0.779983
O27   O     O_2   0.151172 0.318794 0.196212 -0.602560
O28   O     O_R   0.308097 0.346239 0.150125 -0.824511
O29   O     O_2   0.299921 0.665976 0.164970 -0.571586
O30   O     O_R   0.142631 0.691979 0.183417 -0.779931
O31   O     O_2   0.746636 0.032335 0.019332 -0.607231
O32   O     O_R   0.694713 0.001036 0.234073 -0.743834
O33   O     O_2   0.246635 0.532357 0.019326 -0.607238
O34   O     O_R   0.908390 0.591620 0.614690 -0.628853
O35   O     O_R   0.194712 0.501054 0.234078 -0.743837
O36   O     O_2   0.276465 0.100937 0.208218 -0.620089
O37   O     O_R   0.228940 0.005964 0.373090 -0.781729
O38   O     O_2   0.776470 0.600936 0.208206 -0.620060
O39   O     O_R   0.728937 0.505966 0.373077 -0.781725
O40   O     O_R   0.408370 0.908380 0.385360 -0.624468
O41   O     O_R   0.408370 0.091620 0.385360 -0.611993
O42   O     O_R   0.908370 0.408380 0.385360 -0.624469
O43   O     O_R   0.908370 0.591620 0.385360 -0.611973
O44   O     O_R   0.591620 0.091610 0.614640 -0.616604
Zn1   Zn    Zn3+2 0.500010 1.000000 0.653130 0.986251
Zn2   Zn    Zn3+2 0.000010 0.500000 0.653130 0.986235
Zn3   Zn    Zn3+2 0.499980 0.000000 0.346870 1.042152
Zn4   Zn    Zn3+2 0.999980 0.500000 0.346870 1.042179

loop_
_geom_bond_atom_site_label_1
_geom_bond_atom_site_label_2
_ccdc_geom_bond_type
C44   C49   A    
C33   C55   A    
C38   C40   A    
C31   H7    S    
C22   C29   A    
C73   O32   S    
C36   C42   A    
C4    C8    A    
C34   O43   A    
C5    C49   A    
C27   O3    A    
C39   C41   A    
N3    Zn1   S    
C48   H19   S    
N4    Zn2   S    
C70   O25   D    
C12   O12   A    
C37   H12   S    
H24   O30   S    
C1    O40   A    
C19   C21   A    
C26   O2    A    
C68   O20   D    
C29   H5    S    
C38   H23   S    
C3    C7    A    
C1    C59   S    
C62   O9    D    
C11   C14   A    
C28   O4    A    
C6    C25   S    
O4    Zn2   S    
C1    O1    A    
H25   O32   S    
C13   H30   S    
C10   C76   S    
C46   H17   S    
C64   O14   D    
C19   N4    A    
H22   O28   S    
C43   C68   S    
C41   C46   A    
C10   C13   A    
O42   Zn4   S    
H26   O35   S    
N1    Zn3   S    
C43   C48   A    
C8    C52   A    
C56   H33   S    
C65   O16   D    
O2    Zn1   S    
C12   C58   S    
C69   O22   D    
C55   C60   A    
H20   O24   S    
C34   C60   S    
N2    Zn4   S    
C69   C78   S    
C2    C6    A    
C67   C78   A    
C26   O6    A    
C21   N2    A    
C77   H35   S    
H14   O19   S    
C32   C54   A    
C52   C54   A    
C54   C59   A    
C10   C21   A    
C45   C58   A    
C76   O39   S    
H11   O15   S    
H21   O26   S    
C60   C67   A    
O1    Zn1   S    
C34   O34   A    
C45   H32   S    
C41   C65   S    
C30   N4    A    
C69   O24   S    
C49   C55   A    
O3    Zn2   S    
C29   N3    A    
C76   O38   D    
C6    C50   A    
C7    C28   S    
O41   Zn3   S    
C74   O35   S    
C51   C53   A    
C37   C43   A    
C3    C71   S    
C5    C78   A    
H15   O21   S    
C20   N1    A    
C9    C11   A    
C35   H10   S    
C9    C20   A    
C15   H2    S    
C40   C44   A    
C25   O44   A    
C47   H18   S    
C32   H8    S    
C23   O42   A    
O34   Zn2   S    
C32   C37   A    
C31   C53   A    
C25   O5    A    
C18   N3    A    
C65   O17   S    
C66   O18   D    
C22   N1    A    
H27   O37   S    
C24   N2    A    
C63   O13   S    
C13   C15   A    
H3    O10   S    
C11   H29   S    
C14   C16   A    
C74   O33   D    
C72   O29   D    
C4    C72   S    
O44   Zn1   S    
C23   C61   S    
C15   C17   A    
C61   C77   A    
C64   O15   S    
C73   O31   D    
C50   C57   A    
O43   Zn4   S    
O8    Zn4   S    
C36   H1    S    
C71   O27   D    
C47   C51   A    
C53   C58   A    
C57   C61   A    
C14   H36   S    
C28   O8    A    
H28   O39   S    
C46   C50   A    
C70   O26   S    
C33   C38   A    
C40   C64   S    
C56   C59   A    
C35   C57   A    
O7    Zn4   S    
C33   H9    S    
C7    C51   A    
C2    C77   A    
C72   O30   S    
C17   C63   S    
C62   O10   S    
C27   O7    A    
C75   O36   D    
C24   C74   S    
C66   O19   S    
C2    C70   S    
O12   Zn1   S    
C35   C39   A    
O6    Zn3   S    
C17   C19   A    
C3    C45   A    
C18   C20   A    
C42   C47   A    
C63   O11   D    
C12   O41   A    
C30   H6    S    
C24   C30   A    
C44   H16   S    
C5    C26   S    
O5    Zn3   S    
C75   O37   S    
C67   H34   S    
C39   H31   S    
C71   O28   S    
H13   O17   S    
O23   Zn2   S    
C16   C18   A    
C42   C66   S    
C8    C27   S    
C31   C36   A    
C23   O23   A    
C68   O21   S    
C9    C75   S    
C22   C73   S    
H4    O13   S    
C48   C52   A    
C16   C62   S    
C4    C56   A    
O40   Zn3   S    
