data_mof_unit_50671.cif
_audit_creation_date              2012-12-10T20:34:52-0500
_audit_creation_method            fapswitch 2.2
_symmetry_space_group_name_H-M    P1
_symmetry_Int_Tables_number       1
_space_group_crystal_system       triclinic
_cell_length_a                    10.611823
_cell_length_b                    10.688125
_cell_length_c                    9.875903
_cell_angle_alpha                 89.300867
_cell_angle_beta                  89.551235
_cell_angle_gamma                 90.394862
_cell_volume                      1119.98467437

loop_
_atom_site_label
_atom_site_type_symbol
_atom_type_description
_atom_site_fract_x
_atom_site_fract_y
_atom_site_fract_z
_atom_type_partial_charge
C1    C     C_R   0.504225 0.259860 0.500452 0.887953
C2    C     C_3   0.878576 0.509320 0.498305 0.182126
C3    C     C_3   0.927517 0.592383 0.614876 -0.409769
C4    C     C_3   0.929356 0.564001 0.361688 -0.398694
C5    C     C_R   0.535857 0.061753 0.621212 0.037764
C6    C     C_R   0.525628 0.128480 0.499933 -0.064512
C7    C     C_R   0.541476 0.066361 0.376336 -0.219680
C8    C     C_R   0.541808 0.936930 0.375410 -0.236456
C9    C     C_R   0.526121 0.871135 0.498038 -0.064217
C10   C     C_R   0.535050 0.934147 0.620072 0.029046
C11   C     C_3   0.458308 0.923140 0.747331 0.392204
C12   C     C_R   0.257907 0.505975 0.499869 0.858063
C13   C     C_3   0.458625 0.065189 0.748273 -0.535399
C14   C     C_R   0.394684 0.465610 0.073387 0.149419
C15   C     C_R   0.600213 0.544994 0.070386 -0.134994
C16   C     C_R   0.600327 0.544787 0.926544 -0.147760
C17   C     C_R   0.393528 0.466814 0.930724 0.178584
C18   C     C_3   0.328197 0.342196 0.931837 0.179584
C19   C     C_3   0.331016 0.342124 0.085180 -0.518101
C20   C     C_R   0.504654 0.739914 0.499195 0.899995
C21   C     C_R   0.742138 0.505845 0.499391 0.816733
C22   C     C_3   0.070922 0.373959 0.513460 -0.380861
C23   C     C_3   0.926706 0.374198 0.518038 -0.388572
C24   C     C_3   0.071739 0.592398 0.614934 -0.372762
C25   C     C_3   0.073387 0.565988 0.362426 -0.394669
C26   C     C_3   0.121426 0.509612 0.498370 0.159017
H1    H     H_    0.107543 0.328311 0.606342 0.233182
H2    H     H_    0.893477 0.660622 0.345301 0.161715
H3    H     H_    0.107770 0.689926 0.601938 0.174197
H4    H     H_    0.892714 0.689835 0.602213 0.155443
H5    H     H_    0.544295 0.116420 0.280310 0.164251
H6    H     H_    0.544740 0.889602 0.279063 0.165792
H7    H     H_    0.512682 0.877847 0.830710 0.059518
H8    H     H_    0.364097 0.106869 0.731804 0.239438
H9    H     H_    0.513310 0.103358 0.834103 0.153743
H10   H     H_    0.682024 0.579488 0.123248 0.145029
H11   H     H_    0.103488 0.317125 0.426276 0.160047
H12   H     H_    0.682196 0.579141 0.871444 0.148329
H13   H     H_    0.386005 0.268347 0.886155 0.122921
H14   H     H_    0.237133 0.349133 0.135130 0.228804
H15   H     H_    0.393134 0.268737 0.128514 0.180481
H16   H     H_    0.889424 0.312692 0.437181 0.162783
H17   H     H_    0.893320 0.335122 0.617144 0.193504
H18   H     H_    0.104830 0.557746 0.714798 0.238511
H19   H     H_    0.892883 0.556520 0.714837 0.196340
H20   H     H_    0.108428 0.663823 0.348950 0.171312
H21   H     H_    0.108181 0.511202 0.274711 0.193747
H22   H     H_    0.897060 0.506050 0.275471 0.190743
N1    N     N_R   0.499150 0.499140 0.142800 -0.102562
N2    N     N_R   0.499150 0.499180 0.857150 -0.127835
O1    O     O_R   0.500020 0.316790 0.614690 -0.608804
O2    O     O_R   0.500000 0.316760 0.385350 -0.624171
O3    O     O_R   0.314800 0.500000 0.614670 -0.583891
O4    O     O_R   0.314790 0.499960 0.385330 -0.629581
O5    O     O_R   0.500000 0.683240 0.614650 -0.602293
O6    O     O_R   0.499980 0.683210 0.385310 -0.634588
O7    O     O_R   0.685210 0.500040 0.614670 -0.635689
O8    O     O_R   0.685200 0.500000 0.385330 -0.633200
Zn1   Zn    Zn3+2 0.500010 0.500020 0.653130 0.963589
Zn2   Zn    Zn3+2 0.499990 0.499980 0.346870 0.933754
O9    O     O_3   0.337243 0.872814 0.722156 -0.579023
C27   C     C_3   0.280169 0.837029 0.846067 -0.282145
H23   H     H_    0.274980 0.917068 0.916965 0.162841
H24   H     H_    0.331155 0.757306 0.893444 0.161529
H25   H     H_    0.182419 0.805249 0.826091 0.182845
Cl1   Cl    Cl    0.171159 0.350118 0.870865 -0.704643

loop_
_geom_bond_atom_site_label_1
_geom_bond_atom_site_label_2
_ccdc_geom_bond_type
C17   N2    A    
C3    H4    S    
C2    C4    S    
C18   H13   S    
C21   O7    A    
C27   H23   S    
C22   H11   S    
O5    Zn1   S    
C18   Cl1   S    
C11   C13   S    
C9    C10   A    
C25   H21   S    
C9    C20   S    
C5    C13   S    
C12   O3    A    
C27   H24   S    
C20   O6    A    
C10   C11   S    
C2    C21   S    
C17   C18   S    
O3    Zn1   S    
N1    Zn2   S    
C21   O8    A    
O4    Zn2   S    
C1    O1    A    
C14   C17   A    
C3    C24   S    
C6    C7    A    
C23   H16   S    
C20   O5    A    
C5    C6    A    
N2    Zn1   S    
C14   C19   S    
C5    C10   A    
C4    H2    S    
C12   C26   S    
C16   N2    A    
C4    C25   S    
C2    C3    S    
C22   H1    S    
C15   N1    A    
C22   C26   S    
O9    C27   S    
C24   H18   S    
C1    O2    A    
O7    Zn1   S    
C14   N1    A    
C7    H5    S    
C19   H14   S    
O8    Zn2   S    
C15   C16   A    
C8    H6    S    
C19   H15   S    
C15   H10   S    
C11   H7    S    
O1    Zn1   S    
C18   C19   S    
C4    H22   S    
C16   H12   S    
C2    C23   S    
C7    C8    A    
C22   C23   S    
C13   H8    S    
O2    Zn2   S    
C27   H25   S    
C25   C26   S    
C24   H3    S    
C23   H17   S    
C25   H20   S    
C3    H19   S    
C13   H9    S    
C12   O4    A    
O6    Zn2   S    
C24   C26   S    
C8    C9    A    
C11   O9    S    
C1    C6    S    
