data_mof_unit_35796.cif
_audit_creation_date              2013-03-05T16:08:01-0500
_audit_creation_method            fapswitch 2.2
_symmetry_space_group_name_H-M    P1
_symmetry_Int_Tables_number       1
_space_group_crystal_system       triclinic
_cell_length_a                    22.135238
_cell_length_b                    11.591087
_cell_length_c                    10.769756
_cell_angle_alpha                 90.132171
_cell_angle_beta                  89.761199
_cell_angle_gamma                 89.712892
_cell_volume                      2763.14594466

loop_
_atom_site_label
_atom_site_type_symbol
_atom_site_description
_atom_site_fract_x
_atom_site_fract_y
_atom_site_fract_z
_atom_type_partial_charge
O1    O     O_R   0.500000 0.334450 0.602530 -0.591638
O2    O     O_R   0.500000 0.665550 0.397470 -0.597436
O3    O     O_R   0.500000 0.665550 0.602530 -0.596566
O4    O     O_R   0.500000 0.334450 0.397470 -0.613405
C1    C     C_R   0.499666 0.281101 0.499866 0.954292
C2    C     C_R   0.499337 0.718901 0.500120 0.965839
O5    O     O_R   0.416150 0.500000 0.602560 -0.558420
O6    O     O_R   0.583850 0.500000 0.397440 -0.611219
O7    O     O_R   0.583850 0.500000 0.602560 -0.576369
O8    O     O_R   0.416150 0.500000 0.397440 -0.603810
C3    C     C_R   0.387373 0.498719 0.500039 0.957619
C4    C     C_R   0.612729 0.499638 0.499457 1.008483
Zn1   Zn    Zn3+2 0.500000 0.500000 0.636920 1.059987
Zn2   Zn    Zn3+2 0.500000 0.500000 0.363080 1.029198
C5    C     C_R   0.873030 0.526518 0.244592 0.617532
C6    C     C_R   0.128335 0.340194 0.299375 0.584258
C7    C     C_R   0.874773 0.333682 0.294031 0.626590
C8    C     C_R   0.126836 0.535058 0.253065 0.611610
N1    N     N_R   0.848617 0.439054 0.313609 -0.325632
N2    N     N_R   0.152025 0.447627 0.320753 -0.323142
C9    C     C_R   0.938112 0.325824 0.276506 -0.112107
C10   C     C_R   0.064010 0.534519 0.229167 -0.110510
C11   C     C_R   0.936336 0.531355 0.228335 -0.144313
C12   C     C_R   0.065660 0.328966 0.277185 -0.125994
C13   C     C_R   0.969340 0.430201 0.256407 -0.008005
C14   C     C_R   0.032711 0.431683 0.256384 -0.004485
C15   C     C_R   0.970862 0.220188 0.277723 -0.100140
C16   C     C_R   0.031365 0.631728 0.184414 -0.076447
C17   C     C_R   0.967362 0.630472 0.184900 -0.112191
C18   C     C_R   0.034844 0.221644 0.277482 -0.117290
O9    O     O_2   0.836195 0.601389 0.185996 -0.460666
O10   O     O_2   0.165217 0.247754 0.292804 -0.489161
O11   O     O_2   0.839495 0.241443 0.278029 -0.544782
O12   O     O_2   0.162881 0.615713 0.203403 -0.554010
C19   C     C_R   0.226392 0.580168 0.429117 0.417591
C20   C     C_R   0.767063 0.367889 0.465587 0.408774
C21   C     C_R   0.232461 0.375042 0.467731 0.451422
C22   C     C_R   0.771691 0.570887 0.411058 0.448888
C23   C     C_R   0.286587 0.591216 0.475082 -0.145129
C24   C     C_R   0.709588 0.391446 0.521771 -0.193878
C25   C     C_R   0.292981 0.383563 0.503668 -0.165883
C26   C     C_R   0.711394 0.588177 0.446508 -0.173667
C27   C     C_R   0.321308 0.491376 0.496984 -0.290155
C28   C     C_R   0.678972 0.494701 0.494178 -0.298975
C29   C     C_R   0.205034 0.466924 0.400506 0.022997
C30   C     C_R   0.794436 0.457063 0.391757 0.025677
C31   C     C_1   0.499055 0.160993 0.499684 -0.134199
C32   C     C_1   0.498729 0.839031 0.500311 -0.152160
C33   C     C_1   0.498655 0.059167 0.499882 0.029372
C34   C     C_1   0.498508 0.940872 0.500196 0.009053
N3    N     N_1   0.500000 0.500000 0.180630 -0.066660
N4    N     N_1   0.500000 0.500000 0.819370 -0.059292
C35   C     C_1   0.500001 0.499994 0.069737 0.079426
C36   C     C_1   0.500001 0.499991 0.930261 0.090688
C37   C     C_2   0.938975 0.108267 0.274333 1.030209
O13   O     O_2   0.937573 0.046862 0.366430 -0.597290
O14   O     O_R   0.909739 0.074857 0.165381 -0.753210
H1    H     H_    0.885764 0.001425 0.175982 0.376012
C38   C     C_2   0.062588 0.738368 0.144878 0.988184
O15   O     O_2   0.055684 0.827145 0.204768 -0.631517
O16   O     O_R   0.097796 0.738024 0.036844 -0.726765
H2    H     H_    0.116183 0.816213 0.018981 0.348856
C39   C     C_2   0.934339 0.735111 0.143328 1.035678
O17   O     O_2   0.903030 0.789436 0.216815 -0.583738
O18   O     O_R   0.940821 0.773052 0.020909 -0.786110
H3    H     H_    0.916662 0.845765 0.003695 0.354476
C40   C     C_2   0.068496 0.110912 0.272064 1.028196
O19   O     O_2   0.066971 0.044474 0.359986 -0.602354
O20   O     O_R   0.101845 0.083333 0.165423 -0.750315
H4    H     H_    0.124416 0.007451 0.173014 0.352629
O21   O     O_3   0.182893 0.666777 0.446112 -0.635785
C41   C     C_3   0.197455 0.773678 0.389989 0.164971
H5    H     H_    0.162416 0.793869 0.320026 0.212127
H6    H     H_    0.240857 0.773524 0.337906 0.171686
C42   C     C_3   0.193665 0.870528 0.486701 -0.435345
H7    H     H_    0.145611 0.884509 0.513521 0.262684
H8    H     H_    0.218455 0.846482 0.571969 0.270513
C43   C     C_3   0.219295 0.982879 0.436180 -0.705464
H9    H     H_    0.267894 0.972112 0.412828 0.279618
H10   H     H_    0.214707 0.051198 0.507772 0.304518
H11   H     H_    0.194447 0.010115 0.351907 0.283735
O22   O     O_3   0.802067 0.273297 0.502733 -0.617972
C44   C     C_3   0.772251 0.165187 0.489666 0.177611
H12   H     H_    0.794410 0.114131 0.415190 0.218238
H13   H     H_    0.724106 0.171272 0.461447 0.143376
C45   C     C_3   0.779874 0.093991 0.608328 -0.366860
H14   H     H_    0.828458 0.071968 0.620248 0.243990
H15   H     H_    0.765372 0.144342 0.690803 0.272958
C46   C     C_3   0.743396 0.982721 0.602693 -0.900074
H16   H     H_    0.694379 0.002825 0.596773 0.279879
H17   H     H_    0.751549 0.931128 0.687778 0.274304
H18   H     H_    0.757086 0.930517 0.520669 0.286512
O23   O     O_3   0.200003 0.280046 0.507312 -0.591732
C47   C     C_3   0.159893 0.314378 0.603050 0.057745
H19   H     H_    0.126717 0.379411 0.568775 0.146198
H20   H     H_    0.185420 0.351468 0.682645 0.160740
C48   C     C_3   0.125088 0.208949 0.648304 -0.329686
H21   H     H_    0.100668 0.169569 0.568976 0.260938
H22   H     H_    0.157348 0.144109 0.685701 0.236696
C49   C     C_3   0.079566 0.241269 0.749509 -0.848186
H23   H     H_    0.103056 0.279513 0.830623 0.277717
H24   H     H_    0.055278 0.162780 0.780516 0.280552
H25   H     H_    0.045983 0.304154 0.713293 0.263582
O24   O     O_3   0.809508 0.665525 0.403894 -0.555818
C50   C     C_3   0.834727 0.684888 0.522441 0.024309
H26   H     H_    0.857889 0.605794 0.557611 0.140700
H27   H     H_    0.798689 0.711344 0.589415 0.154646
C51   C     C_3   0.881389 0.781300 0.513625 -0.238186
H28   H     H_    0.919971 0.751703 0.455179 0.254143
H29   H     H_    0.860689 0.858370 0.469328 0.271084
C52   C     C_3   0.905059 0.814993 0.641472 -0.881372
H30   H     H_    0.867527 0.847049 0.701270 0.264006
H31   H     H_    0.938949 0.884706 0.631483 0.292260
H32   H     H_    0.926948 0.739664 0.686729 0.280131
C53   C     C_2   0.313615 0.702842 0.510348 0.891934
O25   O     O_2   0.312834 0.733284 0.619086 -0.600293
O26   O     O_R   0.344371 0.767974 0.421460 -0.819420
H33   H     H_    0.362145 0.841097 0.457578 0.343867
C54   C     C_2   0.683805 0.317805 0.620192 0.941031
O27   O     O_2   0.703724 0.324123 0.725647 -0.591930
O28   O     O_R   0.635348 0.245174 0.593650 -0.845437
H34   H     H_    0.621413 0.200051 0.668925 0.344824
C55   C     C_2   0.325239 0.279717 0.550344 0.948864
O29   O     O_2   0.316897 0.185937 0.501333 -0.604970
O30   O     O_R   0.364290 0.288484 0.651498 -0.789715
H35   H     H_    0.383174 0.211661 0.674662 0.340324
C56   C     C_2   0.684544 0.705887 0.441407 0.943558
O31   O     O_2   0.699735 0.772734 0.359422 -0.556833
O32   O     O_R   0.642966 0.741323 0.531918 -0.829296
H36   H     H_    0.629432 0.824239 0.520257 0.333304

loop_
_geom_bond_atom_site_label_1
_geom_bond_atom_site_label_2
_geom_bond_distance
_ccdc_geom_bond_type
C37   O13   1.222523 D    
C39   O18   1.397843 S    
O23   C47   1.413045 S    
C52   H30   1.111009 S    
O3    C2    1.265811 A    
C17   C39   1.483985 S    
C48   H21   1.111287 S    
N1    C30   1.475986 S    
C55   O29   1.222488 D    
C31   C33   1.180364 T    
C35   C36   1.502116 S    
C5    N1    1.370379 A    
C50   H27   1.114618 S    
C2    C32   1.392438 S    
O1    C1    1.265656 A    
C11   C17   1.420595 A    
C16   C17   1.416844 A    
C12   C14   1.411926 A    
C22   C26   1.400013 A    
O20   H4    1.013004 S    
C15   C37   1.480426 S    
C55   O30   1.397333 S    
C53   O25   1.222335 D    
C51   H28   1.111238 S    
O7    Zn1   1.891056 S    
C22   O24   1.385289 S    
C44   H12   1.107151 S    
C20   O22   1.399500 S    
C53   O26   1.397467 S    
C20   C30   1.440058 A    
C46   H17   1.110273 S    
N2    C29   1.474681 S    
O3    Zn1   1.955160 S    
C6    N2    1.372928 A    
C47   H20   1.115212 S    
O16   H2    1.013843 S    
C32   C34   1.180434 T    
C9    C15   1.419936 A    
C19   O21   1.398721 S    
C38   O15   1.221799 D    
C6    C12   1.415315 A    
C10   C16   1.421726 A    
C15   C18   1.416431 A    
C21   C25   1.399856 A    
C25   C27   1.402829 A    
O2    C2    1.265465 A    
C7    O11   1.338358 S    
C41   C42   1.531356 S    
O24   C50   1.413471 S    
C48   H22   1.111488 S    
N4    C36   1.194272 T    
O5    C3    1.277093 A    
C8    O12   1.342713 S    
C50   C51   1.528365 S    
C38   O16   1.397687 S    
C45   H15   1.107243 S    
C40   O19   1.222360 D    
C20   C24   1.431289 A    
C41   H6    1.110453 S    
O8    Zn2   1.891059 S    
C43   H9    1.110112 S    
C41   H5    1.108110 S    
C23   C27   1.406913 A    
C47   C48   1.527579 S    
C13   C14   1.402922 A    
C49   H25   1.110995 S    
C7    C9    1.416353 A    
N3    C35   1.194296 T    
C19   C23   1.429595 A    
C42   H7    1.112022 S    
C56   O32   1.397424 S    
Zn1   N4    1.964941 S    
C1    C31   1.392316 S    
Zn2   N3    1.964942 S    
O5    Zn1   1.894084 S    
O6    C4    1.273439 A    
C24   C54   1.477105 S    
C49   H24   1.110419 S    
C43   H10   1.107972 S    
C21   O23   1.384874 S    
C52   H31   1.110440 S    
C46   H18   1.109861 S    
C3    C27   1.465749 S    
C42   H8    1.107219 S    
O28   H34   1.013607 S    
C54   O28   1.396948 S    
C26   C56   1.486706 S    
C44   H13   1.111345 S    
C33   C34   1.371195 S    
C23   C53   1.477715 S    
O8    C3    1.273273 A    
C37   O14   1.397270 S    
O30   H35   1.013919 S    
O1    Zn1   1.953483 S    
O18   H3    1.013762 S    
C21   C29   1.423987 A    
C56   O31   1.223253 D    
C19   C29   1.430736 A    
C48   C49   1.526066 S    
O32   H36   1.013500 S    
C16   C38   1.481686 S    
C9    C13   1.413054 A    
O6    Zn2   1.894081 S    
C45   H14   1.112079 S    
C18   C40   1.481667 S    
O4    C1    1.265576 A    
C45   C46   1.526293 S    
C54   O27   1.222189 D    
C5    O9    1.347565 S    
C6    O10   1.345354 S    
C50   H26   1.115937 S    
C51   C52   1.525921 S    
C25   C55   1.486130 S    
C8    C10   1.415371 A    
C26   C28   1.399957 A    
O21   C41   1.417902 S    
C4    C28   1.467990 S    
O26   H33   1.013691 S    
C43   H11   1.108908 S    
O14   H1    1.011727 S    
C5    C11   1.412869 A    
C49   H23   1.111006 S    
C7    N1    1.364589 A    
C51   H29   1.111424 S    
C52   H32   1.111037 S    
C8    N2    1.367641 A    
C11   C13   1.412351 A    
O4    Zn2   1.955161 S    
C47   H19   1.114343 S    
O2    Zn2   1.953482 S    
C42   C43   1.523785 S    
C12   C18   1.421720 A    
C22   C30   1.424270 A    
O7    C4    1.278928 A    
C39   O17   1.221437 D    
C24   C28   1.405414 A    
C44   C45   1.532296 S    
O22   C44   1.426162 S    
C10   C14   1.412420 A    
C40   O20   1.398221 S    
C46   H16   1.110739 S    
