data_mof_unit_50147.cif
_audit_creation_date              2012-12-10T16:54:53-0500
_audit_creation_method            fapswitch 2.2
_symmetry_space_group_name_H-M    P1
_symmetry_Int_Tables_number       1
_space_group_crystal_system       triclinic
_cell_length_a                    7.820799
_cell_length_b                    8.57169
_cell_length_c                    15.710495
_cell_angle_alpha                 91.482379
_cell_angle_beta                  85.717989
_cell_angle_gamma                 93.159478
_cell_volume                      1048.405191

loop_
_atom_site_label
_atom_site_type_symbol
_atom_type_description
_atom_site_fract_x
_atom_site_fract_y
_atom_site_fract_z
_atom_type_partial_charge
C1    C     C_R   0.544746 0.793523 0.492170 0.933897
C2    C     C_2   0.435537 0.042087 0.499569 -0.391109
C3    C     C_R   0.501682 0.499893 0.661447 0.897086
C4    C     C_R   0.455419 0.205676 0.498512 0.959664
C5    C     C_R   0.498229 0.499428 0.338536 0.887292
C6    C     C_3   0.395930 0.615003 0.955788 -0.365399
C7    C     C_3   0.685869 0.498809 0.945739 0.417907
C8    C     C_3   0.681743 0.489592 0.043780 -0.445918
C9    C     C_1   0.493693 0.493256 0.249803 -0.187015
C10   C     C_3   0.500078 0.478021 0.916862 0.079356
C11   C     C_3   0.451000 0.174511 0.092858 -0.949553
C12   C     C_3   0.399822 0.619425 0.053534 -0.474267
C13   C     C_3   0.724212 0.007184 0.415842 -0.821102
C14   C     C_3   0.981436 0.608513 0.602292 -0.429458
C15   C     C_3   0.503684 0.175861 0.909316 -0.838415
C16   C     C_3   0.493433 0.477713 0.082767 0.167138
C17   C     C_3   0.398342 0.324065 0.050411 -0.026962
C18   C     C_3   0.411783 0.318890 0.949553 0.655078
C19   C     C_1   0.492214 0.486020 0.174485 -0.029959
C20   C     C_1   0.503685 0.486181 0.825254 0.036777
C21   C     C_1   0.504257 0.493356 0.750069 -0.151646
C22   C     C_2   0.566369 0.953395 0.472359 0.000775
F1    F     F_    0.761292 0.641896 0.919906 -0.652253
F2    F     F_    0.245865 0.306267 0.923030 -0.666209
H1    H     H_    0.466701 0.730640 0.074128 0.211507
H2    H     H_    0.259951 0.332546 0.071858 0.199212
H3    H     H_    0.423509 0.181986 0.163133 0.250450
H4    H     H_    0.374152 0.070828 0.070440 0.260462
H5    H     H_    0.589462 0.155149 0.079498 0.257134
H6    H     H_    0.783389 0.907090 0.380837 0.230091
H7    H     H_    0.688633 0.087596 0.366489 0.237793
H8    H     H_    0.822844 0.064880 0.455094 0.256540
H9    H     H_    0.084444 0.682910 0.630173 0.181014
H10   H     H_    0.877405 0.686506 0.593254 0.211119
H11   H     H_    0.942994 0.514545 0.648239 0.203515
H12   H     H_    0.260454 0.601648 0.938332 0.230246
H13   H     H_    0.427118 0.066059 0.924823 0.262091
H14   H     H_    0.516091 0.181587 0.838636 0.233775
H15   H     H_    0.633724 0.167462 0.931874 0.202680
H16   H     H_    0.266014 0.618342 0.083335 0.187574
H17   H     H_    0.317121 0.994683 0.532236 0.156447
H18   H     H_    0.013290 0.399885 0.427231 0.177209
H19   H     H_    0.449785 0.728742 0.930076 0.221891
H20   H     H_    0.767528 0.407292 0.915915 0.112181
H21   H     H_    0.750810 0.595178 0.069999 0.222829
H22   H     H_    0.751827 0.387261 0.061433 0.151972
N1    N     N_2   0.950340 0.457950 0.477370 -0.134949
N2    N     N_2   0.049660 0.542050 0.522630 -0.051517
O1    O     O_R   0.389240 0.738570 0.505550 -0.629822
O2    O     O_R   0.678400 0.711630 0.491050 -0.629635
O3    O     O_R   0.355360 0.513470 0.630110 -0.605209
O4    O     O_R   0.644510 0.486530 0.615610 -0.633173
O5    O     O_R   0.321600 0.288370 0.508950 -0.626356
O6    O     O_R   0.610760 0.261430 0.494450 -0.599077
O7    O     O_R   0.355490 0.513470 0.384390 -0.625033
O8    O     O_R   0.644640 0.486530 0.369890 -0.618778
Zn1   Zn    Zn3+2 0.306930 0.517990 0.509680 0.951683
Zn2   Zn    Zn3+2 0.693070 0.482010 0.490320 0.938426

loop_
_geom_bond_atom_site_label_1
_geom_bond_atom_site_label_2
_ccdc_geom_bond_type
C6    C10   S    
C7    C10   S    
C2    C4    S    
C3    O4    A    
C15   H14   S    
C14   H10   S    
O3    Zn1   S    
C4    O5    A    
C15   C18   S    
C1    O2    A    
C5    O8    A    
C1    C22   S    
N1    N2    D    
C11   H3    S    
C12   H1    S    
C6    H19   S    
C14   H9    S    
C17   C18   S    
N2    Zn1   S    
C8    C16   S    
C2    C22   D    
N1    Zn2   S    
C5    C9    S    
C15   H15   S    
O4    Zn2   S    
C11   H4    S    
C10   C18   S    
C16   C19   S    
C7    F1    S    
C17   H2    S    
C6    H12   S    
C13   C22   S    
H18   N1    S    
O7    Zn1   S    
C6    C12   S    
C13   H7    S    
C8    H22   S    
C3    C21   S    
C2    H17   S    
O2    Zn2   S    
C13   H6    S    
C7    C8    S    
O1    Zn1   S    
C20   C21   T    
C11   H5    S    
C18   F2    S    
C9    C19   T    
O6    Zn2   S    
C10   C20   S    
C14   H11   S    
C3    O3    A    
C8    H21   S    
C11   C17   S    
C14   N2    S    
C12   H16   S    
C13   H8    S    
C4    O6    A    
C7    H20   S    
C1    O1    A    
C5    O7    A    
C15   H13   S    
C12   C16   S    
O8    Zn2   S    
C16   C17   S    
O5    Zn1   S    
