data_mof_unit_34489.cif
_audit_creation_date              2012-12-10T16:48:42-0500
_audit_creation_method            fapswitch 2.2
_symmetry_space_group_name_H-M    P1
_symmetry_Int_Tables_number       1
_space_group_crystal_system       triclinic
_cell_length_a                    7.902099
_cell_length_b                    8.599686
_cell_length_c                    10.394629
_cell_angle_alpha                 90.968675
_cell_angle_beta                  97.081916
_cell_angle_gamma                 92.417639
_cell_volume                      700.185894121

loop_
_atom_site_label
_atom_site_type_symbol
_atom_type_description
_atom_site_fract_x
_atom_site_fract_y
_atom_site_fract_z
_atom_type_partial_charge
C1    C     C_R   0.543210 0.793627 0.500371 0.958270
C2    C     C_R   0.456638 0.206390 0.499394 0.929016
C3    C     C_R   0.567067 0.484751 0.737261 0.903814
C4    C     C_R   0.430003 0.498663 0.262332 0.904884
C5    C     C_2   0.592043 0.449948 0.875100 -0.004932
C6    C     C_2   0.394084 0.475251 0.122392 -0.002374
C7    C     C_2   0.473872 0.355914 0.924870 0.209041
C8    C     C_2   0.466938 0.356042 0.064855 0.216512
C9    C     C_2   0.564789 0.955184 0.523600 -0.017329
C10   C     C_2   0.434657 0.044769 0.477067 -0.007199
N1    N     N_2   0.940600 0.458860 0.467170 0.015398
N2    N     N_2   0.059400 0.541140 0.532830 0.004142
O1    O     O_R   0.391630 0.738350 0.508060 -0.612816
O2    O     O_R   0.608370 0.261650 0.491940 -0.612027
O3    O     O_R   0.674540 0.711990 0.487010 -0.626600
O4    O     O_R   0.325460 0.288010 0.512990 -0.635687
O5    O     O_R   0.411370 0.508250 0.688780 -0.613426
O6    O     O_R   0.588630 0.491750 0.311220 -0.608341
O7    O     O_R   0.694270 0.481880 0.667740 -0.618502
O8    O     O_R   0.305730 0.518120 0.332260 -0.622685
Zn1   Zn    Zn3+2 0.311100 0.517600 0.514050 0.924439
Zn2   Zn    Zn3+2 0.688900 0.482400 0.485950 0.929983
C11   C     C_3   0.539205 0.218386 0.138149 -0.933884
H1    H     H_    0.571799 0.126305 0.070263 0.243822
H2    H     H_    0.657309 0.252716 0.202270 0.259221
H3    H     H_    0.443302 0.167408 0.196307 0.230880
C12   C     C_3   0.342535 0.251195 0.842648 -0.880840
H4    H     H_    0.281112 0.166316 0.903813 0.234974
H5    H     H_    0.239427 0.319913 0.792642 0.268488
H6    H     H_    0.404557 0.183719 0.771063 0.220638
C13   C     C_3   0.288392 0.592103 0.045190 -0.962735
H7    H     H_    0.239161 0.678786 0.110074 0.246889
H8    H     H_    0.366515 0.656092 0.979908 0.252694
H9    H     H_    0.177566 0.531134 0.986458 0.261768
C14   C     C_3   0.741851 0.528203 0.959768 -0.960499
H10   H     H_    0.824114 0.598378 0.901251 0.237851
H11   H     H_    0.696539 0.607393 0.032387 0.257988
H12   H     H_    0.820587 0.438713 0.010761 0.259267
C15   C     C_3   0.716609 0.010038 0.621043 -0.913674
H13   H     H_    0.772510 0.911386 0.676590 0.222990
H14   H     H_    0.818325 0.065104 0.570141 0.266690
H15   H     H_    0.677245 0.092837 0.693760 0.240479
C16   C     C_3   0.281137 0.989143 0.381493 -0.918289
H16   H     H_    0.220965 0.087178 0.328068 0.216054
H17   H     H_    0.320035 0.908326 0.307065 0.241075
H18   H     H_    0.182312 0.931867 0.433723 0.267800
C17   C     C_3   0.974840 0.346446 0.370165 -0.523829
H19   H     H_    0.916353 0.231639 0.391049 0.172920
H20   H     H_    0.915806 0.383998 0.274102 0.172054
H21   H     H_    0.107999 0.331618 0.362511 0.234630
C18   C     C_3   0.017460 0.679286 0.600125 -0.512793
H22   H     H_    0.134746 0.727508 0.659486 0.182627
H23   H     H_    0.975710 0.769215 0.529542 0.195668
H24   H     H_    0.924387 0.654619 0.668190 0.205497

loop_
_geom_bond_atom_site_label_1
_geom_bond_atom_site_label_2
_ccdc_geom_bond_type
N1    N2    D    
C13   H8    S    
C3    O7    A    
O4    Zn1   S    
C1    O3    A    
C17   H21   S    
C2    O4    A    
C9    C10   D    
N1    Zn2   S    
N1    C17   S    
C13   H7    S    
C7    C12   S    
C16   H16   S    
C18   H24   S    
C4    O6    A    
N2    C18   S    
C6    C13   S    
C13   H9    S    
O1    Zn1   S    
C7    C8    S    
C17   H20   S    
C12   H6    S    
C16   H17   S    
O2    Zn2   S    
C12   H5    S    
C8    C11   S    
C5    C14   S    
C4    C6    S    
C14   H11   S    
C3    O5    A    
C15   H15   S    
C15   H13   S    
C11   H2    S    
C2    O2    A    
C16   H18   S    
C1    O1    A    
C11   H1    S    
C18   H22   S    
C2    C10   S    
C9    C15   S    
O7    Zn2   S    
C1    C9    S    
O8    Zn1   S    
C15   H14   S    
C11   H3    S    
C12   H4    S    
C5    C7    D    
C14   H12   S    
C6    C8    D    
C18   H23   S    
C10   C16   S    
O6    Zn2   S    
N2    Zn1   S    
O3    Zn2   S    
O5    Zn1   S    
C17   H19   S    
C3    C5    S    
C14   H10   S    
C4    O8    A    
