data_mof_unit_46147.cif
_audit_creation_date              2012-12-10T18:11:45-0500
_audit_creation_method            fapswitch 2.2
_symmetry_space_group_name_H-M    P1
_symmetry_Int_Tables_number       1
_space_group_crystal_system       triclinic
_cell_length_a                    10.527401
_cell_length_b                    12.751931
_cell_length_c                    13.056981
_cell_angle_alpha                 81.84656
_cell_angle_beta                  93.829942
_cell_angle_gamma                 102.478374
_cell_volume                      1692.93947409

loop_
_atom_site_label
_atom_site_type_symbol
_atom_type_description
_atom_site_fract_x
_atom_site_fract_y
_atom_site_fract_z
_atom_type_partial_charge
C1    C     C_R   0.490602 0.439265 0.691294 0.812304
C2    C     C_R   0.515458 0.444568 0.976243 0.088136
C3    C     C_R   0.556319 0.464732 0.873826 0.097276
C4    C     C_R   0.741564 0.500410 0.503225 0.932182
C5    C     C_R   0.558247 0.526228 0.040398 0.070198
C6    C     C_R   0.660179 0.615749 0.009834 0.174939
C7    C     C_R   0.715456 0.624253 0.914117 -0.261607
C8    C     C_R   0.663321 0.549881 0.846265 -0.216435
C9    C     C_R   0.498696 0.522659 0.132829 -0.234860
C10   C     C_R   0.652721 0.682808 0.173434 -0.198179
C11   C     C_R   0.487438 0.399683 0.801506 -0.104296
C12   C     C_3   0.044131 0.563098 0.412507 0.351880
C13   C     C_R   0.391793 0.116295 0.306917 -0.363948
C14   C     C_R   0.635083 0.791823 0.645248 0.078901
C15   C     C_R   0.661647 0.891968 0.681294 -0.238945
C16   C     C_R   0.517711 0.560435 0.309140 0.916382
C17   C     C_R   0.617579 0.978583 0.624284 -0.192642
C18   C     C_R   0.549825 0.966429 0.528528 -0.007720
C19   C     C_R   0.525890 0.862535 0.493233 0.137330
C20   C     C_R   0.500092 0.052179 0.468053 -0.000148
C21   C     C_R   0.450626 0.039094 0.366232 0.049223
C22   C     C_R   0.447494 0.944237 0.326994 -0.272363
C23   C     C_3   0.987857 0.602340 0.501759 0.374864
C24   C     C_R   0.463507 0.853632 0.393543 0.378653
C25   C     C_R   0.493535 0.149755 0.504105 -0.136205
C26   C     C_R   0.377990 0.205948 0.349805 0.659184
C27   C     C_R   0.257472 0.499634 0.495737 0.988316
C28   C     C_3   0.949253 0.435210 0.584692 -0.371092
C29   C     C_3   0.063197 0.535796 0.582590 -0.258130
C30   C     C_3   0.120314 0.496993 0.492432 -0.222850
C31   C     C_3   0.007198 0.397291 0.494564 0.425888
C32   C     C_3   0.933571 0.463371 0.413845 0.253173
C33   C     C_3   0.185203 0.245945 0.282643 0.094322
C34   C     C_3   0.876623 0.502615 0.503171 -0.230601
C35   C     C_3   0.142118 0.251654 0.168796 -0.946772
C36   C     C_3   0.912098 0.215105 0.512697 0.074430
C37   C     C_3   0.923704 0.107908 0.479741 -0.806597
C38   C     C_3   0.913114 0.387411 0.260859 0.098305
C39   C     C_3   0.834277 0.384580 0.158864 -0.819912
C40   C     C_3   0.999715 0.672713 0.261927 0.199356
C41   C     C_3   0.058298 0.789653 0.220584 -0.760900
C42   C     C_R   0.705681 0.694420 0.076253 -0.226904
C43   C     C_R   0.550808 0.594899 0.202012 -0.020166
C44   C     C_R   0.402302 0.301758 0.835455 -0.182230
C45   C     C_R   0.379457 0.272254 0.940134 -0.152840
C46   C     C_R   0.432919 0.343922 0.010154 -0.211110
Cl1   Cl    Cl    0.348153 0.745305 0.357979 -0.557627
Cl2   Cl    Cl    0.976391 0.738366 0.510434 -0.614797
H1    H     H_    0.119938 0.565635 0.651296 0.194020
H2    H     H_    0.669544 0.725197 0.689949 0.138225
H3    H     H_    0.905210 0.384696 0.654980 0.163064
H4    H     H_    0.641394 0.054980 0.654935 0.133494
H5    H     H_    0.716076 0.902285 0.753798 0.148377
H6    H     H_    0.695176 0.738829 0.227593 0.159828
H7    H     H_    0.796228 0.689986 0.890487 0.151426
H8    H     H_    0.784781 0.762294 0.054524 0.136782
H9    H     H_    0.138691 0.300368 0.319140 0.208042
H10   H     H_    0.148250 0.161791 0.321261 0.137234
H11   H     H_    0.188482 0.198357 0.130022 0.253868
H12   H     H_    0.413615 0.461195 0.154768 0.184482
H13   H     H_    0.034911 0.223681 0.161537 0.225266
H14   H     H_    0.169531 0.336261 0.130020 0.268257
H15   H     H_    0.824407 0.239314 0.471799 0.176441
H16   H     H_    0.898697 0.202891 0.597651 0.151569
H17   H     H_    0.011840 0.082169 0.517241 0.274988
H18   H     H_    0.836835 0.044485 0.502613 0.235204
H19   H     H_    0.930407 0.116523 0.394378 0.230741
H20   H     H_    0.918018 0.302959 0.292771 0.167712
H21   H     H_    0.012821 0.435966 0.244841 0.160402
H22   H     H_    0.826417 0.467916 0.124938 0.254274
H23   H     H_    0.350840 0.249428 0.780880 0.164788
H24   H     H_    0.882568 0.349111 0.103275 0.208646
H25   H     H_    0.734832 0.334684 0.171769 0.266936
H26   H     H_    0.911461 0.672160 0.304881 0.145390
H27   H     H_    0.967666 0.627249 0.195088 0.145462
H28   H     H_    0.142484 0.792985 0.172409 0.259996
H29   H     H_    0.984144 0.826339 0.172441 0.176583
H30   H     H_    0.091594 0.837184 0.285951 0.294344
H31   H     H_    0.411554 0.317904 0.090558 0.178948
H32   H     H_    0.315731 0.195816 0.966504 0.141749
H33   H     H_    0.708171 0.558500 0.772509 0.159980
H34   H     H_    0.405067 0.935017 0.249674 0.183741
H35   H     H_    0.352768 0.105600 0.229217 0.154142
H36   H     H_    0.536415 0.170662 0.577728 0.136810
N1    N     N_R   0.432930 0.222190 0.444670 -0.141399
N2    N     N_R   0.566370 0.776980 0.554790 -0.118794
O1    O     O_R   0.467970 0.366730 0.627150 -0.629196
O2    O     O_3   0.027272 0.292566 0.488551 -0.620278
O3    O     O_3   0.849135 0.431821 0.329799 -0.608496
O4    O     O_3   0.095974 0.626348 0.321501 -0.565254
O5    O     O_R   0.510820 0.544830 0.662520 -0.628005
O6    O     O_R   0.664630 0.410960 0.482340 -0.601632
O7    O     O_R   0.707470 0.589060 0.517710 -0.603149
O8    O     O_R   0.489180 0.455170 0.337480 -0.566214
O9    O     O_R   0.532030 0.633270 0.372850 -0.584612
O10   O     O_R   0.292530 0.410940 0.482290 -0.584715
O11   O     O_R   0.335370 0.589040 0.517660 -0.550683
O12   O     O_3   0.321352 0.284031 0.292133 -0.617248
Zn1   Zn    Zn3+2 0.471390 0.381080 0.476380 0.998161
Zn2   Zn    Zn3+2 0.528610 0.618920 0.523620 1.004936

loop_
_geom_bond_atom_site_label_1
_geom_bond_atom_site_label_2
_ccdc_geom_bond_type
C1    O1    A    
C33   H10   S    
C10   C42   A    
C1    C11   S    
C7    H7    S    
C19   N2    A    
C7    C8    A    
C29   H1    S    
C45   C46   A    
C36   O2    S    
C38   O3    S    
C22   H34   S    
C23   C29   S    
C12   O4    S    
C36   C37   S    
C18   C19   A    
C41   H29   S    
C5    C6    A    
C28   H3    S    
C20   C25   A    
O10   Zn1   S    
C44   H23   S    
C35   H11   S    
C33   O12   S    
C42   H8    S    
C27   O11   A    
C46   H31   S    
C31   C32   S    
C37   H17   S    
C25   H36   S    
C39   H24   S    
C31   O2    S    
O5    Zn2   S    
C35   H14   S    
C36   H15   S    
N2    Zn2   S    
C38   H21   S    
C28   C34   S    
C1    O5    A    
C21   C22   A    
C12   C32   S    
C27   C30   S    
C27   O10   A    
O7    Zn2   S    
C17   H4    S    
O1    Zn1   S    
C38   C39   S    
C4    C34   S    
C9    C43   A    
C14   H2    S    
C8    H33   S    
C14   N2    A    
C3    C8    A    
C41   H30   S    
O9    Zn2   S    
C2    C46   A    
C32   C34   S    
C5    C9    A    
C29   C30   S    
N1    Zn1   S    
C32   O3    S    
C12   C23   S    
C23   C34   S    
C37   H18   S    
C25   N1    A    
C17   C18   A    
C13   C21   A    
C11   C44   A    
C35   H13   S    
C16   C43   S    
C26   O12   S    
C40   C41   S    
C38   H20   S    
C22   C24   A    
C13   C26   A    
C2    C5    A    
C15   H5    S    
O11   Zn2   S    
C44   C45   A    
C15   C17   A    
C28   C29   S    
C16   O9    A    
C33   H9    S    
C23   Cl2   S    
C12   C30   S    
C10   C43   A    
C24   Cl1   S    
C28   C31   S    
C6    C7    A    
C13   H35   S    
C16   O8    A    
C40   H27   S    
C9    H12   S    
C2    C3    A    
C41   H28   S    
C30   C31   S    
O8    Zn1   S    
C26   N1    A    
C37   H19   S    
C33   C35   S    
C39   H22   S    
C40   H26   S    
C19   C24   A    
C45   H32   S    
C18   C20   A    
C39   H25   S    
C10   H6    S    
C3    C11   A    
C4    O7    A    
C20   C21   A    
C6    C42   A    
C14   C15   A    
C40   O4    S    
C36   H16   S    
O6    Zn1   S    
C4    O6    A    
