data_mof_unit_11408.cif
_audit_creation_date              2013-03-05T16:00:40-0500
_audit_creation_method            fapswitch 2.2
_symmetry_space_group_name_H-M    P1
_symmetry_Int_Tables_number       1
_space_group_crystal_system       triclinic
_cell_length_a                    6.949306
_cell_length_b                    31.938174
_cell_length_c                    34.517233
_cell_angle_alpha                 90.025048
_cell_angle_beta                  90.294706
_cell_angle_gamma                 90.050018
_cell_volume                      7660.9307992

loop_
_atom_site_label
_atom_site_type_symbol
_atom_site_description
_atom_site_fract_x
_atom_site_fract_y
_atom_site_fract_z
_atom_type_partial_charge
O1    O     O_R   0.417270 0.211480 0.210950 -0.592686
O2    O     O_R   0.582730 0.788520 0.789050 -0.563609
O3    O     O_R   0.582730 0.788520 0.710950 -0.592717
O4    O     O_R   0.417270 0.211480 0.289050 -0.580204
O5    O     O_R   0.917270 0.288520 0.289050 -0.587676
O6    O     O_R   0.082730 0.711480 0.710950 -0.555369
O7    O     O_R   0.082730 0.711480 0.789050 -0.591353
O8    O     O_R   0.917270 0.288520 0.210950 -0.562945
O9    O     O_R   0.746940 0.206370 0.288750 -0.587879
O10   O     O_R   0.253060 0.793630 0.711250 -0.581812
O11   O     O_R   0.253060 0.793630 0.788750 -0.578461
O12   O     O_R   0.746940 0.206370 0.211250 -0.575663
O13   O     O_R   0.246940 0.293630 0.211250 -0.576925
O14   O     O_R   0.753060 0.706370 0.788750 -0.574940
O15   O     O_R   0.753060 0.706370 0.711250 -0.579961
O16   O     O_R   0.246940 0.293630 0.288750 -0.553075
C1    C     C_R   0.577961 0.195985 0.302034 1.051505
C2    C     C_R   0.421487 0.803944 0.697985 1.064240
C3    C     C_R   0.422976 0.804409 0.801890 1.049854
C4    C     C_R   0.577905 0.195839 0.198079 1.069878
C5    C     C_R   0.077106 0.304400 0.198094 1.051810
C6    C     C_R   0.922007 0.695836 0.801925 1.072326
C7    C     C_R   0.922219 0.695467 0.698251 1.045954
C8    C     C_R   0.078570 0.304435 0.301769 1.061203
O17   O     O_3   0.583760 0.276950 0.250000 -0.243981
O18   O     O_3   0.416240 0.723050 0.750000 -0.254114
O19   O     O_3   0.083760 0.223050 0.250000 -0.280052
O20   O     O_3   0.916240 0.776950 0.750000 -0.263159
V1    V     V_3+5 0.858600 0.245000 0.250000 1.311401
V2    V     V_3+5 0.141400 0.755000 0.750000 1.318383
V3    V     V_3+5 0.358600 0.255000 0.250000 1.323603
V4    V     V_3+5 0.641400 0.745000 0.750000 1.319586
C9    C     C_R   0.871103 0.586283 0.537437 0.660417
C10   C     C_R   0.926284 0.414326 0.458156 0.665970
C11   C     C_R   0.116152 0.418228 0.042953 0.685308
C12   C     C_R   0.059260 0.588144 0.959752 0.670815
C13   C     C_R   0.383252 0.918279 0.956903 0.685072
C14   C     C_R   0.439724 0.088153 0.040291 0.670792
C15   C     C_R   0.596948 0.085811 0.461860 0.664277
C16   C     C_R   0.538036 0.913608 0.540360 0.671708
N1    N     N_R   0.895315 0.572265 0.574757 -0.166751
N2    N     N_R   0.957561 0.428893 0.421281 -0.166478
N3    N     N_R   0.088290 0.433241 0.079806 -0.163104
N4    N     N_R   0.028125 0.572481 0.923161 -0.166007
N5    N     N_R   0.411378 0.933329 0.920084 -0.163136
N6    N     N_R   0.470841 0.072473 0.076856 -0.166069
N7    N     N_R   0.575179 0.071879 0.424437 -0.165614
N8    N     N_R   0.508061 0.928117 0.577311 -0.166078
C17   C     C_R   0.924079 0.530579 0.582197 0.675344
C18   C     C_R   0.966303 0.471053 0.414057 0.666649
C19   C     C_R   0.064786 0.475222 0.086390 0.678644
C20   C     C_R   0.022403 0.530125 0.916867 0.660781
C21   C     C_R   0.434925 0.975316 0.913548 0.678961
C22   C     C_R   0.476446 0.030122 0.083110 0.660847
C23   C     C_R   0.547490 0.030211 0.416739 0.671588
C24   C     C_R   0.498625 0.970226 0.584671 0.661104
C25   C     C_R   0.920009 0.501141 0.551872 -0.117377
C26   C     C_R   0.937239 0.500135 0.444114 -0.116413
C27   C     C_R   0.070969 0.503858 0.055431 -0.117864
C28   C     C_R   0.053770 0.501962 0.947612 -0.115520
C29   C     C_R   0.428451 0.003930 0.944530 -0.117673
C30   C     C_R   0.445081 0.001970 0.052338 -0.115324
C31   C     C_R   0.548675 0.000703 0.446977 -0.115907
C32   C     C_R   0.526735 0.999396 0.554701 -0.114456
C33   C     C_R   0.910958 0.515219 0.513303 -0.010200
C34   C     C_R   0.923082 0.485810 0.482520 -0.008333
C35   C     C_R   0.080568 0.488760 0.017178 -0.006562
C36   C     C_R   0.067544 0.517334 0.985721 -0.009163
C37   C     C_R   0.418605 0.988804 0.982760 -0.006621
C38   C     C_R   0.431454 0.017362 0.014247 -0.009232
C39   C     C_R   0.555438 0.014674 0.485615 -0.010398
C40   C     C_R   0.541810 0.985175 0.516263 -0.009441
C41   C     C_R   0.892587 0.558596 0.505534 -0.206777
C42   C     C_R   0.923670 0.442235 0.490170 -0.203086
C43   C     C_R   0.099631 0.445186 0.010382 -0.201347
C44   C     C_R   0.065025 0.561102 0.992395 -0.201926
C45   C     C_R   0.399523 0.945221 0.989504 -0.201167
C46   C     C_R   0.433999 0.061134 0.007621 -0.201813
C47   C     C_R   0.573602 0.058031 0.493590 -0.204720
C48   C     C_R   0.541199 0.941617 0.508450 -0.203193
C49   C     C_R   0.927691 0.458057 0.559425 -0.135837
C50   C     C_R   0.925940 0.543180 0.436536 -0.137360
C51   C     C_R   0.063477 0.547132 0.062000 -0.137622
C52   C     C_R   0.068246 0.458791 0.940970 -0.134307
C53   C     C_R   0.435910 0.047207 0.938008 -0.137841
C54   C     C_R   0.430532 0.958795 0.058931 -0.134495
C55   C     C_R   0.540712 0.957651 0.439255 -0.135488
C56   C     C_R   0.537504 0.042414 0.562452 -0.137178
C57   C     C_R   0.924903 0.428664 0.529387 0.408197
C58   C     C_R   0.899412 0.572242 0.466363 0.407177
C59   C     C_R   0.064935 0.575712 0.031313 0.408017
C60   C     C_R   0.095694 0.430569 0.971465 0.403448
C61   C     C_R   0.434239 0.075769 0.968726 0.408047
C62   C     C_R   0.403217 0.930580 0.028400 0.403443
C63   C     C_R   0.541362 0.928168 0.469186 0.406626
C64   C     C_R   0.564921 0.071572 0.532781 0.405819
O21   O     O_2   0.827264 0.626856 0.531605 -0.417990
O22   O     O_2   0.898649 0.372993 0.463456 -0.417342
O23   O     O_2   0.153966 0.377206 0.038229 -0.425795
O24   O     O_2   0.082848 0.629727 0.964183 -0.420987
O25   O     O_2   0.345412 0.877239 0.961563 -0.425846
O26   O     O_2   0.416191 0.129732 0.035917 -0.420930
O27   O     O_2   0.639779 0.126419 0.467946 -0.423478
O28   O     O_2   0.563824 0.872247 0.534893 -0.421210
O29   O     O_2   0.954614 0.517614 0.618918 -0.476887
O30   O     O_2   0.002464 0.484816 0.377865 -0.479878
O31   O     O_2   0.036020 0.489177 0.122800 -0.478181
O32   O     O_2   0.987040 0.515275 0.880926 -0.481890
O33   O     O_2   0.464007 0.989293 0.877163 -0.478814
O34   O     O_2   0.511731 0.015272 0.119038 -0.482396
O35   O     O_2   0.520687 0.017338 0.379863 -0.479723
O36   O     O_2   0.463683 0.983837 0.620972 -0.482283
H1    H     H_    0.933838 0.446857 0.589027 0.212607
H2    H     H_    0.935814 0.554561 0.407050 0.212732
H3    H     H_    0.057500 0.559119 0.091335 0.212650
H4    H     H_    0.060004 0.446647 0.911697 0.212893
H5    H     H_    0.442038 0.059209 0.908689 0.212566
H6    H     H_    0.438636 0.946641 0.088192 0.212841
H7    H     H_    0.536095 0.946541 0.409605 0.212740
H8    H     H_    0.526779 0.053701 0.591964 0.212937
C65   C     C_R   0.868072 0.395637 0.357881 0.424754
C66   C     C_R   0.761773 0.603204 0.635854 0.408288
C67   C     C_R   0.121705 0.604248 0.859681 0.454565
C68   C     C_R   0.222482 0.400408 0.139609 0.429270
C69   C     C_R   0.377562 0.104228 0.140342 0.456468
C70   C     C_R   0.277686 0.900464 0.860229 0.430227
C71   C     C_R   0.614204 0.895384 0.639634 0.446826
C72   C     C_R   0.719568 0.102516 0.364438 0.423745
C73   C     C_R   0.906005 0.365462 0.329343 -0.219662
C74   C     C_R   0.777094 0.633280 0.665512 -0.224339
C75   C     C_R   0.091539 0.634993 0.831189 -0.222975
C76   C     C_R   0.215182 0.368457 0.167506 -0.216782
C77   C     C_R   0.407964 0.134984 0.168836 -0.226793
C78   C     C_R   0.285134 0.868490 0.832350 -0.219967
C79   C     C_R   0.588298 0.864641 0.668202 -0.221737
C80   C     C_R   0.714420 0.133165 0.335188 -0.209477
H9    H     H_    0.808342 0.362620 0.304932 0.211937
H10   H     H_    0.669273 0.633895 0.687965 0.223956
H11   H     H_    0.194352 0.637833 0.807836 0.196796
H12   H     H_    0.330599 0.366133 0.188586 0.212956
H13   H     H_    0.305184 0.137835 0.192192 0.193772
H14   H     H_    0.169874 0.866116 0.811235 0.211173
H15   H     H_    0.693218 0.862074 0.691410 0.196222
H16   H     H_    0.826981 0.133556 0.313608 0.205493
C81   C     C_R   0.065083 0.338596 0.331439 -0.359317
C82   C     C_R   0.929241 0.662133 0.667530 -0.354865
C83   C     C_R   0.934907 0.662591 0.832377 -0.373330
C84   C     C_R   0.066099 0.338930 0.168474 -0.366116
C85   C     C_R   0.564790 0.162583 0.167638 -0.371992
C86   C     C_R   0.434092 0.838989 0.831461 -0.364835
C87   C     C_R   0.432719 0.836735 0.667296 -0.368915
C88   C     C_R   0.568975 0.163508 0.333205 -0.366678
C89   C     C_R   0.198901 0.343965 0.362272 0.267187
C90   C     C_R   0.078069 0.659296 0.639623 0.271260
C91   C     C_R   0.796704 0.657552 0.862163 0.258671
C92   C     C_R   0.911732 0.343109 0.141591 0.255033
C93   C     C_R   0.702998 0.157531 0.137863 0.258367
C94   C     C_R   0.588294 0.843232 0.858376 0.254334
C95   C     C_R   0.293071 0.840828 0.637502 0.257221
C96   C     C_R   0.418465 0.162034 0.360682 0.255625
C97   C     C_R   0.159440 0.373222 0.392224 0.270357
C98   C     C_R   0.059770 0.630934 0.608185 0.261948
C99   C     C_R   0.828655 0.627812 0.892106 0.283387
C100  C     C_R   0.909384 0.376518 0.114019 0.263732
C101  C     C_R   0.670818 0.127776 0.107921 0.283448
C102  C     C_R   0.590556 0.876682 0.885921 0.263871
C103  C     C_R   0.318368 0.871049 0.607838 0.281294
C104  C     C_R   0.421893 0.131953 0.390790 0.271521
C105  C     C_R   0.993781 0.399117 0.390260 -0.128487
C106  C     C_R   0.903676 0.602355 0.606348 -0.118314
C107  C     C_R   0.992580 0.601298 0.891275 -0.138849
C108  C     C_R   0.072612 0.403676 0.111605 -0.121571
C109  C     C_R   0.506662 0.101275 0.108753 -0.139364
C110  C     C_R   0.427355 0.903791 0.888271 -0.121822
C111  C     C_R   0.479923 0.898351 0.608617 -0.136743
C112  C     C_R   0.572431 0.101996 0.392901 -0.129788
Br1   Br    Br    0.938131 0.371061 0.545573 -0.219410
Br2   Br    Br    0.888660 0.629862 0.450166 -0.224189
Br3   Br    Br    0.051836 0.633714 0.046257 -0.226145
Br4   Br    Br    0.113060 0.372673 0.956348 -0.233690
Br5   Br    Br    0.447314 0.133786 0.953856 -0.226203
Br6   Br    Br    0.385730 0.872670 0.043444 -0.233728
Br7   Br    Br    0.528401 0.870625 0.452743 -0.224068
Br8   Br    Br    0.574880 0.129142 0.549223 -0.227284
N9    N     N_R   0.699952 0.421725 0.353477 0.266994
O37   O     O_R   0.616088 0.438315 0.383310 -0.338288
O38   O     O_R   0.622225 0.427110 0.319451 -0.315774
N10   N     N_R   0.600295 0.574567 0.636318 0.271104
O39   O     O_R   0.554240 0.552247 0.606171 -0.336422
O40   O     O_R   0.492472 0.571629 0.666930 -0.318480
N11   N     N_R   0.287787 0.577455 0.856432 0.267743
O41   O     O_R   0.374635 0.563017 0.887056 -0.334381
O42   O     O_R   0.363589 0.570257 0.822675 -0.326400
N12   N     N_R   0.383434 0.429133 0.140540 0.269707
O43   O     O_R   0.436551 0.449593 0.109840 -0.336445
O44   O     O_R   0.486223 0.433205 0.171955 -0.326897
N13   N     N_R   0.211287 0.077429 0.143581 0.267677
O45   O     O_R   0.124348 0.062966 0.112951 -0.334195
O46   O     O_R   0.135429 0.070246 0.177334 -0.330134
N14   N     N_R   0.116783 0.929141 0.859245 0.269589
O47   O     O_R   0.063541 0.949645 0.889915 -0.336162
O48   O     O_R   0.014190 0.933135 0.827803 -0.330201
N15   N     N_R   0.780255 0.922397 0.642342 0.266459
O49   O     O_R   0.858872 0.938134 0.611524 -0.337803
O50   O     O_R   0.863611 0.928806 0.675681 -0.328641
N16   N     N_R   0.876804 0.072926 0.364832 0.270305
O51   O     O_R   0.926287 0.053244 0.396296 -0.340038
O52   O     O_R   0.979880 0.067216 0.333895 -0.325568
N17   N     N_R   0.379767 0.322227 0.362003 0.259335
O53   O     O_R   0.438139 0.301353 0.392169 -0.239805
O54   O     O_R   0.500659 0.329197 0.334153 -0.383277
N18   N     N_R   0.255479 0.681736 0.645023 0.254686
O55   O     O_R   0.329089 0.703726 0.617086 -0.260181
O56   O     O_R   0.362095 0.673338 0.675058 -0.385255
N19   N     N_R   0.621876 0.681589 0.862102 0.264526
O57   O     O_R   0.625993 0.721969 0.858240 -0.322285
O58   O     O_R   0.458308 0.663551 0.869264 -0.350792
N20   N     N_R   0.764176 0.311804 0.140242 0.269704
O59   O     O_R   0.741829 0.289723 0.108833 -0.234656
O60   O     O_R   0.626173 0.312652 0.165541 -0.362114
N21   N     N_R   0.878051 0.181559 0.137937 0.264457
O61   O     O_R   0.874309 0.221943 0.141788 -0.321935
O62   O     O_R   0.041455 0.163504 0.130777 -0.350778
N22   N     N_R   0.735652 0.811943 0.859794 0.269774
O63   O     O_R   0.757562 0.789905 0.891216 -0.234353
O64   O     O_R   0.873832 0.812748 0.834532 -0.362452
N23   N     N_R   0.124648 0.814737 0.637114 0.264001
O65   O     O_R   0.140599 0.774239 0.637842 -0.324069
O66   O     O_R   0.955170 0.831271 0.632666 -0.353273
N24   N     N_R   0.260025 0.190665 0.358207 0.262777
O67   O     O_R   0.289600 0.230706 0.360810 -0.322542
O68   O     O_R   0.084376 0.176663 0.357616 -0.365231
N25   N     N_R   0.288496 0.377119 0.424748 0.264065
O69   O     O_R   0.351408 0.413842 0.435099 -0.357890
O70   O     O_R   0.303731 0.346358 0.449256 -0.219666
N26   N     N_R   0.201147 0.630850 0.577951 0.261809
O71   O     O_R   0.284301 0.596076 0.567974 -0.349205
O72   O     O_R   0.212884 0.662832 0.554756 -0.216734
N27   N     N_R   0.698977 0.626095 0.924519 0.276306
O73   O     O_R   0.646217 0.590343 0.939086 -0.355727
O74   O     O_R   0.645982 0.660459 0.941689 -0.220830
N28   N     N_R   0.740518 0.383387 0.089449 0.283431
O75   O     O_R   0.732979 0.414086 0.064778 -0.365607
O76   O     O_R   0.581856 0.362632 0.094808 -0.277620
N29   N     N_R   0.800469 0.126033 0.075506 0.276216
O77   O     O_R   0.852923 0.090269 0.060930 -0.355855
O78   O     O_R   0.853760 0.160384 0.058343 -0.220842
N30   N     N_R   0.759223 0.883638 0.910546 0.283319
O79   O     O_R   0.766827 0.914463 0.935111 -0.365968
O80   O     O_R   0.917726 0.862838 0.905324 -0.277102
N31   N     N_R   0.184593 0.872494 0.575813 0.275655
O81   O     O_R   0.128431 0.908127 0.561457 -0.352782
O82   O     O_R   0.130795 0.838045 0.558748 -0.218902
N32   N     N_R   0.276317 0.133236 0.420348 0.271004
O83   O     O_R   0.200456 0.098913 0.433583 -0.346034
O84   O     O_R   0.228629 0.168724 0.436143 -0.219995

loop_
_geom_bond_atom_site_label_1
_geom_bond_atom_site_label_2
_geom_bond_distance
_ccdc_geom_bond_type
O17   V3    1.714016 S    
N12   O44   1.301815 A    
N15   O49   1.299491 A    
C56   C64   1.398197 A    
O18   V4    1.714018 S    
C13   N5    1.373797 A    
O12   V1    1.974724 S    
O19   V1    1.715134 S    
C37   C45   1.417628 A    
C65   C105  1.419259 A    
N27   O73   1.301064 A    
C10   N2    1.373666 A    
C60   Br4   1.925145 S    
C10   O22   1.346506 S    
C69   C109  1.418746 A    
N22   O63   1.301598 A    
C58   Br2   1.924974 S    
N9    O37   1.298867 A    
C103  N31   1.441488 S    
N31   O81   1.300887 A    
C29   C37   1.407402 A    
C4    C85   1.496101 S    
O16   V3    1.980966 S    
N15   O50   1.301685 A    
C22   O34   1.349290 S    
C52   H4    1.083390 S    
O8    V1    1.980233 S    
C42   C57   1.421510 A    
C15   N7    1.373614 A    
C71   C79   1.404020 A    
C41   C58   1.421777 A    
C8    C81   1.499397 S    
N19   O58   1.298828 A    
C80   H16   1.083001 S    
N16   O52   1.301760 A    
C88   C96   1.416287 A    
N9    O38   1.301746 A    
C38   C46   1.416801 A    
N13   O45   1.299491 A    
C46   C61   1.421808 A    
C101  C109  1.420287 A    
C78   C86   1.400814 A    
C11   N3    1.373925 A    
C45   C62   1.422001 A    
O1    V3    1.979908 S    
C3    C86   1.505168 S    
C17   C25   1.406859 A    
N26   O71   1.299535 A    
C68   C76   1.404428 A    
O3    C2    1.301735 A    
O2    V4    1.979903 S    
N22   O64   1.300652 A    
C98   C106  1.418223 A    
N13   O46   1.301641 A    
C16   N8    1.373773 A    
O11   C3    1.308505 A    
N32   O84   1.301423 A    
C54   C62   1.398365 A    
C27   C35   1.407398 A    
C61   Br5   1.925110 S    
C26   C34   1.406475 A    
O11   V2    1.974722 S    
C95   C103  1.418914 A    
N14   O47   1.300109 A    
C66   C106  1.421552 A    
C23   C31   1.406576 A    
C90   N18   1.436782 S    
C24   C32   1.406701 A    
C75   C83   1.401964 A    
C95   N23   1.436173 S    
C56   H8    1.083378 S    
C83   C91   1.419641 A    
N25   O69   1.300592 A    
C73   C81   1.401578 A    
N7    C112  1.453006 S    
C70   C110  1.421033 A    
O9    V1    1.980852 S    
N8    C111  1.453412 S    
C98   N26   1.436967 S    
N4    C20   1.370537 A    
C67   N11   1.442175 S    
O15   C7    1.307851 A    
N12   O43   1.300129 A    
N7    C23   1.370155 A    
C100  N28   1.461117 S    
C49   C57   1.398427 A    
O16   C8    1.302317 A    
O7    V2    1.980233 S    
N29   O77   1.301066 A    
O17   V1    2.166234 S    
C30   C38   1.406653 A    
O12   C4    1.301289 A    
N24   O67   1.298060 A    
C72   N16   1.445310 S    
C64   Br8   1.925137 S    
C19   O31   1.349187 S    
C11   O23   1.346485 S    
N1    C17   1.370640 A    
C14   N6    1.374194 A    
C80   C88   1.402307 A    
C40   C48   1.416943 A    
N30   O80   1.300102 A    
N17   O53   1.299944 A    
O5    V1    1.976545 S    
C37   C38   1.420941 A    
C71   C111  1.419839 A    
C7    C82   1.503301 S    
C102  C110  1.430037 A    
C72   C112  1.421737 A    
O19   V3    2.164664 S    
C35   C36   1.421276 A    
C76   C84   1.400874 A    
C5    C84   1.505886 S    
C51   H3    1.083374 S    
O20   V4    2.164662 S    
C101  N29   1.441249 S    
C9    N1    1.373517 A    
C50   H2    1.083368 S    
N27   O74   1.301470 A    
C33   C41   1.416969 A    
C93   C101  1.420425 A    
C75   H11   1.083679 S    
N16   O51   1.300010 A    
C17   O29   1.349426 S    
O8    C5    1.300846 A    
C14   C46   1.420054 A    
C91   C99   1.420761 A    
C67   C75   1.405133 A    
O6    V2    1.976550 S    
C39   C47   1.417094 A    
N11   O41   1.299484 A    
C21   O33   1.349204 S    
C55   C63   1.398156 A    
N10   O39   1.299600 A    
C65   N9    1.443031 S    
C87   C95   1.416545 A    
N24   O68   1.299675 A    
N19   O57   1.296890 A    
N11   O42   1.301644 A    
C55   H7    1.083380 S    
N21   O61   1.296889 A    
C27   C51   1.401511 A    
N2    C105  1.454838 S    
C78   H14   1.082764 S    
C49   H1    1.083374 S    
O10   V2    1.980850 S    
C52   C60   1.398526 A    
N28   O76   1.300093 A    
N23   O65   1.298513 A    
C68   C108  1.421207 A    
C73   H9    1.082950 S    
C53   H5    1.083376 S    
C104  N32   1.441076 S    
N6    C22   1.370389 A    
C16   C48   1.419506 A    
N28   O75   1.299844 A    
N6    C109  1.454724 S    
C77   C85   1.401881 A    
C54   H6    1.083393 S    
C36   C44   1.416788 A    
O9    C1    1.305442 A    
C48   C63   1.421541 A    
C91   N19   1.437716 S    
N25   O70   1.300758 A    
C92   C100  1.430135 A    
C29   C53   1.401442 A    
C43   C60   1.422065 A    
N2    C18   1.370884 A    
C104  C112  1.419917 A    
O4    C1    1.299522 A    
N14   O48   1.301816 A    
C9    C41   1.420553 A    
C18   C26   1.407646 A    
N23   O66   1.299555 A    
C72   C80   1.406898 A    
C31   C39   1.406725 A    
O18   V2    2.166234 S    
C57   Br1   1.925051 S    
N29   O78   1.301472 A    
C82   C90   1.419900 A    
C96   N24   1.434090 S    
C12   N4    1.374334 A    
C1    C88   1.496357 S    
C35   C43   1.417623 A    
C21   C29   1.407352 A    
C2    C87   1.492222 S    
C74   H10   1.080952 S    
C99   C107  1.420424 A    
N30   O79   1.299869 A    
C30   C54   1.401342 A    
C103  C111  1.421081 A    
C23   O35   1.349394 S    
C69   C77   1.404819 A    
C81   C89   1.419949 A    
N8    C24   1.370250 A    
C100  C108  1.430130 A    
C65   C73   1.403880 A    
O1    C4    1.303430 A    
C94   N22   1.432110 S    
C86   C94   1.420988 A    
C63   Br7   1.925128 S    
C31   C55   1.401476 A    
O2    C3    1.300889 A    
C90   C98   1.418368 A    
C11   C43   1.420607 A    
C99   N27   1.441234 S    
O14   V4    1.976301 S    
C6    C83   1.496814 S    
C59   Br3   1.925092 S    
C97   N25   1.438586 S    
O15   V4    1.980967 S    
C70   N14   1.446279 S    
C92   N20   1.432136 S    
N3    C108  1.452668 S    
C12   O24   1.346560 S    
O20   V2    1.715133 S    
C15   O27   1.346573 S    
C66   N10   1.447205 S    
C76   H12   1.082765 S    
O7    C6    1.303446 A    
C84   C92   1.421188 A    
N1    C106  1.454076 S    
C77   H13   1.083677 S    
C50   C58   1.398893 A    
N20   O60   1.300651 A    
N21   O62   1.298824 A    
C28   C36   1.406643 A    
C102  N30   1.461105 S    
O14   C6    1.301454 A    
N32   O83   1.300075 A    
C26   C50   1.401756 A    
C16   O28   1.346600 S    
N4    C107  1.455302 S    
C97   C105  1.419430 A    
C39   C40   1.420363 A    
C14   O26   1.346578 S    
C24   O36   1.349363 S    
N5    C110  1.452125 S    
O13   C5    1.308738 A    
C74   C82   1.403360 A    
C13   O25   1.346500 S    
C28   C52   1.401414 A    
N3    C19   1.369876 A    
N20   O59   1.301604 A    
O5    C8    1.304344 A    
C13   C45   1.420267 A    
O10   C2    1.301187 A    
C79   C87   1.400767 A    
O6    C7    1.300647 A    
C51   C59   1.398661 A    
C79   H15   1.083609 S    
N17   O54   1.299089 A    
C93   N21   1.437746 S    
N26   O72   1.300883 A    
C25   C49   1.401613 A    
C32   C40   1.406642 A    
O3    V4    1.977876 S    
O13   V3    1.976299 S    
C96   C104  1.415731 A    
N10   O40   1.301858 A    
O4    V3    1.977876 S    
N31   O82   1.301425 A    
N18   O56   1.299365 A    
C44   C59   1.421870 A    
N5    C21   1.369749 A    
C69   N13   1.442193 S    
C94   C102  1.429877 A    
C47   C64   1.421620 A    
C53   C61   1.398502 A    
C19   C27   1.407680 A    
N18   O55   1.299928 A    
C70   C78   1.404019 A    
C20   C28   1.407662 A    
C33   C34   1.420730 A    
C68   N12   1.446235 S    
C18   O30   1.349258 S    
C22   C30   1.407332 A    
C20   O32   1.349272 S    
C10   C42   1.419641 A    
C62   Br6   1.925166 S    
C9    O21   1.346409 S    
C85   C93   1.419547 A    
C32   C56   1.401485 A    
C71   N15   1.442822 S    
C12   C44   1.420393 A    
C66   C74   1.407084 A    
C89   C97   1.421172 A    
C67   C107  1.418928 A    
C15   C47   1.419684 A    
C89   N17   1.436504 S    
C25   C33   1.406483 A    
C34   C42   1.416651 A    
