data_mof_unit_20459.cif
_audit_creation_date              2012-12-10T17:40:25-0500
_audit_creation_method            fapswitch 2.2
_symmetry_space_group_name_H-M    P1
_symmetry_Int_Tables_number       1
_space_group_crystal_system       triclinic
_cell_length_a                    13.685569
_cell_length_b                    15.070044
_cell_length_c                    15.655162
_cell_angle_alpha                 89.524282
_cell_angle_beta                  70.481706
_cell_angle_gamma                 89.692334
_cell_volume                      3043.09668345

loop_
_atom_site_label
_atom_site_type_symbol
_atom_type_description
_atom_site_fract_x
_atom_site_fract_y
_atom_site_fract_z
_atom_type_partial_charge
C1    C     C_R   0.499735 0.671510 0.500105 0.814999
C2    C     C_R   0.499395 0.768294 0.500316 -0.094930
C3    C     C_R   0.581455 0.184930 0.515297 -0.205091
C4    C     C_R   0.419074 0.815185 0.483362 -0.209973
C5    C     C_R   0.581821 0.092544 0.515384 0.067183
C6    C     C_R   0.419074 0.907616 0.482582 0.069053
C7    C     C_R   0.500597 0.046595 0.498511 -0.001913
C8    C     C_R   0.500432 0.953577 0.499229 -0.001565
C9    C     C_R   0.419519 0.093702 0.481114 0.024270
C10   C     C_R   0.581654 0.906499 0.516431 0.020339
C11   C     C_R   0.661911 0.045636 0.532612 -0.306646
C12   C     C_R   0.500356 0.328523 0.499635 0.797828
C13   C     C_R   0.339292 0.954573 0.464820 -0.308546
C14   C     C_R   0.663225 0.952869 0.532003 0.427550
C15   C     C_R   0.338293 0.047376 0.464944 0.426196
C16   C     C_R   0.437606 0.496783 0.672553 0.790050
C17   C     C_R   0.562330 0.494193 0.327425 0.789703
C18   C     C_R   0.226118 0.560612 0.448114 -0.003639
C19   C     C_R   0.773489 0.440060 0.552782 0.003629
C20   C     C_R   0.187077 0.439801 0.552401 -0.003297
C21   C     C_R   0.813149 0.559762 0.447125 0.005440
C22   C     C_R   0.083552 0.438261 0.553587 -0.004674
C23   C     C_R   0.441079 0.337833 0.052460 -0.229048
C24   C     C_R   0.916644 0.561311 0.446016 -0.004889
C25   C     C_R   0.051868 0.499879 0.499924 0.088059
C26   C     C_R   0.948233 0.499834 0.499881 0.087943
C27   C     C_R   0.123687 0.561714 0.446489 -0.001968
C28   C     C_R   0.876203 0.438396 0.553790 -0.006533
C29   C     C_R   0.011230 0.376971 0.607031 -0.215071
C30   C     C_R   0.988965 0.622610 0.392594 -0.215657
C31   C     C_R   0.908461 0.377070 0.607186 -0.205872
C32   C     C_R   0.091511 0.622925 0.392962 -0.207732
C33   C     C_R   0.403203 0.471501 0.768700 -0.079645
C34   C     C_R   0.636754 0.477275 0.896939 -0.215216
C35   C     C_R   0.599885 0.481218 0.228080 -0.081408
C36   C     C_R   0.315531 0.359483 0.878532 -0.206559
C37   C     C_R   0.729142 0.520059 0.085619 -0.200121
C38   C     C_R   0.327697 0.405413 0.798468 -0.220246
C39   C     C_R   0.693571 0.521356 0.178939 -0.223010
C40   C     C_R   0.461887 0.496830 0.823384 0.028112
C41   C     C_R   0.544003 0.430373 0.182678 0.025892
C42   C     C_R   0.462725 0.439172 0.896145 0.062418
C43   C     C_R   0.575359 0.435976 0.084618 0.053849
C44   C     C_R   0.384093 0.374093 0.926119 0.139080
C45   C     C_R   0.376743 0.322116 0.001864 -0.230210
C46   C     C_R   0.668981 0.483273 0.038611 0.137018
C47   C     C_R   0.537206 0.444204 0.941214 0.054901
C48   C     C_R   0.516085 0.405954 0.029107 0.060744
C49   C     C_3   0.457970 0.369738 0.241291 -0.373534
C50   C     C_3   0.348296 0.406911 0.256554 -0.319740
C51   C     C_3   0.265326 0.344152 0.315286 -0.811900
C52   C     C_3   0.505984 0.591169 0.811157 -0.382650
C53   C     C_3   0.462967 0.645894 0.898226 -0.352012
C54   C     C_3   0.501399 0.741539 0.882752 -0.827901
C55   C     C_3   0.828283 0.901534 0.473095 0.044207
C56   C     C_R   0.702348 0.495640 0.944866 -0.223109
C57   C     C_3   0.910481 0.844464 0.492649 -0.777317
C58   C     C_3   0.173415 0.099693 0.521843 0.044176
C59   C     C_3   0.093092 0.158288 0.501210 -0.785384
C60   C     C_R   0.420891 0.186308 0.481036 -0.235101
C61   C     C_R   0.580049 0.813896 0.516976 -0.227824
C62   C     C_R   0.501052 0.231825 0.498561 -0.089179
Cu1   Cu    Cu3+1 0.402580 0.500010 0.499990 0.925924
Cu2   Cu    Cu3+1 0.597420 0.499990 0.500010 0.934786
H1    H     H_    0.320047 0.269273 0.022864 0.145966
H2    H     H_    0.145617 0.671038 0.351386 0.134035
H3    H     H_    0.738467 0.556707 0.213089 0.154393
H4    H     H_    0.281487 0.386120 0.757410 0.151435
H5    H     H_    0.256546 0.308567 0.900260 0.138538
H6    H     H_    0.801165 0.553850 0.049862 0.138193
H7    H     H_    0.432787 0.291233 0.105639 0.164831
H8    H     H_    0.666217 0.485567 0.824290 0.148915
H9    H     H_    0.359438 0.223265 0.467534 0.187620
H10   H     H_    0.641610 0.776996 0.530395 0.193815
H11   H     H_    0.643417 0.220264 0.528969 0.147609
H12   H     H_    0.777235 0.524906 0.909043 0.145684
H13   H     H_    0.356899 0.779811 0.470081 0.147155
H14   H     H_    0.723712 0.080820 0.546631 0.155200
H15   H     H_    0.277596 0.919400 0.450629 0.154499
H16   H     H_    0.275711 0.333510 0.382003 0.261157
H17   H     H_    0.187324 0.373390 0.326897 0.239190
H18   H     H_    0.269890 0.279248 0.281051 0.258572
H19   H     H_    0.339396 0.472068 0.290465 0.235254
H20   H     H_    0.333750 0.419250 0.192174 0.219201
H21   H     H_    0.470178 0.300668 0.217628 0.168882
H22   H     H_    0.465647 0.358040 0.308656 0.202641
H23   H     H_    0.282302 0.607692 0.407389 0.121575
H24   H     H_    0.587389 0.743184 0.861196 0.260204
H25   H     H_    0.475616 0.774043 0.829944 0.256384
H26   H     H_    0.469352 0.779305 0.946741 0.240140
H27   H     H_    0.376817 0.646038 0.920899 0.220074
H28   H     H_    0.487253 0.616842 0.953329 0.232115
H29   H     H_    0.591510 0.592415 0.785541 0.198333
H30   H     H_    0.483309 0.627093 0.758318 0.191079
H31   H     H_    0.861787 0.968420 0.450715 0.146612
H32   H     H_    0.807942 0.869809 0.417159 0.133186
H33   H     H_    0.879209 0.777121 0.514979 0.252759
H34   H     H_    0.717030 0.393503 0.594111 0.126651
H35   H     H_    0.979419 0.838456 0.430440 0.195704
H36   H     H_    0.934426 0.875166 0.546791 0.249419
H37   H     H_    0.193239 0.130650 0.578416 0.133544
H38   H     H_    0.138489 0.033183 0.543726 0.148304
H39   H     H_    0.070276 0.128854 0.445869 0.250691
H40   H     H_    0.023207 0.164334 0.562613 0.199227
H41   H     H_    0.125552 0.225499 0.480107 0.250246
H42   H     H_    0.212714 0.392874 0.593253 0.122980
H43   H     H_    0.787698 0.606379 0.405873 0.123827
H44   H     H_    0.034131 0.328953 0.648696 0.137388
H45   H     H_    0.966140 0.670513 0.350776 0.136615
H46   H     H_    0.854259 0.329174 0.649034 0.137361
N1    N     N_R   0.256170 0.500070 0.500040 -0.175951
N2    N     N_R   0.743830 0.499930 0.499960 -0.179767
O1    O     O_R   0.417730 0.629750 0.499970 -0.582432
O2    O     O_3   0.261531 0.092598 0.443120 -0.582748
O3    O     O_R   0.582270 0.370250 0.500030 -0.584304
O4    O     O_R   0.582270 0.629730 0.499980 -0.590488
O5    O     O_R   0.417730 0.370270 0.500020 -0.601370
O6    O     O_R   0.371590 0.500020 0.629830 -0.575242
O7    O     O_R   0.628410 0.499980 0.370170 -0.576966
O8    O     O_R   0.536130 0.499990 0.629840 -0.578477
O9    O     O_R   0.463870 0.500010 0.370160 -0.584650
O10   O     O_3   0.740889 0.907729 0.552536 -0.579046

loop_
_geom_bond_atom_site_label_1
_geom_bond_atom_site_label_2
_ccdc_geom_bond_type
C30   C32   A    
C13   H15   S    
C34   C56   A    
C23   C45   A    
C22   C29   A    
C2    C4    A    
C50   H20   S    
C7    C8    A    
C19   N2    A    
C36   H5    S    
C59   H41   S    
Cu2   O7    S    
C1    O1    A    
C14   O10   S    
C59   H40   S    
C24   C26   A    
C54   H26   S    
C16   O8    A    
Cu1   O5    S    
C11   C14   A    
Cu2   N2    S    
C57   H35   S    
C60   H9    S    
C60   C62   A    
C1    C2    S    
C51   H16   S    
C53   C54   S    
C22   C25   A    
C53   H27   S    
C29   H44   S    
C52   H30   S    
C58   H38   S    
C1    O4    A    
C3    H11   S    
C43   C48   A    
C51   H17   S    
C2    C61   A    
C12   O3    A    
C40   C42   A    
C55   O10   S    
Cu2   O3    S    
C37   H6    S    
C41   C43   A    
C42   C44   A    
C41   C49   S    
Cu1   O9    S    
C19   H34   S    
C50   H19   S    
C20   H42   S    
C33   C40   A    
C18   C27   A    
C30   H45   S    
C49   H21   S    
C18   N1    A    
C54   H25   S    
C4    C6    A    
C10   C14   A    
C5    C7    A    
Cu1   O6    S    
C6    C8    A    
C58   C59   S    
C40   C52   S    
C57   H36   S    
Cu2   O4    S    
Cu1   Cu2   S    
C35   C39   A    
C11   H14   S    
C16   O6    A    
C16   C33   S    
C20   N1    A    
C12   C62   S    
C47   C48   A    
C57   H33   S    
C53   H28   S    
C50   C51   S    
C15   O2    S    
C52   H29   S    
C58   H37   S    
C19   C28   A    
C51   H18   S    
C21   H43   S    
C17   O9    A    
C20   C22   A    
C56   H12   S    
C55   C57   S    
C45   H1    S    
C36   C44   A    
C10   C61   A    
C34   H8    S    
C21   N2    A    
C52   C53   S    
C32   H2    S    
C3    C62   A    
C7    C9    A    
C23   C48   A    
C27   C32   A    
C39   H3    S    
C49   H22   S    
C28   C31   A    
C44   C45   A    
C33   C38   A    
C38   H4    S    
C55   H32   S    
C3    C5    A    
C5    C11   A    
C61   H10   S    
C25   C27   A    
C26   C28   A    
C18   H23   S    
Cu2   O8    S    
C9    C60   A    
C59   H39   S    
C13   C15   A    
C9    C15   A    
C4    H13   S    
C29   C31   A    
C25   C26   A    
C6    C13   A    
C54   H24   S    
C36   C38   A    
C55   H31   S    
C31   H46   S    
C42   C47   A    
Cu1   N1    S    
C35   C41   A    
C43   C46   A    
C24   C30   A    
C8    C10   A    
C17   O7    A    
C12   O5    A    
Cu1   O1    S    
C23   H7    S    
C37   C39   A    
C49   C50   S    
C21   C24   A    
C46   C56   A    
C58   O2    S    
C34   C47   A    
C17   C35   S    
C37   C46   A    
