data_mof_unit_56004.cif
_audit_creation_date              2012-12-10T20:41:56-0500
_audit_creation_method            fapswitch 2.2
_symmetry_space_group_name_H-M    P1
_symmetry_Int_Tables_number       1
_space_group_crystal_system       triclinic
_cell_length_a                    15.068226
_cell_length_b                    15.079534
_cell_length_c                    9.889979
_cell_angle_alpha                 90.07042
_cell_angle_beta                  90.235936
_cell_angle_gamma                 89.920045
_cell_volume                      2247.19616801

loop_
_atom_site_label
_atom_site_type_symbol
_atom_type_description
_atom_site_fract_x
_atom_site_fract_y
_atom_site_fract_z
_atom_type_partial_charge
C1    C     C_R   0.378988 0.881148 0.500276 0.885152
C2    C     C_R   0.381837 0.121742 0.500007 0.885166
C3    C     C_R   0.881995 0.377954 0.499902 0.879818
C4    C     C_R   0.879990 0.619610 0.499912 0.873888
C5    C     C_3   0.242725 0.170878 0.729264 -0.479056
C6    C     C_3   0.359396 0.712041 0.691964 -0.490917
C7    C     C_3   0.859299 0.787457 0.701724 -0.484438
C8    C     C_3   0.756151 0.314536 0.741372 -0.496633
C9    C     C_R   0.422716 0.010219 0.069646 0.117687
C10   C     C_R   0.938101 0.547743 0.070509 0.065546
C11   C     C_R   0.577208 0.997598 0.072470 -0.157365
C12   C     C_R   0.066445 0.460520 0.072173 -0.114163
C13   C     C_R   0.577197 0.997054 0.928558 -0.127841
C14   C     C_R   0.066685 0.460961 0.928510 -0.118436
C15   C     C_R   0.423009 0.012981 0.927679 0.075274
C16   C     C_R   0.937609 0.546693 0.928085 0.074546
C17   C     C_3   0.339606 0.961047 0.913350 -0.627706
C18   C     C_3   0.839685 0.535010 0.918802 -0.614906
C19   C     C_3   0.340137 0.953526 0.068250 0.958138
C20   C     C_3   0.838525 0.537716 0.073526 0.975551
C21   C     C_R   0.622297 0.117609 0.500106 0.870428
C22   C     C_R   0.619570 0.880055 0.499976 0.868456
C23   C     C_R   0.118841 0.620904 0.500445 0.867948
C24   C     C_R   0.121794 0.381906 0.500159 0.872182
C25   C     C_R   0.288464 0.224205 0.623069 0.132718
C26   C     C_R   0.294534 0.769588 0.618210 0.120479
C27   C     C_R   0.831641 0.767323 0.559850 0.102704
C28   C     C_R   0.796084 0.268043 0.622587 0.137610
C29   C     C_R   0.325562 0.196906 0.501343 -0.104366
C30   C     C_R   0.306593 0.821705 0.503889 -0.108530
C31   C     C_R   0.814717 0.686255 0.497928 -0.097556
C32   C     C_R   0.826855 0.301676 0.500323 -0.108152
C33   C     C_R   0.309935 0.245243 0.382632 -0.206685
C34   C     C_R   0.244020 0.820249 0.399157 -0.183316
C35   C     C_R   0.737549 0.673063 0.421682 -0.170989
C36   C     C_R   0.806291 0.258068 0.378877 -0.220640
C37   C     C_R   0.673195 0.738497 0.419872 -0.245738
C38   C     C_R   0.741745 0.192972 0.378949 -0.245578
C39   C     C_R   0.245145 0.310235 0.382829 -0.228902
C40   C     C_R   0.179662 0.754821 0.398033 -0.243774
C41   C     C_R   0.686094 0.814798 0.497887 -0.079672
C42   C     C_R   0.698784 0.172378 0.500548 -0.098410
C43   C     C_R   0.197007 0.325622 0.501656 -0.099168
C44   C     C_R   0.178104 0.693280 0.503872 -0.096270
C45   C     C_R   0.767040 0.831226 0.560759 0.114776
C46   C     C_R   0.732479 0.203767 0.622650 0.125820
C47   C     C_R   0.224525 0.288165 0.623302 0.120777
C48   C     C_R   0.230444 0.705916 0.618387 0.141992
C49   C     C_3   0.787280 0.857941 0.702989 -0.497906
C50   C     C_3   0.685566 0.243090 0.741365 -0.476817
C51   C     C_3   0.171540 0.241843 0.729483 -0.478740
C52   C     C_3   0.288007 0.641226 0.692385 -0.482591
H1    H     H_    0.343117 0.229272 0.288703 0.176821
H2    H     H_    0.246881 0.867124 0.317366 0.231375
H3    H     H_    0.725616 0.611072 0.369442 0.191733
H4    H     H_    0.834870 0.278193 0.283404 0.198114
H5    H     H_    0.611939 0.727739 0.364406 0.152224
H6    H     H_    0.721380 0.164070 0.283414 0.170533
H7    H     H_    0.229131 0.343734 0.289020 0.161820
H8    H     H_    0.134033 0.750305 0.313339 0.163952
H9    H     H_    0.813793 0.926577 0.709409 0.195874
H10   H     H_    0.688817 0.199327 0.831654 0.203647
H11   H     H_    0.169215 0.279682 0.825820 0.197107
H12   H     H_    0.305002 0.582038 0.630389 0.195362
H13   H     H_    0.732280 0.842839 0.773977 0.213309
H14   H     H_    0.618223 0.268385 0.715544 0.204756
H15   H     H_    0.106175 0.218064 0.691485 0.203527
H16   H     H_    0.262301 0.626466 0.795116 0.208375
H17   H     H_    0.281504 0.168362 0.825065 0.211098
H18   H     H_    0.418055 0.694328 0.629530 0.198212
H19   H     H_    0.927507 0.815262 0.707133 0.198242
H20   H     H_    0.800086 0.311866 0.831859 0.214137
H21   H     H_    0.218869 0.105675 0.691095 0.197320
H22   H     H_    0.375082 0.737870 0.794556 0.204088
H23   H     H_    0.846215 0.731668 0.771726 0.208137
H24   H     H_    0.729742 0.381343 0.715520 0.199075
H25   H     H_    0.639461 0.993764 0.127019 0.148806
H26   H     H_    0.119527 0.427452 0.125979 0.138758
H27   H     H_    0.639441 0.992628 0.874827 0.140745
H28   H     H_    0.120222 0.428844 0.875123 0.139037
H29   H     H_    0.285797 0.003062 0.871226 0.184900
H30   H     H_    0.347938 0.897330 0.858878 0.210480
H31   H     H_    0.805761 0.591726 0.869301 0.186111
H32   H     H_    0.822079 0.469622 0.875063 0.199497
N1    N     N_R   0.499140 0.000000 0.142800 -0.128301
N2    N     N_R   0.999140 0.500000 0.142800 -0.099873
N3    N     N_R   0.499160 0.000000 0.857150 -0.088409
N4    N     N_R   0.999160 0.500000 0.857150 -0.080338
O1    O     O_R   0.408400 0.908380 0.614690 -0.624339
O2    O     O_R   0.408400 0.091620 0.614690 -0.612685
O3    O     O_R   0.908400 0.408380 0.614690 -0.618260
O4    O     O_R   0.908400 0.591620 0.614690 -0.617163
O5    O     O_R   0.408370 0.908370 0.385350 -0.578314
O6    O     O_R   0.408370 0.091630 0.385350 -0.603283
O7    O     O_R   0.908370 0.408370 0.385350 -0.573076
O8    O     O_R   0.908370 0.591630 0.385350 -0.601291
O9    O     O_R   0.591610 0.091610 0.614650 -0.618876
O10   O     O_R   0.591610 0.908390 0.614650 -0.622070
O11   O     O_R   0.091610 0.591610 0.614650 -0.615465
O12   O     O_R   0.091610 0.408390 0.614650 -0.626333
O13   O     O_R   0.591590 0.091600 0.385310 -0.627230
O14   O     O_R   0.591590 0.908400 0.385310 -0.634463
O15   O     O_R   0.091590 0.591600 0.385310 -0.625844
O16   O     O_R   0.091590 0.408400 0.385310 -0.631864
Zn1   Zn    Zn3+2 0.500010 1.000000 0.653130 0.939144
Zn2   Zn    Zn3+2 0.000010 0.500000 0.653130 0.944602
Zn3   Zn    Zn3+2 0.499980 0.000000 0.346870 0.962662
Zn4   Zn    Zn3+2 0.999980 0.500000 0.346870 0.977727
O17   O     O_3   0.269979 0.000393 0.131523 -0.620423
C53   C     C_3   0.186336 0.963811 0.097653 -0.352687
H33   H     H_    0.187249 0.890379 0.085747 0.186711
H34   H     H_    0.160228 0.994899 0.003898 0.167325
H35   H     H_    0.139138 0.979581 0.180091 0.187253
O18   O     O_3   0.347895 0.865077 0.119717 -0.623683
C54   C     C_3   0.426847 0.819115 0.085903 -0.354607
H36   H     H_    0.477945 0.829867 0.165214 0.213031
H37   H     H_    0.454394 0.836032 0.985519 0.144454
H38   H     H_    0.412077 0.747093 0.084312 0.186906
O19   O     O_3   0.789213 0.610308 0.129161 -0.631663
C55   C     C_3   0.829600 0.694377 0.113152 -0.391641
H39   H     H_    0.848263 0.707865 0.006959 0.145862
H40   H     H_    0.888432 0.701017 0.180317 0.190035
H41   H     H_    0.781268 0.746195 0.143412 0.211315
O20   O     O_3   0.815061 0.455237 0.132098 -0.613977
C56   C     C_3   0.722311 0.442199 0.127363 -0.284647
H42   H     H_    0.694221 0.453960 0.024736 0.152385
H43   H     H_    0.688527 0.484954 0.202912 0.190174
H44   H     H_    0.708129 0.372276 0.154304 0.172655

loop_
_geom_bond_atom_site_label_1
_geom_bond_atom_site_label_2
_ccdc_geom_bond_type
O13   Zn3   S    
C23   O11   A    
C13   H27   S    
C6    H18   S    
C40   H8    S    
O18   C54   S    
C7    C27   S    
C28   C46   A    
C33   C39   A    
O10   Zn1   S    
C49   H13   S    
C2    C29   S    
C34   C40   A    
C32   C36   A    
C35   C37   A    
C38   C42   A    
C7    H19   S    
C22   C41   S    
C54   H36   S    
C29   C33   A    
C8    H24   S    
N4    Zn2   S    
C3    O3    A    
C17   H30   S    
C42   C46   A    
C2    O2    A    
C53   H33   S    
C5    H17   S    
C11   H25   S    
C9    N1    A    
C4    O8    A    
C9    C19   S    
C23   O15   A    
C10   C20   S    
C54   H37   S    
C12   H26   S    
C56   H44   S    
C18   H32   S    
O15   Zn4   S    
C14   H28   S    
C25   C47   A    
C40   C44   A    
C17   H29   S    
C52   H16   S    
C55   H41   S    
C26   C48   A    
O9    Zn1   S    
C27   C45   A    
O8    Zn4   S    
C38   H6    S    
C25   C29   A    
O3    Zn2   S    
C55   H40   S    
C6    H22   S    
C19   O17   S    
C33   H1    S    
O6    Zn3   S    
C8    H20   S    
C49   H9    S    
C30   C34   A    
C27   C31   A    
C28   C32   A    
C51   H11   S    
C7    C49   S    
C52   H12   S    
C22   O10   A    
C7    H23   S    
C19   O18   S    
C35   H3    S    
C23   C44   S    
C24   O16   A    
C36   H4    S    
C21   O9    A    
C45   C49   S    
N3    Zn1   S    
C2    O6    A    
C54   H38   S    
C39   H7    S    
C13   N3    A    
C18   H31   S    
O14   Zn3   S    
C16   C18   S    
C51   H15   S    
C56   H43   S    
C50   H14   S    
C53   H35   S    
C5    C25   S    
O4    Zn2   S    
C12   C14   A    
C34   H2    S    
C56   H42   S    
C50   H10   S    
C31   C35   A    
C8    C50   S    
O16   Zn4   S    
C55   H39   S    
C15   N3    A    
C15   C17   S    
O11   Zn2   S    
C10   N2    A    
C1    O1    A    
C24   O12   A    
C5    H21   S    
N2    Zn4   S    
O2    Zn1   S    
C47   C51   S    
O19   C55   S    
C26   C30   A    
C46   C50   S    
O12   Zn2   S    
C22   O14   A    
C12   N2    A    
C36   C38   A    
C9    C15   A    
C14   N4    A    
C21   O13   A    
C10   C16   A    
O17   C53   S    
O5    Zn3   S    
C11   C13   A    
C6    C26   S    
C11   N1    A    
C8    C28   S    
C1    C30   S    
C17   C19   S    
C18   C20   S    
C37   C41   A    
C3    C32   S    
C53   H34   S    
C20   O20   S    
C4    C31   S    
O7    Zn4   S    
C21   C42   S    
C48   C52   S    
C39   C43   A    
C1    O5    A    
O1    Zn1   S    
C16   N4    A    
C24   C43   S    
C41   C45   A    
C5    C51   S    
C3    O7    A    
C6    C52   S    
N1    Zn3   S    
C43   C47   A    
C20   O19   S    
C37   H5    S    
C44   C48   A    
O20   C56   S    
C4    O4    A    
