data_mof_unit_18603.cif
_audit_creation_date              2012-12-10T17:25:17-0500
_audit_creation_method            fapswitch 2.2
_symmetry_space_group_name_H-M    P1
_symmetry_Int_Tables_number       1
_space_group_crystal_system       triclinic
_cell_length_a                    27.565158
_cell_length_b                    10.833422
_cell_length_c                    9.688412
_cell_angle_alpha                 87.392284
_cell_angle_beta                  88.869677
_cell_angle_gamma                 95.263959
_cell_volume                      2877.18589688

loop_
_atom_site_label
_atom_site_type_symbol
_atom_type_description
_atom_site_fract_x
_atom_site_fract_y
_atom_site_fract_z
_atom_type_partial_charge
C1    C     C_R   0.497579 0.261302 0.503601 0.852823
C2    C     C_R   0.278054 0.350298 0.536828 -0.094873
C3    C     C_R   0.251316 0.453855 0.527632 0.260398
C4    C     C_R   0.097612 0.412562 0.575702 -0.088627
C5    C     C_R   0.121049 0.350899 0.472180 -0.034922
C6    C     C_R   0.093381 0.278490 0.381181 -0.158103
C7    C     C_R   0.125820 0.486603 0.667201 -0.115391
C8    C     C_R   0.353787 0.483306 0.503283 -0.107168
C9    C     C_R   0.644528 0.475287 0.501442 -0.140473
C10   C     C_R   0.966660 0.303246 0.521119 0.010509
C11   C     C_R   0.971211 0.481654 0.666848 0.036015
C12   C     C_R   0.407446 0.497628 0.500853 0.847788
C13   C     C_R   0.943305 0.391858 0.593527 0.064774
C14   C     C_R   0.938061 0.197930 0.479898 -0.183785
C15   C     C_R   0.886825 0.192829 0.479382 0.295124
C16   C     C_R   0.863944 0.296606 0.524049 -0.082374
C17   C     C_R   0.891901 0.391500 0.590769 -0.117135
C18   C     C_R   0.868616 0.486792 0.652896 -0.073755
C19   C     C_R   0.817570 0.483609 0.645989 0.625829
C20   C     C_R   0.814172 0.310720 0.501975 0.542732
C21   C     C_R   0.704870 0.332154 0.561642 -0.178112
C22   C     C_R   0.655916 0.354569 0.543709 0.195628
C23   C     C_R   0.494574 0.735333 0.497496 0.790504
C24   C     C_R   0.682676 0.569915 0.470407 0.016843
C25   C     C_R   0.731571 0.541976 0.476941 0.297514
C26   C     C_R   0.742546 0.424934 0.529991 0.231155
C27   C     C_R   0.018053 0.319976 0.499244 0.035184
C28   C     C_R   0.045947 0.401616 0.585260 0.005203
C29   C     C_R   0.022223 0.474107 0.678853 -0.021459
C30   C     C_R   0.042744 0.263735 0.391531 0.111221
C31   C     C_R   0.101438 0.545622 0.773294 0.210143
C32   C     C_R   0.947760 0.580264 0.719044 -0.194917
C33   C     C_R   0.897466 0.583681 0.714030 0.190738
C34   C     C_R   0.592617 0.499811 0.499250 0.841086
C35   C     C_R   0.050082 0.535747 0.781334 0.200919
C36   C     C_R   0.451425 0.096994 0.744171 -0.128469
C37   C     C_R   0.423153 0.021955 0.841157 -0.132123
C38   C     C_R   0.415414 0.895416 0.825493 -0.133443
C39   C     C_R   0.436551 0.843279 0.713611 -0.101141
C40   C     C_R   0.464825 0.918021 0.612094 0.080472
C41   C     C_R   0.470389 0.048521 0.623312 0.099694
C42   C     C_R   0.491567 0.124226 0.509023 -0.158224
C43   C     C_R   0.500520 0.068924 0.384277 -0.217064
C44   C     C_R   0.491753 0.941491 0.371195 0.270920
C45   C     C_R   0.171938 0.366932 0.457202 0.558768
C46   C     C_R   0.483486 0.865971 0.493076 -0.182967
C47   C     C_R   0.579588 0.625486 0.128743 0.265655
C48   C     C_R   0.624318 0.630510 0.057547 -0.256184
C49   C     C_R   0.623745 0.644259 0.915081 0.144357
C50   C     C_R   0.579387 0.624452 0.848501 -0.168431
C51   C     C_R   0.538864 0.560289 0.920238 0.096589
C52   C     C_R   0.538765 0.561087 0.068717 0.156167
C53   C     C_R   0.462977 0.443301 0.081000 -0.066269
C54   C     C_R   0.462028 0.445043 0.935029 0.204401
C55   C     C_R   0.177388 0.497173 0.649109 0.569674
C56   C     C_R   0.275806 0.571653 0.499090 -0.092422
C57   C     C_R   0.326647 0.586897 0.486096 0.071551
C58   C     C_R   0.328714 0.363986 0.521445 0.108222
Cu1   Cu    Cu3+1 0.500000 0.499990 0.640660 0.957961
Cu2   Cu    Cu3+1 0.500000 0.500010 0.359340 0.975794
H1    H     H_    0.255137 0.651543 0.486224 0.174497
H2    H     H_    0.968570 0.660460 0.757054 0.189164
H3    H     H_    0.512875 0.126912 0.294711 0.181729
H4    H     H_    0.455619 0.192748 0.765091 0.194039
H5    H     H_    0.406718 0.062674 0.928455 0.169144
H6    H     H_    0.259267 0.258498 0.554316 0.179825
H7    H     H_    0.392890 0.837474 0.900149 0.166834
H8    H     H_    0.427096 0.745308 0.702540 0.180310
H9    H     H_    0.432703 0.397066 0.141708 0.178096
H10   H     H_    0.657435 0.661500 0.109118 0.192549
H11   H     H_    0.577246 0.663518 0.745287 0.211364
H12   H     H_    0.111140 0.235602 0.297481 0.211426
H13   H     H_    0.714098 0.243494 0.604069 0.184078
H14   H     H_    0.955957 0.117218 0.455016 0.179435
N1    N     N_R   0.198985 0.439047 0.544808 -0.451134
N2    N     N_R   0.792316 0.404269 0.561255 -0.446983
N3    N     N_R   0.500460 0.501210 0.147910 -0.210741
N4    N     N_R   0.500480 0.501290 0.852040 -0.202876
O1    O     O_R   0.500000 0.319640 0.618810 -0.593318
O2    O     O_2   0.788354 0.235408 0.417516 -0.514956
O3    O     O_2   0.206155 0.564466 0.734154 -0.538428
O4    O     O_2   0.792845 0.558789 0.722391 -0.471359
O5    O     O_R   0.500000 0.319660 0.381240 -0.571990
O6    O     O_R   0.430260 0.500010 0.618770 -0.551440
O7    O     O_R   0.430270 0.500030 0.381200 -0.569954
O8    O     O_R   0.500000 0.680340 0.618760 -0.602579
O9    O     O_R   0.500000 0.680360 0.381190 -0.558087
O10   O     O_R   0.569730 0.499970 0.618800 -0.588162
O11   O     O_R   0.569740 0.499990 0.381230 -0.581707
O12   O     O_2   0.194269 0.312262 0.354148 -0.527477
I1    I     I_    0.363745 0.199010 0.511487 -0.306689
N5    N     N_2   0.127153 0.610668 0.878058 -0.422504
H15   H     H_    0.153761 0.565628 0.927204 0.306214
C59   C     C_3   0.138459 0.742548 0.848531 -0.582073
H16   H     H_    0.164116 0.759836 0.758559 0.258067
H17   H     H_    0.155407 0.785502 0.939904 0.234955
H18   H     H_    0.104763 0.787687 0.825452 0.208769
I2    I     I_    0.669401 0.758915 0.431401 -0.455209
I3    I     I_    0.871901 0.749279 0.788391 -0.284599
N6    N     N_2   0.770729 0.631723 0.434826 -0.414396
H19   H     H_    0.767904 0.720821 0.464678 0.308374
C60   C     C_3   0.786966 0.624945 0.292851 -0.614107
H20   H     H_    0.819519 0.691823 0.271644 0.231913
H21   H     H_    0.757682 0.648456 0.221688 0.248522
H22   H     H_    0.797217 0.530278 0.273542 0.246166
N7    N     N_2   0.026527 0.575310 0.902074 -0.450580
H23   H     H_    0.042682 0.654086 0.944027 0.280994
C61   C     C_3   0.012713 0.477114 0.005143 -0.574471
H24   H     H_    0.991975 0.514298 0.090879 0.233807
H25   H     H_    0.045798 0.439406 0.047511 0.243970
H26   H     H_    0.989088 0.401487 0.959775 0.252291
N8    N     N_2   0.487539 0.889174 0.238008 -0.380007
H27   H     H_    0.460634 0.816762 0.234628 0.297847
C62   C     C_3   0.487944 0.970235 0.114930 -0.702297
H28   H     H_    0.485186 0.912792 0.023141 0.241424
H29   H     H_    0.522700 0.030326 0.102761 0.222207
H30   H     H_    0.456801 0.028110 0.119226 0.238334
N9    N     N_2   0.572315 0.726983 0.212346 -0.366377
H31   H     H_    0.581936 0.712204 0.312437 0.291346
C63   C     C_3   0.591744 0.849379 0.157853 -0.617158
H32   H     H_    0.582450 0.920873 0.229697 0.244469
H33   H     H_    0.576722 0.869081 0.054504 0.236973
H34   H     H_    0.632103 0.856740 0.148714 0.237486
I4    I     I_    0.688139 0.720413 0.811598 -0.279929
I5    I     I_    0.394009 0.363171 0.869148 -0.349948
N10   N     N_2   0.617447 0.259111 0.575456 -0.439149
H35   H     H_    0.597180 0.272377 0.663202 0.271223
C64   C     C_3   0.626319 0.131201 0.556258 -0.637030
H36   H     H_    0.591076 0.072714 0.558611 0.225782
H37   H     H_    0.648716 0.096340 0.641030 0.237272
H38   H     H_    0.644704 0.122334 0.454550 0.259505
N11   N     N_2   0.857837 0.083094 0.442242 -0.376265
H39   H     H_    0.829985 0.053272 0.511976 0.286672
C65   C     C_3   0.880259 0.983415 0.378626 -0.594526
H40   H     H_    0.851376 0.914507 0.343390 0.235299
H41   H     H_    0.902718 0.935694 0.454582 0.220883
H42   H     H_    0.902794 0.019793 0.286858 0.256349
I6    I     I_    0.010132 0.180886 0.215303 -0.450025
I7    I     I_    0.358876 0.767071 0.429444 -0.365602

loop_
_geom_bond_atom_site_label_1
_geom_bond_atom_site_label_2
_ccdc_geom_bond_type
C10   C27   A    
C21   C26   A    
N10   H35   S    
C30   I6    S    
C39   H8    S    
C7    C55   A    
C50   H11   S    
C53   H9    S    
C64   H36   S    
C65   H42   S    
N8    C62   S    
C62   H28   S    
C43   H3    S    
C53   C54   A    
C61   H24   S    
C6    H12   S    
C20   N2    A    
C12   O7    A    
C24   I2    S    
C14   H14   S    
C19   N2    A    
C5    C6    A    
Cu2   O5    S    
C9    C22   A    
C22   N10   S    
N7    H23   S    
C15   C16   A    
C21   H13   S    
C56   C57   A    
C57   I7    S    
C60   H22   S    
C18   C19   A    
C41   C42   A    
N9    H31   S    
N5    H15   S    
C8    C58   A    
Cu1   O10   S    
C47   N9    S    
C15   N11   S    
C44   C46   A    
C16   C17   A    
C23   O8    A    
C37   H5    S    
C26   N2    S    
C51   N4    A    
C55   O3    S    
C19   O4    S    
C3    N1    S    
C58   I1    S    
C63   H34   S    
C8    C12   S    
C59   H17   S    
C55   N1    A    
Cu1   Cu2   S    
C23   C46   S    
C23   O9    A    
C21   C22   A    
C27   C30   A    
C36   C41   A    
C59   H16   S    
C4    C7    A    
Cu1   N4    S    
N6    C60   S    
N8    H27   S    
C4    C28   A    
Cu2   O9    S    
C63   H33   S    
C17   C18   A    
C54   I5    S    
Cu2   N3    S    
C7    C31   A    
C20   O2    S    
C51   C52   A    
Cu1   O6    S    
C10   C14   A    
Cu1   O1    S    
C39   C40   A    
N11   H39   S    
C65   H41   S    
C59   H18   S    
C25   C26   A    
Cu2   O11   S    
C49   I4    S    
C5    C45   A    
C33   I3    S    
C53   N3    A    
C43   C44   A    
C37   C38   A    
C8    C57   A    
C3    C56   A    
C25   N6    S    
C47   C48   A    
C16   C20   A    
N5    C59   S    
C50   C51   A    
C34   O10   A    
C24   C25   A    
C60   H21   S    
C45   O12   S    
C65   H40   S    
C44   N8    S    
C40   C41   A    
C6    C30   A    
C11   C32   A    
C49   C50   A    
C9    C34   S    
C1    O1    A    
C31   C35   A    
C42   C43   A    
C40   C46   A    
C52   N3    A    
C28   C29   A    
C64   H38   S    
C63   H32   S    
C36   C37   A    
N10   C64   S    
C56   H1    S    
C48   H10   S    
C4    C5    A    
C2    H6    S    
C10   C13   A    
C64   H37   S    
C62   H29   S    
Cu2   O7    S    
C2    C58   A    
C9    C24   A    
C47   C52   A    
C1    O5    A    
C29   C35   A    
C61   H26   S    
C13   C17   A    
C45   N1    A    
C32   C33   A    
C2    C3    A    
C34   O11   A    
C32   H2    S    
C35   N7    S    
C11   C13   A    
C38   C39   A    
N7    C61   S    
C48   C49   A    
N6    H19   S    
C61   H25   S    
C60   H20   S    
C18   C33   A    
N9    C63   S    
Cu1   O8    S    
C62   H30   S    
C1    C42   S    
C38   H7    S    
C11   C29   A    
N11   C65   S    
C31   N5    S    
C27   C28   A    
C14   C15   A    
C36   H4    S    
C12   O6    A    
C54   N4    A    
