data_mof_unit_48202.cif
_audit_creation_date              2012-12-11T14:08:42-0500
_audit_creation_method            fapswitch 2.2
_symmetry_space_group_name_H-M    P1
_symmetry_Int_Tables_number       1
_space_group_crystal_system       triclinic
_cell_length_a                    28.081315
_cell_length_b                    7.194997
_cell_length_c                    17.211692
_cell_angle_alpha                 89.79245
_cell_angle_beta                  101.124674
_cell_angle_gamma                 89.866335
_cell_volume                      3412.1531758

loop_
_atom_site_label
_atom_site_type_symbol
_atom_type_description
_atom_site_fract_x
_atom_site_fract_y
_atom_site_fract_z
_atom_type_partial_charge
O1    O     O_R   0.000700 0.436510 0.857920 -0.536911
O2    O     O_R   0.999300 0.563490 0.142080 -0.527379
O3    O     O_R   0.999300 0.936510 0.642080 -0.535141
O4    O     O_R   0.000700 0.063490 0.357920 -0.525126
O5    O     O_R   0.930080 0.766380 0.721890 -0.543102
O6    O     O_R   0.069920 0.233620 0.278110 -0.549910
O7    O     O_R   0.069920 0.266380 0.778110 -0.524948
O8    O     O_R   0.930080 0.733620 0.221890 -0.550437
C1    C     C_R   0.910391 0.597926 0.710847 0.676213
C2    C     C_R   0.089611 0.402520 0.288334 0.733566
C3    C     C_R   0.089697 0.097381 0.788557 0.728218
C4    C     C_R   0.910536 0.902927 0.211595 0.734366
O9    O     O_R   0.996180 0.766230 0.862310 -0.549666
O10   O     O_R   0.003820 0.233770 0.137690 -0.548143
O11   O     O_R   0.003820 0.266230 0.637690 -0.533157
O12   O     O_R   0.996180 0.733770 0.362310 -0.547713
O13   O     O_R   0.065870 0.936460 0.783500 -0.544586
O14   O     O_R   0.934130 0.063540 0.216500 -0.528393
O15   O     O_R   0.934130 0.436460 0.716500 -0.532089
O16   O     O_R   0.065870 0.563540 0.283500 -0.526253
C5    C     C_R   0.998479 0.596322 0.894454 0.736542
C6    C     C_R   0.001543 0.403694 0.105556 0.769241
C7    C     C_R   0.001506 0.096617 0.605464 0.771241
C8    C     C_R   0.998462 0.903400 0.394522 0.779985
O17   O     O_3   0.022790 0.603020 0.723980 -0.366503
O18   O     O_3   0.977210 0.396980 0.276020 -0.372396
O19   O     O_3   0.977210 0.103020 0.776020 -0.379813
O20   O     O_3   0.022790 0.896980 0.223980 -0.369939
V1    V     V_3+5 0.995770 0.877900 0.754830 1.445512
V2    V     V_3+5 0.004230 0.122100 0.245170 1.476319
V3    V     V_3+5 0.004230 0.377900 0.745170 1.490089
V4    V     V_3+5 0.995770 0.622100 0.254830 1.475155
C9    C     C_2   0.001644 0.082737 0.519443 -0.295704
C10   C     C_2   0.998270 0.917322 0.480520 -0.308445
C11   C     C_2   0.998309 0.582587 0.980358 -0.313113
C12   C     C_2   0.001748 0.417463 0.019668 -0.315565
C13   C     C_R   0.685244 0.984997 0.030480 0.641542
C14   C     C_R   0.316171 0.977860 0.968621 0.646518
C15   C     C_R   0.317165 0.405988 0.469974 0.645019
C16   C     C_R   0.683950 0.546528 0.525477 0.643019
O21   O     O_2   0.716154 0.041629 0.984160 -0.516657
O22   O     O_2   0.285760 0.955645 0.019828 -0.508241
O23   O     O_2   0.287077 0.394351 0.522193 -0.505291
O24   O     O_2   0.713226 0.589633 0.474449 -0.506728
N1    N     N_R   0.703076 0.927568 0.106443 -0.538601
N2    N     N_R   0.297871 0.025212 0.891374 -0.537680
N3    N     N_R   0.298210 0.415450 0.390497 -0.537362
N4    N     N_R   0.702986 0.530940 0.604753 -0.537606
C17   C     C_R   0.672621 0.863923 0.153862 0.634336
C18   C     C_R   0.328431 0.050630 0.838949 0.646565
C19   C     C_R   0.328176 0.428396 0.336543 0.654697
C20   C     C_R   0.674128 0.482191 0.657316 0.628593
C21   C     C_R   0.777947 0.070792 0.185305 -0.066611
C22   C     C_R   0.226008 0.223743 0.833796 -0.045824
C23   C     C_R   0.221790 0.578252 0.325810 -0.052692
C24   C     C_R   0.773280 0.712736 0.678349 -0.017737
C25   C     C_R   0.829015 0.061083 0.214210 -0.124683
C26   C     C_R   0.175445 0.236620 0.801220 -0.127855
C27   C     C_R   0.170967 0.570467 0.294960 -0.128747
C28   C     C_R   0.824387 0.727199 0.707004 -0.119460
C29   C     C_R   0.832242 0.772259 0.141640 -0.237310
C30   C     C_R   0.164928 0.920428 0.845708 -0.214476
C31   C     C_R   0.168938 0.257715 0.348967 -0.225768
C32   C     C_R   0.836187 0.435840 0.641306 -0.122172
C33   C     C_R   0.782247 0.779500 0.115105 -0.113647
C34   C     C_R   0.214904 0.902125 0.870347 -0.121192
C35   C     C_R   0.219125 0.260802 0.374205 -0.107147
C36   C     C_R   0.786354 0.420307 0.614798 -0.077263
C37   C     C_R   0.754845 0.927459 0.135576 0.380293
C38   C     C_R   0.245960 0.051715 0.865586 0.370498
C39   C     C_R   0.246013 0.419241 0.363733 0.370994
C40   C     C_R   0.754563 0.556651 0.632342 0.330535
C41   C     C_R   0.602778 0.929837 0.049346 -0.045014
C42   C     C_R   0.398556 0.987468 0.943366 -0.038054
C43   C     C_R   0.399107 0.429336 0.443510 -0.039034
C44   C     C_R   0.603323 0.479220 0.550285 -0.041181
C45   C     C_R   0.634892 0.984886 0.000370 -0.032647
C46   C     C_R   0.366624 0.955828 0.995543 -0.069510
C47   C     C_R   0.367810 0.412793 0.497775 -0.070084
C48   C     C_R   0.634066 0.517085 0.496774 -0.033973
C49   C     C_R   0.616549 0.025131 0.920928 -0.199056
C50   C     C_R   0.385573 0.918043 0.075018 -0.079288
C51   C     C_R   0.387094 0.420221 0.578718 -0.085717
C52   C     C_R   0.615262 0.509906 0.415626 -0.188122
C53   C     C_R   0.622000 0.863866 0.126183 -0.023665
C54   C     C_R   0.379117 0.040829 0.864866 -0.034898
C55   C     C_R   0.378843 0.441345 0.362139 -0.035345
C56   C     C_R   0.623805 0.457176 0.631173 -0.013821
C57   C     C_R   0.856539 0.912628 0.190001 -0.051461
C58   C     C_R   0.144037 0.085982 0.810956 -0.057957
C59   C     C_R   0.143857 0.411047 0.309850 -0.053646
C60   C     C_R   0.856233 0.587945 0.687088 -0.120591
H1    H     H_    0.764528 0.669364 0.077630 0.146352
H2    H     H_    0.229634 0.770364 0.894585 0.150233
H3    H     H_    0.237324 0.139161 0.403196 0.164926
H4    H     H_    0.772169 0.300294 0.580160 0.149675
H5    H     H_    0.641525 0.050647 0.881215 0.169221
H6    H     H_    0.361002 0.907248 0.116261 0.211123
H7    H     H_    0.362597 0.422564 0.620273 0.210106
H8    H     H_    0.639688 0.519905 0.374042 0.175244
C61   C     C_R   0.481457 0.012557 0.916650 0.046321
C62   C     C_R   0.519884 0.887729 0.072993 0.041238
C63   C     C_R   0.521690 0.429578 0.578378 0.040603
C64   C     C_R   0.481268 0.461197 0.414370 0.047993
C65   C     C_R   0.468801 0.919589 0.049951 -0.039727
C66   C     C_R   0.532842 0.988995 0.941172 0.031084
C67   C     C_R   0.532881 0.463380 0.440167 0.036225
C68   C     C_R   0.470081 0.434912 0.553194 -0.036687
C69   C     C_R   0.449797 0.970261 0.969868 0.065661
C70   C     C_R   0.551589 0.937851 0.021208 0.063386
C71   C     C_R   0.552324 0.459782 0.522790 0.066758
C72   C     C_R   0.450415 0.438835 0.470496 0.065743
C73   C     C_R   0.460492 0.092419 0.842715 -0.071841
C74   C     C_R   0.540514 0.795475 0.144295 -0.188655
C75   C     C_R   0.544202 0.381929 0.656657 -0.182334
C76   C     C_R   0.458952 0.497003 0.334796 -0.061930
C77   C     C_R   0.410575 0.095225 0.815465 -0.059962
C78   C     C_R   0.590454 0.791181 0.172009 -0.105948
C79   C     C_R   0.593983 0.401932 0.683282 -0.113366
C80   C     C_R   0.409187 0.478206 0.308581 -0.056623
O25   O     O_2   0.309918 0.087436 0.762103 -0.513008
O26   O     O_2   0.691224 0.800940 0.227417 -0.509574
O27   O     O_2   0.694024 0.457711 0.734523 -0.522183
O28   O     O_2   0.308992 0.431358 0.258372 -0.510769
C81   C     C_R   0.566971 0.009261 0.889383 -0.023805
C82   C     C_R   0.435762 0.912550 0.104039 -0.046894
C83   C     C_R   0.436888 0.446525 0.606787 -0.050691
C84   C     C_R   0.566654 0.463774 0.387416 -0.025861
H9    H     H_    0.004377 0.211570 0.487534 0.157440
H10   H     H_    0.995525 0.788494 0.512424 0.151706
H11   H     H_    0.995509 0.711451 0.011877 0.155231
H12   H     H_    0.004554 0.288604 0.988151 0.149610
H13   H     H_    0.852219 0.657365 0.122755 0.134540
H14   H     H_    0.142480 0.802844 0.854239 0.141130
H15   H     H_    0.149554 0.134328 0.361104 0.135495
H16   H     H_    0.859301 0.327927 0.624929 0.154389
C85   C     C_2   0.156716 0.405175 0.755214 0.425837
H17   H     H_    0.167104 0.542203 0.778189 0.007013
O29   O     O_2   0.131247 0.391569 0.689443 -0.509281
C86   C     C_2   0.852834 0.204600 0.270419 0.391817
H18   H     H_    0.843063 0.350029 0.260765 0.033421
O30   O     O_2   0.882446 0.160745 0.329365 -0.519007
C87   C     C_2   0.844480 0.883540 0.759347 0.371553
H19   H     H_    0.872514 0.857074 0.811135 0.056445
O31   O     O_2   0.831165 0.043335 0.743790 -0.535357
C88   C     C_2   0.147221 0.727291 0.245700 0.418084
H20   H     H_    0.155057 0.869744 0.264107 0.013920
O32   O     O_2   0.120058 0.698237 0.182489 -0.512236
C89   C     C_2   0.257733 0.389817 0.834437 0.413083
H21   H     H_    0.249804 0.494317 0.788174 0.058203
O33   O     O_2   0.292577 0.414119 0.887979 -0.514868
C90   C     C_2   0.748866 0.227136 0.209125 0.409000
H22   H     H_    0.761727 0.302544 0.263507 0.064850
O34   O     O_2   0.710473 0.275931 0.167901 -0.515339
C91   C     C_2   0.739477 0.856710 0.698505 0.469933
H23   H     H_    0.748101 0.930906 0.754146 0.098911
O35   O     O_2   0.701898 0.896106 0.652724 -0.526723
C92   C     C_2   0.249397 0.751790 0.317734 0.402353
H24   H     H_    0.237950 0.845263 0.268060 0.065262
O36   O     O_2   0.284716 0.794803 0.367597 -0.517514
H25   H     H_    0.396654 0.148857 0.756555 0.185939
H26   H     H_    0.604299 0.728333 0.229169 0.151124
H27   H     H_    0.609062 0.371567 0.744818 0.155638
H28   H     H_    0.394370 0.500701 0.246319 0.179018
H29   H     H_    0.481945 0.159410 0.805276 0.134123
H30   H     H_    0.518511 0.721608 0.179076 0.109093
H31   H     H_    0.523885 0.324213 0.698144 0.109886
H32   H     H_    0.479137 0.546228 0.291608 0.128083
C93   C     C_2   0.555528 0.980192 0.802628 0.333821
H33   H     H_    0.577348 0.046460 0.764915 0.066467
O37   O     O_2   0.524106 0.871272 0.773049 -0.534048
C94   C     C_2   0.451394 0.934172 0.191139 0.348020
H34   H     H_    0.486349 0.993170 0.215495 0.140287
O38   O     O_2   0.424813 0.891346 0.236697 -0.520889
C95   C     C_2   0.450926 0.521955 0.688287 0.352788
H35   H     H_    0.483812 0.601509 0.704589 0.143891
O39   O     O_2   0.425163 0.501890 0.737321 -0.522791
C96   C     C_2   0.556695 0.380852 0.307337 0.340317
H36   H     H_    0.576188 0.428252 0.262414 0.060908
O40   O     O_2   0.529216 0.249284 0.292582 -0.533425

loop_
_geom_bond_atom_site_label_1
_geom_bond_atom_site_label_2
_ccdc_geom_bond_type
O17   V3    S    
C92   O36   D    
C32   H16   S    
O1    C5    A    
C23   C27   A    
O19   V1    S    
O13   V1    S    
C93   H33   S    
O3    C7    A    
C11   C12   D    
C48   C52   A    
O4    V2    S    
C21   C37   A    
C42   C69   A    
C96   H36   S    
C29   H13   S    
C41   C70   A    
C95   O39   D    
O7    C3    A    
C85   O29   D    
C66   C81   A    
C43   C72   A    
C36   H4    S    
C43   C47   A    
C25   C57   A    
C65   C82   A    
C32   C36   A    
C63   C71   A    
O10   V2    S    
C67   C84   A    
C14   O22   S    
N4    C20   A    
C12   H12   S    
C28   C87   S    
C73   H29   S    
O4    C8    A    
C20   O27   S    
C91   O35   D    
C61   C69   A    
C87   H19   S    
C87   O31   D    
O1    V3    S    
C61   C73   A    
C62   C65   A    
O2    V4    S    
O3    V1    S    
C50   C82   A    
C64   C76   A    
C1    O15   A    
C23   C92   S    
C78   H26   S    
C2    O16   A    
C24   C40   A    
O2    C6    A    
C21   C90   S    
C16   C48   A    
C63   C68   A    
O14   V2    S    
C45   C49   A    
C81   C93   S    
C44   C56   A    
C88   O32   D    
C36   C40   A    
C34   H2    S    
C68   C72   A    
O11   C7    A    
O15   V3    S    
O12   C8    A    
C51   H7    S    
C35   H3    S    
C19   O28   S    
C50   H6    S    
C31   C59   A    
C18   O25   S    
C52   C84   A    
N4    C40   S    
C24   C91   S    
C1    C60   S    
C29   C57   A    
C74   H30   S    
C22   C89   S    
O5    V1    S    
C28   C60   A    
C83   C95   S    
C31   C35   A    
O7    V3    S    
C30   C34   A    
N1    C37   S    
O8    V4    S    
C17   C53   A    
C4    C57   S    
C20   C56   A    
C86   H18   S    
C19   C55   A    
C64   C72   A    
C21   C25   A    
O18   V4    S    
N3    C19   A    
C14   C46   A    
C7    C9    S    
C13   C45   A    
C8    C10   S    
C76   C80   A    
C25   C86   S    
C31   H15   S    
C18   C54   A    
C63   C75   A    
O5    C1    A    
C62   C74   A    
C46   C50   A    
C96   O40   D    
C95   H35   S    
C22   C38   A    
N1    C17   A    
O8    C4    A    
N3    C39   S    
C22   C26   A    
C9    C10   D    
O9    C5    A    
C27   C59   A    
C42   C54   A    
C56   C79   A    
C26   C58   A    
C41   C53   A    
C74   C78   A    
C73   C77   A    
C26   C85   S    
C43   C55   A    
O6    V2    S    
C90   O34   D    
C2    C59   S    
C75   C79   A    
C92   H24   S    
C62   C70   A    
C84   C96   S    
C32   C60   A    
C13   N1    A    
C11   H11   S    
N2    C38   S    
C94   H34   S    
C15   N3    A    
C88   H20   S    
O16   V4    S    
C9    H9    S    
C61   C66   A    
C16   N4    A    
C65   C69   A    
C3    O13   A    
C49   C81   A    
C67   C71   A    
C44   C48   A    
C86   O30   D    
O6    C2    A    
C52   H8    S    
C15   O23   S    
O11   V3    S    
C5    C11   S    
O12   V4    S    
C6    C12   S    
C85   H17   S    
N2    C18   A    
C79   H27   S    
C77   H25   S    
O10   C6    A    
C89   O33   D    
C55   C80   A    
C89   H21   S    
C47   C51   A    
C3    C58   S    
C30   H14   S    
C34   C38   A    
C49   H5    S    
C44   C71   A    
C33   C37   A    
C17   O26   S    
C30   C58   A    
O20   V2    S    
C33   H1    S    
C94   O38   D    
C54   C77   A    
C35   C39   A    
C64   C67   A    
C68   C83   A    
C13   O21   S    
C53   C78   A    
C51   C83   A    
C14   N2    A    
C82   C94   S    
C80   H28   S    
C27   C88   S    
C29   C33   A    
C16   O24   S    
C24   C28   A    
C90   H22   S    
C10   H10   S    
C66   C70   A    
C42   C46   A    
C4    O14   A    
C91   H23   S    
C41   C45   A    
C76   H32   S    
C75   H31   S    
O9    V1    S    
C23   C39   A    
C15   C47   A    
C93   O37   D    
