data_mof_unit_57378.cif
_audit_creation_date              2012-10-26T20:09:44-0400
_audit_creation_method            fapswitch 2.2
_symmetry_space_group_name_H-M    P1
_symmetry_Int_Tables_number       1
_space_group_crystal_system       triclinic
_cell_length_a                    10.964356
_cell_length_b                    9.721801
_cell_length_c                    15.837374
_cell_angle_alpha                 90.312382
_cell_angle_beta                  89.495137
_cell_angle_gamma                 89.406426
_cell_volume                      1687.97569051

loop_
_atom_site_label
_atom_site_type_symbol
_atom_type_description
_atom_site_fract_x
_atom_site_fract_y
_atom_site_fract_z
_atom_type_partial_charge
C1    C     C_R   0.260811 0.499580 0.490690 0.518774
C2    C     C_3   0.930566 0.374088 0.546023 -0.104844
C3    C     C_3   0.066488 0.478879 0.389849 0.104891
C4    C     C_3   0.120419 0.496756 0.482981 -0.016269
C5    C     C_3   0.876564 0.499641 0.497815 -0.033058
C6    C     C_R   0.500851 0.499713 0.341219 0.538546
C7    C     C_3   0.918333 0.494186 0.398634 0.169968
C8    C     C_3   0.626597 0.079555 0.507372 -0.024587
C9    C     C_3   0.624370 0.915387 0.517589 -0.044675
C10   C     C_3   0.432944 0.081455 0.577292 0.094447
C11   C     C_3   0.416290 0.918091 0.568338 0.108535
C12   C     C_3   0.639457 0.571133 0.948209 -0.059178
C13   C     C_3   0.441958 0.078722 0.424106 0.015361
C14   C     C_3   0.457366 0.915689 0.419483 -0.005487
C15   C     C_R   0.738706 0.499782 0.502317 0.535571
C16   C     C_R   0.500328 0.500310 0.658815 0.576969
C17   C     C_3   0.390549 0.577205 0.050611 0.164198
C18   C     C_3   0.517316 0.347874 0.048695 0.197712
C19   C     C_3   0.496244 0.352865 0.950447 -0.094243
C20   C     C_3   0.400488 0.588617 0.950851 -0.049477
C21   C     C_1   0.504102 0.501044 0.748032 0.006738
C22   C     C_3   0.513443 0.503083 0.083583 0.125855
C23   C     C_3   0.631317 0.586915 0.050647 -0.025592
C24   C     C_3   0.514427 0.504606 0.916075 -0.119503
C25   C     C_2   0.121190 0.581688 0.327388 0.318284
C26   C     C_2   0.108718 0.341503 0.350727 0.266624
C27   C     C_2   0.707416 0.138787 0.575376 0.227605
C28   C     C_2   0.684951 0.867317 0.599004 0.302743
C29   C     C_2   0.475268 0.138049 0.338708 0.269676
C30   C     C_2   0.528924 0.867791 0.340705 0.308899
C31   C     C_2   0.555481 0.235373 0.900114 0.190954
C32   C     C_2   0.384003 0.730169 0.911076 0.206003
C33   C     C_2   0.618359 0.737571 0.079816 0.272292
C34   C     C_1   0.508509 0.502106 0.823376 -0.129341
C35   C     C_2   0.752378 0.544768 0.092482 0.340205
C36   C     C_2   0.663238 0.708294 0.903709 0.301371
C37   C     C_2   0.747521 0.482023 0.916604 0.237141
C38   C     C_2   0.910075 0.641907 0.637679 0.169199
C39   C     C_2   0.888161 0.353715 0.636857 0.246756
C40   C     C_1   0.509664 0.500403 0.176424 0.072263
C41   C     C_1   0.505312 0.499316 0.251885 0.044092
C42   C     C_3   0.068715 0.638122 0.521621 -0.083969
C43   C     C_3   0.070805 0.372533 0.539658 -0.028713
C44   C     C_3   0.930572 0.630145 0.542369 -0.106087
Cu1   Cu    Cu3+1 0.499860 0.642410 0.500040 0.979641
Cu2   Cu    Cu3+1 0.499860 0.357590 0.500040 1.002281
H1    H     H_    0.319049 0.535425 0.925220 0.114105
H2    H     H_    0.365418 0.873710 0.406784 0.073854
H3    H     H_    0.121028 0.659760 0.580064 0.142207
H4    H     H_    0.111917 0.386990 0.603216 0.178717
H5    H     H_    0.209985 0.625702 0.338841 0.082942
H6    H     H_    0.049452 0.253880 0.345181 0.162222
H7    H     H_    0.780837 0.629783 0.356694 0.266933
H8    H     H_    0.910518 0.710804 0.380431 0.265590
H9    H     H_    0.860762 0.287104 0.386290 0.205307
H10   H     H_    0.766609 0.401134 0.342684 0.284543
H11   H     H_    0.803705 0.113442 0.572086 0.077523
H12   H     H_    0.398110 0.329481 0.940518 0.176474
H13   H     H_    0.783423 0.870442 0.600975 0.101898
H14   H     H_    0.403103 0.163307 0.294852 0.127662
H15   H     H_    0.477930 0.829150 0.287202 0.123462
H16   H     H_    0.332652 0.244521 0.626944 0.277661
H17   H     H_    0.272289 0.096915 0.644366 0.207427
H18   H     H_    0.241924 0.873609 0.611160 0.210829
H19   H     H_    0.244910 0.953906 0.517200 0.226810
H20   H     H_    0.271886 0.487998 0.137228 0.274252
H21   H     H_    0.204091 0.539916 0.048496 0.257080
H22   H     H_    0.412269 0.171164 0.058239 0.282155
H23   H     H_    0.883652 0.721901 0.516584 0.139514
H24   H     H_    0.437775 0.248023 0.150913 0.253372
H25   H     H_    0.624127 0.173119 0.074449 0.291776
H26   H     H_    0.701085 0.296010 0.024485 0.251502
H27   H     H_    0.287865 0.755183 0.070711 0.274750
H28   H     H_    0.362750 0.704228 0.155858 0.219738
H29   H     H_    0.592708 0.251499 0.837410 0.154707
H30   H     H_    0.345506 0.736461 0.848253 0.116328
H31   H     H_    0.589541 0.818407 0.037872 0.220816
H32   H     H_    0.835670 0.595218 0.072902 0.198173
H33   H     H_    0.608107 0.741959 0.851133 0.180633
H34   H     H_    0.895748 0.282601 0.513726 0.136041
H35   H     H_    0.734268 0.394987 0.875674 0.128754
H36   H     H_    0.173527 0.767473 0.444048 0.271939
H37   H     H_    0.060224 0.846799 0.497965 0.227492
H38   H     H_    0.090728 0.162421 0.559593 0.267402
H39   H     H_    0.183979 0.216101 0.480756 0.302927
H40   H     H_    0.985985 0.652351 0.680653 0.134399
H41   H     H_    0.801134 0.394729 0.658130 0.211021
H42   H     H_    0.676900 0.102306 0.448128 0.155347
H43   H     H_    0.689032 0.872736 0.470412 0.137255
H44   H     H_    0.486516 0.093054 0.635615 0.192941
H45   H     H_    0.436384 0.872376 0.630229 0.196893
H46   H     H_    0.342740 0.100218 0.428509 0.092749
N1    N     N_3   0.500250 0.143650 0.501830 -0.213152
N2    N     N_3   0.371289 0.713717 0.090381 -0.571873
N3    N     N_3   0.084605 0.756631 0.465331 -0.677528
N4    N     N_3   0.100557 0.231875 0.509869 -0.680553
N5    N     N_3   0.500250 0.856350 0.501830 -0.231657
N6    N     N_3   0.875826 0.620633 0.355400 -0.486185
N7    N     N_3   0.858723 0.379363 0.353461 -0.541151
N8    N     N_3   0.317173 0.151354 0.596826 -0.640158
N9    N     N_3   0.289304 0.880053 0.553676 -0.623324
N10   N     N_3   0.283210 0.492897 0.071661 -0.583478
N11   N     N_3   0.417989 0.267473 0.087622 -0.570522
N12   N     N_3   0.634080 0.279732 0.070209 -0.522224
O1    O     O_R   0.317570 0.620260 0.500050 -0.502667
O2    O     O_2   0.214610 0.324345 0.327796 -0.567244
O3    O     O_2   0.668160 0.198217 0.637895 -0.489916
O4    O     O_2   0.630542 0.843068 0.664523 -0.462472
O5    O     O_2   0.581200 0.151516 0.315708 -0.460270
O6    O     O_2   0.639056 0.879754 0.332640 -0.453721
O7    O     O_2   0.551810 0.117419 0.925991 -0.450999
O8    O     O_2   0.415060 0.836521 0.945495 -0.468782
O9    O     O_2   0.634656 0.770142 0.153514 -0.464139
O10   O     O_2   0.758316 0.466868 0.152542 -0.437947
O11   O     O_2   0.750412 0.779061 0.922854 -0.435339
O12   O     O_R   0.317570 0.379740 0.500050 -0.491026
O13   O     O_2   0.853197 0.513661 0.929990 -0.463441
O14   O     O_2   0.807771 0.639239 0.668351 -0.478917
O15   O     O_2   0.946123 0.281820 0.685569 -0.496312
O16   O     O_R   0.499890 0.620310 0.379470 -0.535608
O17   O     O_R   0.499890 0.379690 0.379470 -0.462054
O18   O     O_R   0.682190 0.620260 0.500020 -0.505197
O19   O     O_R   0.682190 0.379740 0.500020 -0.513898
O20   O     O_R   0.499870 0.620210 0.620600 -0.451332
O21   O     O_R   0.499870 0.379790 0.620600 -0.481237
O22   O     O_2   0.075071 0.601499 0.258469 -0.450371

loop_
_geom_bond_atom_site_label_1
_geom_bond_atom_site_label_2
_ccdc_geom_bond_type
H25   N12   S    
C16   C21   S    
C7    N6    S    
H20   N10   S    
Cu2   O21   S    
H22   N11   S    
C39   H41   S    
C25   O22   D    
C19   C31   S    
C26   O2    D    
Cu1   Cu2   S    
C12   C23   S    
C7    N7    S    
C38   H40   S    
C29   O5    D    
C15   O18   A    
C3    C7    S    
H39   N4    S    
C17   C20   S    
C35   O10   D    
C18   C19   S    
H38   N4    S    
C12   C37   S    
H28   N2    S    
C2    C39   S    
C20   C24   S    
C8    C9    S    
C23   C33   S    
C6    C41   S    
Cu2   O17   S    
C1    O12   A    
H19   N9    S    
C12   C36   S    
C16   O21   A    
H21   N10   S    
C22   C40   S    
C19   H12   S    
C13   C14   S    
C37   H35   S    
C42   C44   S    
H27   N2    S    
C14   C30   S    
C6    O16   A    
Cu1   O1    S    
Cu1   O20   S    
H18   N9    S    
C42   N3    S    
C3    C25   S    
C27   H11   S    
C9    H43   S    
C5    C7    S    
H24   N11   S    
C14   H2    S    
C21   C34   T    
H26   N12   S    
C10   N1    S    
C24   C34   S    
C13   N1    S    
C8    H42   S    
C17   N10   S    
C25   H5    S    
C38   C44   S    
H17   N8    S    
C26   H6    S    
C31   H29   S    
C29   H14   S    
C27   O3    D    
C2    C43   S    
H37   N3    S    
C43   N4    S    
C44   H23   S    
C11   N9    S    
C18   N12   S    
C10   N8    S    
C15   O19   A    
H16   N8    S    
Cu1   O16   S    
C40   C41   T    
C5    C44   S    
C30   O6    D    
C23   C35   S    
C13   H46   S    
Cu1   O18   S    
Cu2   O19   S    
C2    C5    S    
C3    C4    S    
C14   N5    S    
C20   C32   S    
C28   H13   S    
C13   C29   S    
C9    N5    S    
H36   N3    S    
C32   O8    D    
C18   C22   S    
C3    C26   S    
C8    N1    S    
C36   H33   S    
C32   H30   S    
C43   H4    S    
C4    C43   S    
H7    N6    S    
C12   C24   S    
C35   H32   S    
C33   O9    D    
C17   C22   S    
H10   N7    S    
Cu2   O12   S    
C11   N5    S    
C1    C4    S    
C19   C24   S    
C16   O20   A    
Cu1   N5    S    
C33   H31   S    
Cu2   N1    S    
C4    C42   S    
C28   O4    D    
C39   O15   D    
C18   N11   S    
C5    C15   S    
C20   H1    S    
C2    H34   S    
C10   C11   S    
C42   H3    S    
C38   O14   D    
C11   H45   S    
C37   O13   D    
C10   H44   S    
C30   H15   S    
H9    N7    S    
C8    C27   S    
C31   O7    D    
C22   C23   S    
H8    N6    S    
C17   N2    S    
C6    O17   A    
C36   O11   D    
C9    C28   S    
C1    O1    A    
