data_mof_unit_31348.cif
_audit_creation_date              2012-12-10T18:01:15-0500
_audit_creation_method            fapswitch 2.2
_symmetry_space_group_name_H-M    P1
_symmetry_Int_Tables_number       1
_space_group_crystal_system       triclinic
_cell_length_a                    9.718666
_cell_length_b                    10.678888
_cell_length_c                    17.147947
_cell_angle_alpha                 91.964318
_cell_angle_beta                  85.190603
_cell_angle_gamma                 89.8877
_cell_volume                      1772.36281079

loop_
_atom_site_label
_atom_site_type_symbol
_atom_type_description
_atom_site_fract_x
_atom_site_fract_y
_atom_site_fract_z
_atom_type_partial_charge
C1    C     C_R   0.499942 0.737024 0.499981 0.894975
C2    C     C_R   0.500068 0.263060 0.500127 0.889784
C3    C     C_R   0.506828 0.931807 0.428719 0.574289
C4    C     C_R   0.493122 0.068623 0.571583 0.574444
C5    C     C_R   0.507212 0.061563 0.429204 -0.342728
C6    C     C_R   0.492675 0.938777 0.571062 -0.343857
C7    C     C_R   0.500320 0.129200 0.500464 -0.207005
C8    C     C_R   0.499817 0.871065 0.499773 -0.204152
C9    C     C_R   0.919019 0.587137 0.543943 0.040043
C10   C     C_R   0.080602 0.413546 0.455445 0.043565
C11   C     C_R   0.066993 0.588933 0.542409 0.039345
C12   C     C_R   0.932650 0.414111 0.455109 0.037608
C13   C     C_R   0.481558 0.492817 0.649756 0.879271
C14   C     C_R   0.519282 0.499181 0.350511 0.879661
C15   C     C_R   0.474486 0.466813 0.733678 -0.183475
C16   C     C_R   0.533426 0.491846 0.265858 -0.193169
C17   C     C_R   0.588932 0.411940 0.764430 -0.219292
C18   C     C_R   0.531348 0.374790 0.227158 -0.316522
C19   C     C_R   0.586698 0.389363 0.843892 0.609048
C20   C     C_R   0.546358 0.366245 0.145759 0.593823
C21   C     C_R   0.469474 0.421681 0.893972 -0.191840
C22   C     C_R   0.563243 0.475727 0.102764 -0.183751
C23   C     C_R   0.352085 0.469352 0.862890 0.641044
C24   C     C_R   0.570516 0.592699 0.142126 0.639431
C25   C     C_R   0.354983 0.491390 0.783189 -0.284493
C26   C     C_R   0.555401 0.600499 0.223606 -0.263287
C27   C     C_2   0.471058 0.412763 0.979063 0.605230
C28   C     C_2   0.570360 0.469943 0.016969 0.597040
Cu1   Cu    Cu3+1 0.359340 0.499980 0.500000 0.973726
Cu2   Cu    Cu3+1 0.640660 0.500020 0.500000 0.965330
H1    H     H_    0.680283 0.385539 0.726930 0.189449
H2    H     H_    0.519355 0.290193 0.260142 0.176163
H3    H     H_    0.559938 0.690964 0.253634 0.237481
H4    H     H_    0.264973 0.529882 0.761077 0.179471
H5    H     H_    0.512830 0.109457 0.374327 0.186637
H6    H     H_    0.486098 0.890851 0.625922 0.189363
N1    N     N_R   0.147930 0.499970 0.499980 -0.201740
N2    N     N_R   0.852070 0.500030 0.500020 -0.203497
O1    O     O_R   0.381260 0.680340 0.500000 -0.576843
O2    O     O_R   0.618740 0.319660 0.500000 -0.580763
O3    O     O_R   0.618830 0.680370 0.500010 -0.579786
O4    O     O_R   0.381170 0.319630 0.499990 -0.580228
O5    O     O_R   0.367440 0.500000 0.613600 -0.578645
O6    O     O_R   0.632560 0.500000 0.386400 -0.581284
O7    O     O_R   0.605010 0.500030 0.613600 -0.594305
O8    O     O_R   0.394990 0.499970 0.386400 -0.577481
F1    F     F_    0.669620 0.538018 0.976910 -0.594385
F2    F     F_    0.360223 0.361057 0.019809 -0.596151
F3    F     F_    0.236918 0.499892 0.910126 -0.578271
F4    F     F_    0.587813 0.699458 0.101722 -0.575689
F5    F     F_    0.546323 0.251527 0.109101 -0.602254
F6    F     F_    0.698833 0.336278 0.871911 -0.594047
F7    F     F_    0.513053 0.865770 0.359528 -0.694060
F8    F     F_    0.486050 0.134951 0.640803 -0.678149
C29   C     C_R   0.840293 0.681639 0.595348 0.177093
C30   C     C_R   0.830901 0.805737 0.571218 -0.139297
C31   C     C_R   0.786527 0.901642 0.624999 -0.142263
C32   C     C_R   0.746887 0.874208 0.702709 -0.083084
C33   C     C_R   0.755568 0.751294 0.727275 -0.136771
C34   C     C_R   0.805324 0.656080 0.674326 -0.134278
H7    H     H_    0.863199 0.828729 0.511431 0.118301
H8    H     H_    0.782547 0.997269 0.606295 0.153010
H9    H     H_    0.710990 0.948431 0.744040 0.185472
H10   H     H_    0.727780 0.730396 0.787869 0.188299
H11   H     H_    0.821368 0.563258 0.695319 0.141473
C35   C     C_R   0.158379 0.318241 0.404483 0.178598
C36   C     C_R   0.189317 0.341086 0.324736 -0.147606
C37   C     C_R   0.230981 0.242906 0.271944 -0.138563
C38   C     C_R   0.240857 0.121035 0.298063 -0.073642
C39   C     C_R   0.208003 0.096974 0.376947 -0.154964
C40   C     C_R   0.167564 0.195010 0.430017 -0.143638
H12   H     H_    0.175416 0.433916 0.302988 0.151173
H13   H     H_    0.253178 0.260984 0.210466 0.207469
H14   H     H_    0.272216 0.045011 0.257026 0.188203
H15   H     H_    0.212651 0.002141 0.396916 0.150773
H16   H     H_    0.137475 0.174456 0.490430 0.118860
C41   C     C_R   0.129244 0.690935 0.588005 0.181178
C42   C     C_R   0.133267 0.679813 0.668828 -0.151612
C43   C     C_R   0.164696 0.783185 0.716221 -0.138722
C44   C     C_R   0.185684 0.900307 0.683503 -0.075358
C45   C     C_R   0.174918 0.913917 0.603510 -0.150561
C46   C     C_R   0.147558 0.809775 0.555779 -0.139412
H17   H     H_    0.102005 0.592800 0.695176 0.134291
H18   H     H_    0.167679 0.773444 0.778667 0.179343
H19   H     H_    0.207712 0.980922 0.720297 0.179587
H20   H     H_    0.187761 0.005165 0.578483 0.140214
H21   H     H_    0.135932 0.822146 0.494241 0.120427
C47   C     C_R   0.869240 0.319766 0.403917 0.176229
C48   C     C_R   0.852087 0.196086 0.428623 -0.137185
C49   C     C_R   0.822034 0.100012 0.375428 -0.153731
C50   C     C_R   0.807432 0.126518 0.297357 -0.076820
C51   C     C_R   0.825512 0.248793 0.272075 -0.138254
C52   C     C_R   0.857513 0.344894 0.324868 -0.137751
H22   H     H_    0.866703 0.173612 0.488513 0.119627
H23   H     H_    0.810848 0.004836 0.394711 0.149933
H24   H     H_    0.783765 0.052052 0.256273 0.187496
H25   H     H_    0.817439 0.268702 0.211173 0.184823
H26   H     H_    0.877720 0.438034 0.303686 0.146570

loop_
_geom_bond_atom_site_label_1
_geom_bond_atom_site_label_2
_ccdc_geom_bond_type
C27   F2    S    
C29   C30   A    
C28   F1    S    
Cu1   O4    S    
C1    C8    S    
Cu2   O7    S    
C2    C7    S    
C45   C46   A    
C31   C32   A    
C31   H8    S    
C14   O8    A    
C41   C42   A    
C33   H10   S    
Cu1   Cu2   S    
C10   N1    A    
C19   C21   A    
C24   C26   A    
C20   F5    S    
C43   H18   S    
C23   F3    S    
C46   H21   S    
C30   C31   A    
Cu2   N2    S    
C36   H12   S    
C48   H22   S    
C11   N1    A    
C9    N2    A    
C11   C41   S    
C50   H24   S    
C19   F6    S    
C37   C38   A    
Cu2   O3    S    
C39   C40   A    
C9    C29   S    
C18   C20   A    
C45   H20   S    
C25   H4    S    
C35   C36   A    
C21   C27   S    
C33   C34   A    
C22   C28   S    
C29   C34   A    
Cu1   O5    S    
C24   F4    S    
Cu2   O6    S    
C4    C7    A    
C42   H17   S    
C51   H25   S    
C10   C35   S    
C16   C26   A    
C12   C47   S    
C36   C37   A    
C49   H23   S    
C4    C6    A    
C3    C8    A    
C50   C51   A    
C5    C7    A    
C42   C43   A    
C6    C8    A    
C37   H13   S    
C44   H19   S    
C26   H3    S    
C35   C40   A    
Cu1   O1    S    
Cu2   O2    S    
C38   H14   S    
C9    C11   A    
C10   C12   A    
C1    O3    A    
C20   C22   A    
C34   H11   S    
C13   C15   S    
C17   H1    S    
C14   C16   S    
C18   H2    S    
C13   O5    A    
C14   O6    A    
C32   H9    S    
C15   C17   A    
C47   C52   A    
C4    F8    S    
C44   C45   A    
C3    C5    A    
Cu1   O8    S    
C21   C23   A    
C32   C33   A    
C13   O7    A    
C3    F7    S    
C49   C50   A    
C40   H16   S    
C41   C46   A    
C2    O4    A    
C5    H5    S    
C51   C52   A    
C17   C19   A    
C6    H6    S    
C22   C24   A    
C23   C25   A    
C12   N2    A    
C38   C39   A    
C15   C25   A    
C1    O1    A    
C43   C44   A    
C2    O2    A    
C47   C48   A    
C16   C18   A    
Cu1   N1    S    
C39   H15   S    
C30   H7    S    
C48   C49   A    
C52   H26   S    
C27   C28   D    
