data_mof_unit_33862.cif
_audit_creation_date              2012-12-11T17:14:57-0500
_audit_creation_method            fapswitch 2.2
_symmetry_space_group_name_H-M    P1
_symmetry_Int_Tables_number       1
_space_group_crystal_system       triclinic
_cell_length_a                    7.227958
_cell_length_b                    12.131964
_cell_length_c                    21.13957
_cell_angle_alpha                 90.000109
_cell_angle_beta                  90.710688
_cell_angle_gamma                 90.0
_cell_volume                      1853.57205034

loop_
_atom_site_label
_atom_site_type_symbol
_atom_type_description
_atom_site_fract_x
_atom_site_fract_y
_atom_site_fract_z
_atom_type_partial_charge
O1    O     O_R   0.354460 0.152320 0.595720 -0.533052
O2    O     O_R   0.645540 0.847680 0.404280 -0.533052
O3    O     O_R   0.145540 0.652320 0.404280 -0.533052
O4    O     O_R   0.854460 0.347680 0.595720 -0.533052
O5    O     O_R   0.683670 0.140090 0.727290 -0.542327
O6    O     O_R   0.316330 0.859910 0.272710 -0.542327
O7    O     O_R   0.816330 0.640090 0.272710 -0.542328
O8    O     O_R   0.183670 0.359910 0.727290 -0.542327
O9    O     O_R   0.854010 0.349340 0.727750 -0.529067
O10   O     O_R   0.145990 0.650660 0.272250 -0.529067
O11   O     O_R   0.645990 0.849340 0.272250 -0.529064
O12   O     O_R   0.354010 0.150660 0.727750 -0.529064
C1    C     C_R   0.516703 0.105495 0.743761 0.685866
C2    C     C_R   0.483297 0.894505 0.256239 0.685866
C3    C     C_R   0.983297 0.605497 0.256238 0.685877
C4    C     C_R   0.016703 0.394503 0.743761 0.685877
O13   O     O_R   0.684170 0.139420 0.596190 -0.546336
O14   O     O_R   0.315830 0.860580 0.403810 -0.546336
O15   O     O_R   0.815830 0.639420 0.403810 -0.546336
O16   O     O_R   0.184170 0.360580 0.596190 -0.546336
C5    C     C_R   0.514996 0.113557 0.574307 0.711709
C6    C     C_R   0.485004 0.886443 0.425692 0.711709
C7    C     C_R   0.985004 0.613556 0.425693 0.711710
C8    C     C_R   0.014996 0.386443 0.574307 0.711709
O17   O     O_3   0.520730 0.319480 0.661730 -0.378875
O18   O     O_3   0.479270 0.680520 0.338270 -0.378875
O19   O     O_3   0.979270 0.819480 0.338270 -0.378873
O20   O     O_3   0.020730 0.180520 0.661730 -0.378873
V1    V     V_3+5 0.795560 0.238090 0.661730 1.386864
V2    V     V_3+5 0.204440 0.761910 0.338270 1.386864
V3    V     V_3+5 0.704440 0.738090 0.338270 1.386864
V4    V     V_3+5 0.295560 0.261910 0.661730 1.386864
C9    C     C_R   0.019482 0.478330 0.794635 -0.076635
C10   C     C_R   0.980518 0.521670 0.205365 -0.076635
C11   C     C_R   0.480520 0.978332 0.205365 -0.076633
C12   C     C_R   0.519479 0.021668 0.794635 -0.076633
C13   C     C_R   0.134218 0.647880 0.841948 -0.212328
C14   C     C_R   0.865782 0.352120 0.158052 -0.212327
C15   C     C_R   0.365834 0.147893 0.158054 -0.212322
C16   C     C_R   0.634166 0.852107 0.841946 -0.212323
C17   C     C_R   0.089144 0.587903 0.786953 -0.005383
C18   C     C_R   0.910856 0.412097 0.213046 -0.005383
C19   C     C_R   0.410883 0.087910 0.213048 -0.005386
C20   C     C_R   0.589117 0.912090 0.786952 -0.005386
C21   C     C_R   0.979517 0.439537 0.855652 -0.224634
C22   C     C_R   0.020483 0.560462 0.144348 -0.224634
C23   C     C_R   0.520465 0.939535 0.144349 -0.224626
C24   C     C_R   0.479535 0.060465 0.855651 -0.224626
C25   C     C_R   0.014147 0.503643 0.910548 0.075174
C26   C     C_R   0.985854 0.496357 0.089452 0.075174
C27   C     C_R   0.485853 0.003643 0.089453 0.075182
C28   C     C_R   0.514146 0.996357 0.910547 0.075182
C29   C     C_R   0.097900 0.607693 0.902401 0.116119
C30   C     C_R   0.902100 0.392307 0.097599 0.116119
C31   C     C_R   0.402148 0.107705 0.097600 0.116114
C32   C     C_R   0.597851 0.892295 0.902399 0.116114
C33   C     C_R   0.975082 0.466363 0.973305 0.056678
C34   C     C_R   0.024919 0.533637 0.026695 0.056678
C35   C     C_R   0.524895 0.966357 0.026694 0.056694
C36   C     C_R   0.475104 0.033643 0.973306 0.056694
C37   C     C_R   0.113221 0.635467 0.015527 -0.196057
C38   C     C_R   0.886780 0.364532 0.984473 -0.196057
C39   C     C_R   0.386873 0.135492 0.984475 -0.196077
C40   C     C_R   0.613126 0.864507 0.015525 -0.196078
C41   C     C_R   0.146834 0.671882 0.954665 -0.195970
C42   C     C_R   0.853166 0.328118 0.045335 -0.195970
C43   C     C_R   0.353263 0.171908 0.045337 -0.195991
C44   C     C_R   0.646737 0.828092 0.954663 -0.195991
H1    H     H_    0.213471 0.751227 0.948511 0.141007
H2    H     H_    0.786530 0.248773 0.051489 0.141007
H3    H     H_    0.286674 0.251265 0.051492 0.141000
H4    H     H_    0.713325 0.748734 0.948508 0.141000
H5    H     H_    0.069500 0.644113 0.141215 0.110956
H6    H     H_    0.930500 0.355887 0.858785 0.110956
H7    H     H_    0.430539 0.144118 0.858784 0.110950
H8    H     H_    0.569460 0.855882 0.141216 0.110949
H9    H     H_    0.200099 0.727860 0.837833 0.121361
H10   H     H_    0.799901 0.272140 0.162167 0.121360
H11   H     H_    0.299972 0.227879 0.162167 0.121356
H12   H     H_    0.700027 0.772121 0.837833 0.121356
H13   H     H_    0.160147 0.689360 0.052852 0.129352
H14   H     H_    0.839853 0.310640 0.947148 0.129352
H15   H     H_    0.340001 0.189400 0.947152 0.129356
H16   H     H_    0.659999 0.810599 0.052848 0.129356
C45   C     C_1   0.995596 0.533391 0.478139 -0.194834
C46   C     C_1   0.004404 0.466609 0.521861 -0.194834
C47   C     C_1   0.504404 0.033391 0.521860 -0.194833
C48   C     C_1   0.495596 0.966609 0.478139 -0.194833
C49   C     C_R   0.890270 0.351893 0.275055 0.066277
C50   C     C_R   0.928799 0.237525 0.277678 -0.093455
C51   C     C_R   0.887999 0.175167 0.331323 -0.092430
C52   C     C_R   0.821545 0.226500 0.385341 -0.082048
C53   C     C_R   0.788161 0.339491 0.384691 -0.115152
C54   C     C_R   0.816504 0.400825 0.329567 -0.177110
H17   H     H_    0.987641 0.195111 0.237625 0.109029
H18   H     H_    0.911968 0.087096 0.331419 0.112878
H19   H     H_    0.792921 0.178525 0.427270 0.106488
H20   H     H_    0.728829 0.378496 0.425760 0.118319
H21   H     H_    0.766501 0.483359 0.329339 0.147626
C55   C     C_R   0.109729 0.648107 0.724945 0.066277
C56   C     C_R   0.071201 0.762475 0.722322 -0.093455
C57   C     C_R   0.112001 0.824833 0.668677 -0.092430
C58   C     C_R   0.178455 0.773500 0.614659 -0.082048
C59   C     C_R   0.211839 0.660509 0.615309 -0.115152
C60   C     C_R   0.183496 0.599175 0.670433 -0.177110
H22   H     H_    0.012359 0.804888 0.762375 0.109029
H23   H     H_    0.088032 0.912904 0.668581 0.112878
H24   H     H_    0.207079 0.821475 0.572730 0.106488
H25   H     H_    0.271171 0.621504 0.574240 0.118319
H26   H     H_    0.233498 0.516641 0.670661 0.147626
C61   C     C_R   0.609713 0.851886 0.724942 0.066285
C62   C     C_R   0.571195 0.737515 0.722317 -0.093447
C63   C     C_R   0.612010 0.675161 0.668671 -0.092433
C64   C     C_R   0.678464 0.726500 0.614654 -0.082049
C65   C     C_R   0.711835 0.839493 0.615307 -0.115155
C66   C     C_R   0.683481 0.900823 0.670431 -0.177110
H27   H     H_    0.512349 0.695094 0.762367 0.109018
H28   H     H_    0.588051 0.587088 0.668573 0.112876
H29   H     H_    0.707098 0.678529 0.572725 0.106489
H30   H     H_    0.771168 0.878503 0.574240 0.118318
H31   H     H_    0.733477 0.983358 0.670662 0.147620
C67   C     C_R   0.390287 0.148114 0.275058 0.066286
C68   C     C_R   0.428805 0.262485 0.277683 -0.093448
C69   C     C_R   0.387989 0.324839 0.331329 -0.092433
C70   C     C_R   0.321536 0.273500 0.385346 -0.082048
C71   C     C_R   0.288164 0.160507 0.384693 -0.115155
C72   C     C_R   0.316520 0.099177 0.329568 -0.177110
H32   H     H_    0.487651 0.304906 0.237633 0.109019
H33   H     H_    0.411949 0.412911 0.331427 0.112876
H34   H     H_    0.292902 0.321471 0.427275 0.106489
H35   H     H_    0.228832 0.121497 0.425760 0.118318
H36   H     H_    0.266523 0.016642 0.329338 0.147620

loop_
_geom_bond_atom_site_label_1
_geom_bond_atom_site_label_2
_ccdc_geom_bond_type
C47   C48   T    
C5    C47   S    
O1    C5    A    
C53   C54   A    
C9    C21   A    
O3    C7    A    
C61   C62   A    
C10   C18   A    
C60   H26   S    
C11   C23   A    
C54   H21   S    
C64   C65   A    
C33   C34   A    
C25   C33   A    
C33   C38   A    
C42   H2    S    
C45   C46   T    
C55   C60   A    
C56   C57   A    
C36   C39   A    
C40   C44   A    
O20   V1    S    
O9    C4    A    
C23   H8    S    
C14   C18   A    
O10   C3    A    
C59   H25   S    
O4    C8    A    
O11   C2    A    
C25   C29   A    
C43   H3    S    
C65   C66   A    
C67   C72   A    
O13   V1    S    
C49   C54   A    
C72   H36   S    
C62   C63   A    
C28   C36   A    
C51   H18   S    
C70   H34   S    
C15   C31   A    
O16   C8    A    
C16   C32   A    
O2    C6    A    
C16   H12   S    
C61   C66   A    
C10   C22   A    
C6    C48   S    
C11   C19   A    
C3    C10   S    
O5    C1    A    
C64   H29   S    
O9    V1    S    
C13   C29   A    
C34   C37   A    
O7    C3    A    
C38   H14   S    
O15   V3    S    
C35   C36   A    
O8    C4    A    
O12   V4    S    
O19   V2    S    
C24   H7    S    
C59   C60   A    
C52   H19   S    
O5    V1    S    
C39   C43   A    
O7    V3    S    
C66   H31   S    
C38   C42   A    
C26   C34   A    
C68   C69   A    
C1    C12   S    
C2    C11   S    
C15   C19   A    
C14   H10   S    
C32   C44   A    
C13   H9    S    
O1    V4    S    
O13   C5    A    
C39   H15   S    
C21   H6    S    
O8    V4    S    
O3    V2    S    
O15   C7    A    
C4    C9    S    
O6    C2    A    
O10   V2    S    
C31   C43   A    
C14   C30   A    
C21   C25   A    
C44   H4    S    
C35   C40   A    
C17   C55   S    
C57   H23   S    
C26   C30   A    
C19   C67   S    
C58   H24   S    
O14   V2    S    
O6    V2    S    
C16   C20   A    
C70   C71   A    
C12   C20   A    
C27   C35   A    
C50   C51   A    
C51   C52   A    
C29   C41   A    
C63   C64   A    
O16   V4    S    
C56   H22   S    
O14   C6    A    
O18   V3    S    
O4    V1    S    
C50   H17   S    
C23   C27   A    
C30   C42   A    
C22   C26   A    
C40   H16   S    
C18   C49   S    
C9    C17   A    
C67   C68   A    
C37   H13   S    
C68   H32   S    
C62   H27   S    
C71   H35   S    
O17   V4    S    
C71   C72   A    
C41   H1    S    
C52   C53   A    
C69   H33   S    
C12   C24   A    
C27   C31   A    
C13   C17   A    
C57   C58   A    
O11   V3    S    
C63   H28   S    
C20   C61   S    
C37   C41   A    
C24   C28   A    
O12   C1    A    
C65   H30   S    
C7    C45   S    
C58   C59   A    
O2    V3    S    
C55   C56   A    
C49   C50   A    
C8    C46   S    
C53   H20   S    
C22   H5    S    
C28   C32   A    
C15   H11   S    
C69   C70   A    
