data_mof_unit_41099.cif
_audit_creation_date              2012-12-11T15:17:32-0500
_audit_creation_method            fapswitch 2.2
_symmetry_space_group_name_H-M    P1
_symmetry_Int_Tables_number       1
_space_group_crystal_system       triclinic
_cell_length_a                    15.742817
_cell_length_b                    15.742816
_cell_length_c                    34.379531
_cell_angle_alpha                 90.0
_cell_angle_beta                  89.999965
_cell_angle_gamma                 120.00023
_cell_volume                      7378.94782521

loop_
_atom_site_label
_atom_site_type_symbol
_atom_type_description
_atom_site_fract_x
_atom_site_fract_y
_atom_site_fract_z
_atom_type_partial_charge
Br1   Br    Br    0.960731 0.292181 0.590012 -0.354044
Br2   Br    Br    0.689808 0.030574 0.430671 -0.322180
Br3   Br    Br    0.340765 0.310189 0.430671 -0.322181
Br4   Br    Br    0.969423 0.659235 0.430671 -0.322181
Br5   Br    Br    0.938469 0.656937 0.841598 -0.318014
Br6   Br    Br    0.343059 0.281531 0.841598 -0.318015
Br7   Br    Br    0.718470 0.061529 0.841598 -0.318014
Br8   Br    Br    0.656939 0.938471 0.341598 -0.318014
Br9   Br    Br    0.281531 0.343059 0.341598 -0.318014
Br10  Br    Br    0.061530 0.718470 0.341598 -0.318014
Br11  Br    Br    0.707820 0.668552 0.590012 -0.354044
Br12  Br    Br    0.331449 0.039270 0.590012 -0.354045
Br13  Br    Br    0.292180 0.960731 0.090012 -0.354045
Br14  Br    Br    0.668552 0.707821 0.090012 -0.354044
Br15  Br    Br    0.039269 0.331448 0.090012 -0.354045
Br16  Br    Br    0.030573 0.689807 0.930671 -0.322180
Br17  Br    Br    0.310189 0.340765 0.930671 -0.322181
Br18  Br    Br    0.659235 0.969423 0.930671 -0.322181
C1    C     C_R   0.577040 0.442608 0.554458 0.574935
C2    C     C_R   0.495149 0.967388 0.213704 0.343971
C3    C     C_R   0.472239 0.504851 0.213704 0.343973
C4    C     C_R   0.032614 0.527762 0.213704 0.343972
C5    C     C_R   0.026622 0.445042 0.849485 -0.134012
C6    C     C_R   0.554958 0.581580 0.849485 -0.134012
C7    C     C_R   0.418422 0.973382 0.849486 -0.134012
C8    C     C_R   0.445042 0.026622 0.349485 -0.134012
C9    C     C_R   0.581579 0.554958 0.349485 -0.134012
C10   C     C_R   0.973382 0.418422 0.349485 -0.134012
C11   C     C_R   0.064783 0.458069 0.886633 -0.140946
C12   C     C_R   0.557392 0.134433 0.554458 0.574934
C13   C     C_R   0.541932 0.606714 0.886634 -0.140946
C14   C     C_R   0.393288 0.935221 0.886634 -0.140946
C15   C     C_R   0.458069 0.064783 0.386633 -0.140946
C16   C     C_R   0.606714 0.541932 0.386634 -0.140946
C17   C     C_R   0.935220 0.393287 0.386634 -0.140946
C18   C     C_R   0.034580 0.593492 0.897104 0.167534
C19   C     C_R   0.406506 0.441087 0.897103 0.167533
C20   C     C_R   0.558913 0.965420 0.897104 0.167534
C21   C     C_R   0.593492 0.034580 0.397103 0.167534
C22   C     C_R   0.441087 0.406506 0.397103 0.167534
C23   C     C_R   0.865567 0.422960 0.554458 0.574934
C24   C     C_R   0.965420 0.558913 0.397103 0.167534
C25   C     C_R   0.995686 0.580089 0.859091 0.190179
C26   C     C_R   0.419909 0.415597 0.859091 0.190179
C27   C     C_R   0.584404 0.004314 0.859091 0.190179
C28   C     C_R   0.580090 0.995687 0.359091 0.190179
C29   C     C_R   0.415597 0.419909 0.359091 0.190179
C30   C     C_R   0.004314 0.584404 0.359091 0.190179
C31   C     C_R   0.996684 0.508583 0.834522 0.007530
C32   C     C_R   0.491416 0.488101 0.834522 0.007530
C33   C     C_R   0.511901 0.003318 0.834522 0.007530
C34   C     C_R   0.442608 0.577040 0.054458 0.574934
C35   C     C_R   0.508584 0.996685 0.334522 0.007531
C36   C     C_R   0.488101 0.491416 0.334522 0.007530
C37   C     C_R   0.003318 0.511900 0.334522 0.007530
C38   C     C_R   0.074485 0.535243 0.910111 -0.006535
C39   C     C_R   0.464756 0.539241 0.910111 -0.006535
C40   C     C_R   0.460760 0.925516 0.910111 -0.006535
C41   C     C_R   0.535244 0.074485 0.410110 -0.006535
C42   C     C_R   0.539241 0.464756 0.410110 -0.006535
C43   C     C_R   0.925516 0.460759 0.410111 -0.006536
C44   C     C_R   0.577393 0.442594 0.445671 0.569477
C45   C     C_R   0.134433 0.557392 0.054458 0.574935
C46   C     C_R   0.557405 0.134798 0.445671 0.569477
C47   C     C_R   0.865202 0.422607 0.445671 0.569476
C48   C     C_R   0.442594 0.577393 0.945671 0.569477
C49   C     C_R   0.134798 0.557405 0.945671 0.569477
C50   C     C_R   0.422607 0.865202 0.945671 0.569477
C51   C     C_R   0.923105 0.458445 0.591030 0.020503
C52   C     C_R   0.541555 0.464660 0.591030 0.020503
C53   C     C_R   0.535340 0.076896 0.591031 0.020503
C54   C     C_R   0.458445 0.923105 0.091030 0.020503
C55   C     C_R   0.464660 0.541555 0.091030 0.020503
C56   C     C_R   0.422960 0.865567 0.054458 0.574934
C57   C     C_R   0.076896 0.535340 0.091031 0.020503
C58   C     C_R   0.946752 0.396275 0.612558 0.143454
C59   C     C_R   0.603725 0.550478 0.612558 0.143454
C60   C     C_R   0.449522 0.053249 0.612558 0.143453
C61   C     C_R   0.396275 0.946752 0.112558 0.143454
C62   C     C_R   0.550478 0.603725 0.112558 0.143454
C63   C     C_R   0.053248 0.449522 0.112558 0.143453
C64   C     C_R   0.963878 0.410789 0.652361 -0.085912
C65   C     C_R   0.589211 0.553089 0.652360 -0.085913
C66   C     C_R   0.446911 0.036123 0.652361 -0.085913
C67   C     C_R   0.967388 0.495149 0.713704 0.343972
C68   C     C_R   0.410789 0.963878 0.152361 -0.085913
C69   C     C_R   0.553089 0.589211 0.152361 -0.085913
C70   C     C_R   0.036123 0.446911 0.152361 -0.085913
C71   C     C_R   0.963481 0.489501 0.671026 -0.024917
C72   C     C_R   0.510498 0.473980 0.671026 -0.024917
C73   C     C_R   0.526020 0.036520 0.671026 -0.024917
C74   C     C_R   0.489502 0.963482 0.171026 -0.024916
C75   C     C_R   0.473980 0.510498 0.171025 -0.024917
C76   C     C_R   0.036520 0.526020 0.171026 -0.024917
C77   C     C_R   0.958434 0.561017 0.648618 -0.098951
C78   C     C_R   0.504850 0.472239 0.713704 0.343972
C79   C     C_R   0.438983 0.397418 0.648618 -0.098951
C80   C     C_R   0.602582 0.041566 0.648618 -0.098951
C81   C     C_R   0.561017 0.958435 0.148618 -0.098951
C82   C     C_R   0.397417 0.438983 0.148618 -0.098951
C83   C     C_R   0.041566 0.602582 0.148618 -0.098951
C84   C     C_R   0.940132 0.547074 0.608677 0.060163
C85   C     C_R   0.452926 0.393058 0.608677 0.060164
C86   C     C_R   0.606941 0.059868 0.608677 0.060164
C87   C     C_R   0.547074 0.940132 0.108677 0.060163
C88   C     C_R   0.393058 0.452926 0.108677 0.060163
C89   C     C_R   0.527762 0.032614 0.713704 0.343972
C90   C     C_R   0.059868 0.606941 0.108677 0.060164
C91   C     C_R   0.976171 0.502899 0.792475 0.368788
C92   C     C_R   0.497100 0.473271 0.792475 0.368789
C93   C     C_R   0.526730 0.023831 0.792475 0.368788
C94   C     C_R   0.502900 0.976171 0.292475 0.368789
C95   C     C_R   0.473271 0.497100 0.292475 0.368789
C96   C     C_R   0.023832 0.526730 0.292475 0.368788
Cr1   Cr    Cr6+3 0.522350 0.263930 0.500020 1.148878
Cr2   Cr    Cr6+3 0.736070 0.258420 0.500020 1.148877
Cr3   Cr    Cr6+3 0.741580 0.477650 0.500020 1.148878
Cr4   Cr    Cr6+3 0.263930 0.522350 0.000020 1.148878
Cr5   Cr    Cr6+3 0.258420 0.736070 0.000020 1.148877
Cr6   Cr    Cr6+3 0.477650 0.741580 0.000020 1.148878
H1    H     H_    0.092511 0.410744 0.895969 0.189259
H2    H     H_    0.359318 0.976248 0.168855 0.182769
H3    H     H_    0.616931 0.640682 0.168855 0.182769
H4    H     H_    0.023753 0.383070 0.168855 0.182769
H5    H     H_    0.965445 0.626232 0.662255 0.178106
H6    H     H_    0.373767 0.339213 0.662255 0.178106
H7    H     H_    0.660787 0.034555 0.662256 0.178106
H8    H     H_    0.626233 0.965446 0.162255 0.178106
H9    H     H_    0.339213 0.373767 0.162255 0.178106
H10   H     H_    0.034556 0.660787 0.162256 0.178106
H11   H     H_    0.026679 0.388520 0.831524 0.182347
H12   H     H_    0.589258 0.681766 0.895969 0.189259
H13   H     H_    0.611481 0.638158 0.831524 0.182347
H14   H     H_    0.361845 0.973328 0.831525 0.182348
H15   H     H_    0.388520 0.026678 0.331524 0.182346
H16   H     H_    0.638158 0.611481 0.331524 0.182347
H17   H     H_    0.973327 0.361844 0.331525 0.182348
H18   H     H_    0.318236 0.907495 0.895970 0.189259
H19   H     H_    0.410744 0.092510 0.395969 0.189259
H20   H     H_    0.681766 0.589257 0.395969 0.189259
H21   H     H_    0.907493 0.318235 0.395970 0.189259
H22   H     H_    0.976249 0.359319 0.668855 0.182769
H23   H     H_    0.640682 0.616931 0.668855 0.182769
H24   H     H_    0.383070 0.023753 0.668855 0.182769
I1    I     I_    0.946351 0.666784 0.577565 -0.101961
I2    I     I_    0.333215 0.279567 0.577565 -0.101960
I3    I     I_    0.720432 0.053649 0.577565 -0.101961
I4    I     I_    0.666784 0.946352 0.077565 -0.101961
I5    I     I_    0.279566 0.333215 0.077565 -0.101961
I6    I     I_    0.053648 0.720432 0.077565 -0.101961
N1    N     N_R   0.943444 0.416499 0.773522 -0.193545
N2    N     N_R   0.412649 0.938806 0.234951 -0.200476
N3    N     N_R   0.526160 0.587350 0.234951 -0.200476
N4    N     N_R   0.061192 0.473841 0.234951 -0.200476
N5    N     N_R   0.998604 0.581519 0.732546 -0.192391
N6    N     N_R   0.418481 0.417085 0.732546 -0.192391
N7    N     N_R   0.582915 0.001398 0.732546 -0.192391
N8    N     N_R   0.581520 0.998607 0.232546 -0.192391
N9    N     N_R   0.417085 0.418481 0.232546 -0.192391
N10   N     N_R   0.001398 0.582916 0.232546 -0.192391
N11   N     N_R   0.003866 0.585412 0.771222 -0.151161
N12   N     N_R   0.583501 0.526946 0.773521 -0.193545
N13   N     N_R   0.414587 0.418454 0.771221 -0.151161
N14   N     N_R   0.581547 0.996136 0.771222 -0.151161
N15   N     N_R   0.585413 0.003869 0.271221 -0.151163
N16   N     N_R   0.418453 0.414587 0.271221 -0.151162
N17   N     N_R   0.996136 0.581547 0.271222 -0.151161
N18   N     N_R   0.473055 0.056557 0.773522 -0.193545
N19   N     N_R   0.416499 0.943442 0.273522 -0.193543
N20   N     N_R   0.526946 0.583501 0.273521 -0.193545
N21   N     N_R   0.056557 0.473055 0.273522 -0.193545
N22   N     N_R   0.938809 0.412649 0.734951 -0.200476
N23   N     N_R   0.587350 0.526160 0.734951 -0.200476
N24   N     N_R   0.473840 0.061192 0.734951 -0.200476
O1    O     O_R   0.498680 0.159540 0.541860 -0.454466
O2    O     O_R   0.358060 0.532760 0.040030 -0.482845
O3    O     O_R   0.174700 0.641940 0.040030 -0.482845
O4    O     O_R   0.467240 0.825300 0.040030 -0.482846
O5    O     O_R   0.498590 0.161190 0.456930 -0.497735
O6    O     O_R   0.838810 0.337400 0.456930 -0.497735
O7    O     O_R   0.662600 0.501410 0.456930 -0.497735
O8    O     O_R   0.161190 0.498590 0.956930 -0.497736
O9    O     O_R   0.337400 0.838810 0.956930 -0.497736
O10   O     O_R   0.501410 0.662600 0.956930 -0.497735
O11   O     O_R   0.532680 0.359580 0.461300 -0.466069
O12   O     O_R   0.840460 0.339140 0.541860 -0.454466
O13   O     O_R   0.640420 0.173100 0.461300 -0.466069
O14   O     O_R   0.826900 0.467320 0.461300 -0.466069
O15   O     O_R   0.359580 0.532680 0.961300 -0.466069
O16   O     O_R   0.173100 0.640420 0.961300 -0.466069
O17   O     O_R   0.467320 0.826900 0.961300 -0.466069
O18   O     O_3   0.666667 0.333333 0.499990 -0.305191
O19   O     O_3   0.333333 0.666667 0.999990 -0.305191
O20   O     O_R   0.660860 0.501320 0.541860 -0.454466
O21   O     O_R   0.159540 0.498680 0.041860 -0.454466
O22   O     O_R   0.339140 0.840460 0.041860 -0.454466
O23   O     O_R   0.501320 0.660860 0.041860 -0.454466
O24   O     O_R   0.532760 0.358060 0.540030 -0.482845
O25   O     O_R   0.641940 0.174700 0.540030 -0.482845
O26   O     O_R   0.825300 0.467240 0.540030 -0.482846

loop_
_geom_bond_atom_site_label_1
_geom_bond_atom_site_label_2
_ccdc_geom_bond_type
C6    H13   S    
C30   C37   A    
N7    N14   A    
C53   C86   A    
Br13  C61   S    
C50   O9    A    
C22   C42   A    
C22   C29   A    
C89   N24   A    
C4    C76   S    
Cr2   O25   S    
Cr5   O16   S    
C14   C40   A    
C39   C48   S    
C64   H22   S    
C12   C53   S    
C92   N12   A    
C9    C36   A    
C96   N17   A    
Br15  C63   S    
N12   N23   A    
C51   C84   A    
N5    N11   A    
N18   N24   A    
C2    C74   S    
C41   C46   S    
C64   C71   A    
C3    C75   S    
C27   C33   A    
C9    H16   S    
Br7   C27   S    
C23   C51   S    
C91   N1    A    
C15   H19   S    
C54   C61   A    
C84   I1    S    
C85   I2    S    
Cr1   O11   S    
Cr4   O15   S    
Cr3   O7    S    
C5    C31   A    
C59   C65   A    
C36   C95   S    
C32   C92   S    
C48   O15   A    
C51   C58   A    
C42   C44   S    
Cr5   O22   S    
C67   N5    A    
N10   N17   A    
Cr4   O19   S    
Cr6   O4    S    
C20   C27   A    
Cr1   O1    S    
C8    H15   S    
Br11  C59   S    
C20   C40   A    
Br2   C21   S    
Cr1   O24   S    
C76   C83   A    
N8    N15   A    
Br12  C60   S    
N3    N20   A    
C68   H2    S    
Cr3   O20   S    
C66   C73   A    
Br14  C62   S    
C65   H23   S    
C34   O2    A    
C72   C79   A    
C77   C84   A    
C70   H4    S    
C83   H10   S    
C83   C90   A    
C12   O25   A    
Cr2   O18   S    
C47   O14   A    
Cr4   O2    S    
C57   C90   A    
C15   C41   A    
C88   I5    S    
Br6   C26   S    
C52   C59   A    
C16   C42   A    
C3    N9    A    
C86   I3    S    
C23   O26   A    
C3    N3    A    
C89   N7    A    
C10   C37   A    
C70   C76   A    
Cr4   O8    S    
C9    C16   A    
C6    C32   A    
C96   N21   A    
C81   C87   A    
Cr2   O13   S    
C56   O22   A    
C49   O16   A    
C67   N22   A    
C78   N23   A    
C93   N14   A    
C5    H11   S    
C63   C70   A    
C73   C89   S    
N6    N13   A    
C2    N8    A    
C54   C56   S    
C34   C55   S    
Cr6   O17   S    
C58   C64   A    
C95   N16   A    
C46   O5    A    
C67   C71   S    
C82   H9    S    
C25   C31   A    
C24   C30   A    
C50   O17   A    
C87   I4    S    
Cr2   O12   S    
Cr1   O5    S    
N1    N22   A    
C2    N2    A    
C11   H1    S    
Cr5   O19   S    
C71   C77   A    
C7    C33   A    
C14   H18   S    
C13   H12   S    
C18   C38   A    
Cr3   O18   S    
C43   C47   S    
C77   H5    S    
C8    C15   A    
C94   N19   A    
C56   O4    A    
C92   N13   A    
C21   C41   A    
C4    N10   A    
Cr6   O23   S    
C24   C43   A    
C17   C43   A    
Cr5   O9    S    
Cr4   O21   S    
Cr6   O10   S    
C75   C82   A    
C79   C85   A    
Cr3   O26   S    
C17   H21   S    
C21   C28   A    
C90   I6    S    
Cr1   O18   S    
C35   C94   S    
C40   C50   S    
C80   H7    S    
C37   C96   S    
Br3   C22   S    
Br9   C29   S    
C29   C36   A    
Br10  C30   S    
C45   O21   A    
Br17  C19   S    
C8    C35   A    
C7    H14   S    
C12   O1    A    
C45   C57   S    
C31   C91   S    
C4    N4    A    
C26   C32   A    
C10   C17   A    
C65   C72   A    
C48   O10   A    
C1    O24   A    
C33   C93   S    
C52   C85   A    
Br1   C58   S    
C57   C63   A    
C10   H17   S    
C79   H6    S    
C18   C25   A    
Cr3   O14   S    
C5    C11   A    
C72   C78   S    
C95   N20   A    
C93   N18   A    
C11   C38   A    
C62   C69   A    
C38   C49   S    
C82   C88   A    
Cr6   O19   S    
C45   O3    A    
N9    N16   A    
C13   C39   A    
C19   C26   A    
Cr2   O6    S    
Br18  C20   S    
C6    C13   A    
C68   C74   A    
Br16  C18   S    
C44   O7    A    
C69   H3    S    
N2    N19   A    
C55   C88   A    
C78   N6    A    
Br4   C24   S    
C7    C14   A    
C80   C86   A    
C94   N15   A    
C69   C75   A    
C28   C35   A    
C16   H20   S    
C55   C62   A    
N4    N21   A    
C81   H8    S    
C61   C68   A    
C73   C80   A    
Br5   C25   S    
Br8   C28   S    
C46   O13   A    
C44   O11   A    
C60   C66   A    
C54   C87   A    
C74   C81   A    
C1    O20   A    
C23   O12   A    
C66   H24   S    
C1    C52   S    
C91   N11   A    
C34   O23   A    
Cr5   O3    S    
C53   C60   A    
C19   C39   A    
C49   O8    A    
C47   O6    A    
