data_mof_unit_47579.cif
_audit_creation_date              2012-12-11T21:12:38-0500
_audit_creation_method            fapswitch 2.2
_symmetry_space_group_name_H-M    P1
_symmetry_Int_Tables_number       1
_space_group_crystal_system       triclinic
_cell_length_a                    8.223708
_cell_length_b                    18.825096
_cell_length_c                    26.956715
_cell_angle_alpha                 99.255273
_cell_angle_beta                  92.681717
_cell_angle_gamma                 88.252779
_cell_volume                      4113.26947345

loop_
_atom_site_label
_atom_site_type_symbol
_atom_type_description
_atom_site_fract_x
_atom_site_fract_y
_atom_site_fract_z
_atom_type_partial_charge
Ba1   Ba    Ba6+2 0.160810 0.465630 0.521640 1.682258
Ba2   Ba    Ba6+2 0.649380 0.534380 0.478400 1.678926
C1    C     C_3   0.416594 0.286320 0.701093 -0.352557
C2    C     C_R   0.076319 0.097997 0.454492 -0.095843
C3    C     C_R   0.157694 0.939411 0.432344 0.030522
C4    C     C_3   0.950427 0.269871 0.621530 0.363869
C5    C     C_R   0.034003 0.971383 0.465510 0.010992
C6    C     C_R   0.227507 0.872792 0.439311 -0.119023
C7    C     C_R   0.156896 0.828565 0.468765 -0.050437
C8    C     C_R   0.014692 0.853411 0.494278 0.005377
C9    C     C_R   0.955072 0.925559 0.493804 0.008918
C10   C     C_R   0.217274 0.757648 0.469991 -0.011553
C11   C     C_R   0.125627 0.710045 0.491303 -0.274963
C12   C     C_3   0.428773 0.308712 0.649750 0.340706
C13   C     C_R   0.984542 0.732614 0.516600 0.019379
C14   C     C_R   0.932625 0.806140 0.520379 -0.031434
C15   C     C_R   0.837632 0.069615 0.495434 0.023867
C16   C     C_3   0.978171 0.195032 0.635208 -0.364350
C17   C     C_R   0.782570 0.143161 0.498101 -0.000498
C18   C     C_R   0.874168 0.192793 0.476906 -0.042510
C19   C     C_R   0.016752 0.167349 0.453026 -0.031062
C20   C     C_R   0.802007 0.833997 0.549543 -0.034611
C21   C     C_R   0.743946 0.904193 0.549640 -0.091858
C22   C     C_R   0.814016 0.950539 0.520589 0.017583
C23   C     C_3   0.470411 0.313399 0.397961 0.304904
C24   C     C_R   0.749161 0.021244 0.518458 0.019519
C25   C     C_R   0.598293 0.045544 0.538821 -0.103505
C26   C     C_R   0.635631 0.166843 0.521642 -0.033078
C27   C     C_R   0.543145 0.116506 0.540318 -0.093652
C28   C     C_3   0.811341 0.637887 0.635852 0.697966
C29   C     C_R   0.585694 0.240165 0.525632 -0.003437
C30   C     C_R   0.682621 0.288910 0.507246 -0.308001
C31   C     C_R   0.824175 0.266682 0.482187 0.044901
C32   C     C_R   0.302949 0.447434 0.175388 0.589166
C33   C     C_R   0.139292 0.554362 0.172099 0.570290
C34   C     C_3   0.462604 0.232071 0.383304 -0.388540
C35   C     C_2   0.019170 0.516543 0.269595 -0.106099
C36   C     C_3   0.989876 0.515888 0.324815 -0.100362
C37   C     C_1   0.279603 0.491143 0.335957 0.033001
C38   C     C_2   0.310269 0.494406 0.288810 -0.166539
C39   C     C_2   0.171864 0.505150 0.252000 0.194168
C40   C     C_3   0.758714 0.677256 0.687187 -0.388856
C41   C     C_R   0.286028 0.499955 0.098199 -0.079061
C42   C     C_R   0.349237 0.446960 0.125677 -0.034727
C43   C     C_R   0.458575 0.394554 0.103120 -0.063186
C44   C     C_R   0.178115 0.553296 0.121474 -0.031249
C45   C     C_3   0.847448 0.722438 0.378048 0.324624
C46   C     C_2   0.148749 0.522845 0.356072 0.131284
C47   C     C_2   0.649240 0.470932 0.638186 -0.276654
C48   C     C_R   0.480648 0.443210 0.973803 0.021247
C49   C     C_R   0.313742 0.553658 0.969889 0.019571
C50   C     C_R   0.419117 0.498001 0.946797 0.052619
C51   C     C_R   0.580671 0.387741 0.948396 -0.099465
C52   C     C_3   0.980572 0.367187 0.365315 0.297213
C53   C     C_R   0.616315 0.385498 0.898424 -0.056475
C54   C     C_R   0.558383 0.439545 0.871684 -0.041605
C55   C     C_R   0.463273 0.496841 0.895983 -0.083020
C56   C     C_3   0.856297 0.797290 0.364099 -0.417388
C57   C     C_R   0.411245 0.552416 0.869270 -0.032380
C58   C     C_R   0.462383 0.551724 0.819639 0.598834
C59   C     C_R   0.593042 0.436457 0.820802 0.649990
C60   C     C_2   0.746465 0.463827 0.727886 0.362464
C61   C     C_3   0.758799 0.432206 0.672410 -0.125888
C62   C     C_1   0.520039 0.508459 0.656406 0.000098
C63   C     C_2   0.477498 0.510830 0.703721 -0.191121
C64   C     C_3   0.012855 0.336485 0.310756 -0.364209
C65   C     C_2   0.598535 0.490931 0.743248 0.197147
C66   C     C_R   0.439686 0.445019 0.024771 0.020422
C67   C     C_3   0.306368 0.701536 0.349875 0.309278
C68   C     C_R   0.330616 0.499435 0.047520 0.048686
C69   C     C_R   0.265726 0.553265 0.020154 0.020477
C70   C     C_R   0.503812 0.393776 0.054050 -0.100315
C71   C     C_R   0.112403 0.605077 0.093789 -0.069580
C72   C     C_R   0.260799 0.608042 0.941667 -0.096620
C73   C     C_R   0.310068 0.607745 0.892789 -0.047184
C74   C     C_R   0.154276 0.604926 0.044342 -0.100739
C75   C     C_3   0.343199 0.684991 0.589254 0.295330
C76   C     C_3   0.369960 0.766218 0.600835 -0.250794
C77   C     C_3   0.235632 0.806009 0.632635 -0.178769
C78   C     C_3   0.284260 0.733279 0.300657 -0.228413
C79   C     C_3   0.258476 0.887618 0.640000 -0.219447
C80   C     C_3   0.113299 0.928189 0.665330 -0.413885
C81   C     C_3   0.366702 0.687581 0.255851 -0.205296
C82   C     C_3   0.552572 0.692735 0.258489 -0.158354
C83   C     C_3   0.610039 0.757825 0.237420 -0.414730
C84   C     C_3   0.205501 0.966105 0.384373 -0.188563
C85   C     C_3   0.058575 0.981758 0.349992 -0.197630
C86   C     C_3   0.108132 0.026298 0.310826 -0.421718
C87   C     C_R   0.983108 0.045681 0.470941 -0.001249
H1    H     H_    0.358954 0.360215 0.649667 0.086215
H2    H     H_    0.213359 0.673812 0.580230 0.008829
H3    H     H_    0.414593 0.663845 0.555944 0.059827
H4    H     H_    0.288400 0.275431 0.707857 0.151006
H5    H     H_    0.372019 0.787523 0.564780 0.064586
H6    H     H_    0.490644 0.776625 0.620563 0.105258
H7    H     H_    0.558858 0.316592 0.643533 -0.056240
H8    H     H_    0.459638 0.330354 0.730505 0.119767
H9    H     H_    0.599738 0.328398 0.405034 0.024255
H10   H     H_    0.403101 0.329014 0.432990 0.054661
H11   H     H_    0.526808 0.214390 0.347938 0.132003
H12   H     H_    0.682796 0.725602 0.682242 0.102443
H13   H     H_    0.521231 0.205316 0.413569 0.056774
H14   H     H_    0.333542 0.215660 0.377546 0.108920
H15   H     H_    0.492525 0.237057 0.703398 0.117578
H16   H     H_    0.916339 0.154704 0.606456 0.071625
H17   H     H_    0.726329 0.716936 0.392794 0.123156
H18   H     H_    0.941231 0.717270 0.408001 0.019730
H19   H     H_    0.831155 0.838404 0.397386 0.097706
H20   H     H_    0.979302 0.805952 0.351344 0.106510
H21   H     H_    0.764278 0.804248 0.333829 0.128436
H22   H     H_    0.189032 0.709978 0.368816 -0.003516
H23   H     H_    0.686365 0.641330 0.706022 0.078956
H24   H     H_    0.332690 0.642766 0.342008 0.071512
H25   H     H_    0.151902 0.735442 0.290383 0.110398
H26   H     H_    0.000629 0.270262 0.584046 0.081097
H27   H     H_    0.326666 0.789655 0.306349 0.114267
H28   H     H_    0.167853 0.654809 0.489695 0.101089
H29   H     H_    0.331407 0.853365 0.417787 0.106406
H30   H     H_    0.090526 0.201230 0.435120 0.108997
H31   H     H_    0.742818 0.802178 0.573034 0.079572
H32   H     H_    0.427117 0.131259 0.556723 0.111418
H33   H     H_    0.643565 0.344828 0.510621 0.072428
H34   H     H_    0.867770 0.694507 0.711595 0.126332
H35   H     H_    0.200506 0.088067 0.445087 0.074753
H36   H     H_    0.644924 0.921187 0.573959 0.053527
H37   H     H_    0.816956 0.280726 0.619365 -0.072258
H38   H     H_    0.517825 0.010332 0.553246 0.068105
H39   H     H_    0.434826 0.490491 0.276912 0.127377
H40   H     H_    0.511287 0.353702 0.123477 0.120970
H41   H     H_    0.692162 0.341216 0.880824 0.122420
H42   H     H_    0.632118 0.343806 0.965461 0.067727
H43   H     H_    0.590650 0.352026 0.040557 0.068467
H44   H     H_    0.915091 0.520878 0.243884 0.114441
H45   H     H_    0.095716 0.386943 0.384642 0.004949
H46   H     H_    0.027326 0.646317 0.110393 0.116631
H47   H     H_    0.182776 0.652694 0.956374 0.067407
H48   H     H_    0.110349 0.181302 0.636759 0.148829
H49   H     H_    0.266718 0.651101 0.873306 0.120981
H50   H     H_    0.353803 0.525920 0.713899 0.164959
H51   H     H_    0.095484 0.646251 0.026089 0.068096
H52   H     H_    0.657242 0.454386 0.597913 0.100679
H53   H     H_    0.927831 0.192918 0.672445 0.117560
H54   H     H_    0.701013 0.618289 0.613502 -0.008089
H55   H     H_    0.001461 0.918386 0.640721 0.133704
H56   H     H_    0.888845 0.411750 0.366841 0.023798
H57   H     H_    0.094052 0.910549 0.701971 0.138869
H58   H     H_    0.136317 0.986859 0.672019 0.128596
H59   H     H_    0.371026 0.901544 0.663600 0.123008
H60   H     H_    0.271506 0.905307 0.602966 0.123625
H61   H     H_    0.115373 0.793319 0.613377 0.110775
H62   H     H_    0.237716 0.787643 0.669870 0.149507
H63   H     H_    0.745148 0.758878 0.240226 0.151412
H64   H     H_    0.570185 0.754184 0.197169 0.132145
H65   H     H_    0.561029 0.808580 0.258955 0.124534
H66   H     H_    0.598874 0.695376 0.297862 0.191316
H67   H     H_    0.090833 0.286990 0.309112 0.145642
H68   H     H_    0.605487 0.643275 0.236227 0.130165
H69   H     H_    0.334879 0.630561 0.254395 0.114791
H70   H     H_    0.316250 0.703924 0.220254 0.139593
H71   H     H_    0.149874 0.079937 0.329667 0.132550
H72   H     H_    0.207729 0.998288 0.288323 0.133811
H73   H     H_    0.002188 0.034328 0.285130 0.129839
H74   H     H_    0.008855 0.929987 0.330379 0.114937
H75   H     H_    0.958880 0.011217 0.371395 0.128664
H76   H     H_    0.291709 0.010723 0.392095 0.095450
H77   H     H_    0.279222 0.923951 0.360996 0.088674
H78   H     H_    0.076838 0.375518 0.292538 0.070398
H79   H     H_    0.953064 0.421920 0.748118 0.322585
H80   H     H_    0.089555 0.533878 0.423994 0.310107
H81   H     H_    0.903167 0.564128 0.673634 0.269602
H82   H     H_    0.895990 0.322949 0.289518 0.116352
N1    N     N_R   0.202738 0.501943 0.198843 -0.420608
N2    N     N_R   0.552690 0.493835 0.795557 -0.411367
O1    O     O_2   0.106080 0.324280 0.466820 -0.474183
O2    O     O_2   0.660406 0.567984 0.331746 -0.508461
O3    O     O_3   0.874480 0.669812 0.335814 -0.614325
O4    O     O_3   0.859130 0.413620 0.470620 -0.488534
O5    O     O_3   0.459240 0.537930 0.559910 -0.499913
O6    O     O_2   0.583120 0.462390 0.379940 -0.470014
O7    O     O_3   0.400944 0.346152 0.358488 -0.639830
O8    O     O_2   0.560140 0.757736 0.472830 -0.508647
O9    O     O_3   0.433999 0.735662 0.380386 -0.631968
O10   O     O_2   0.351040 0.398695 0.197765 -0.598468
O11   O     O_2   0.657441 0.381726 0.798827 -0.588647
O12   O     O_3   0.393186 0.652990 0.631004 -0.635360
O13   O     O_2   0.051516 0.602792 0.192631 -0.609992
O14   O     O_2   0.427386 0.602940 0.798249 -0.594931
O15   O     O_3   0.376230 0.370290 0.556910 -0.489673
O16   O     O_2   0.247234 0.243969 0.521463 -0.495404
O17   O     O_3   0.919015 0.312418 0.387404 -0.640799
O18   O     O_3   0.363403 0.254675 0.613025 -0.603672
O19   O     O_2   0.227190 0.537650 0.620070 -0.388489
O20   O     O_3   0.971110 0.406970 0.583250 -0.458398
O21   O     O_2   0.101419 0.456519 0.673693 -0.477094
O22   O     O_3   0.870684 0.456954 0.763352 -0.691230
O23   O     O_3   0.029636 0.320683 0.657980 -0.604805
O24   O     O_3   0.158588 0.560144 0.404229 -0.728516
O25   O     O_3   0.917506 0.579470 0.640665 -0.686339
O26   O     O_2   0.704230 0.675760 0.533200 -0.501627
O27   O     O_3   0.951180 0.586390 0.529420 -0.450993
O28   O     O_3   0.434080 0.629720 0.443130 -0.411864
O29   O     O_3   0.892711 0.687160 0.612916 -0.644468
O30   O     O_3   0.351080 0.462080 0.440130 -0.454473
O31   O     O_3   0.839200 0.593040 0.416790 -0.476253
P1    P     P_3+3 0.929380 0.335110 0.452880 0.968647
P2    P     P_3+3 0.398530 0.559060 0.613740 1.021252
P3    P     P_3+3 0.965965 0.406795 0.647611 0.985390
P4    P     P_3+3 0.880940 0.664900 0.547160 1.001709
P5    P     P_3+3 0.837306 0.584874 0.351351 0.988123
P6    P     P_3+3 0.393928 0.276956 0.553720 0.931814
P7    P     P_3+3 0.400650 0.439701 0.376903 0.984579
P8    P     P_3+3 0.411728 0.721766 0.442548 0.950738

loop_
_geom_bond_atom_site_label_1
_geom_bond_atom_site_label_2
_ccdc_geom_bond_type
C1    H15   S    
C85   H74   S    
C53   C54   A    
C75   H3    S    
C43   H40   S    
O20   P3    S    
C25   C27   A    
C56   H20   S    
C75   O12   S    
C17   C18   A    
C84   H77   S    
C49   C72   A    
C85   C86   S    
C4    O23   S    
C80   H58   S    
C23   O7    S    
C6    H29   S    
O15   P6    S    
C75   C76   S    
C54   C55   A    
C20   H31   S    
O21   P3    D    
Ba2   O28   S    
C67   H24   S    
C24   C25   A    
C35   C36   S    
C64   H78   S    
C34   H14   S    
Ba2   O27   S    
C15   C24   A    
C79   H59   S    
C77   H62   S    
C26   C27   A    
C22   C24   A    
O16   P6    D    
Ba1   P2    S    
C69   C74   A    
C82   H66   S    
C79   H60   S    
C55   C57   A    
C12   O18   S    
C13   C14   A    
C5    C87   A    
O6    P7    D    
C9    C22   A    
O3    P5    S    
C2    H35   S    
C34   H13   S    
Ba1   Ba2   S    
Ba2   O31   S    
C40   H23   S    
C12   H1    S    
C48   C66   A    
C59   N2    Am   
C25   H38   S    
C23   H10   S    
C78   H27   S    
C6    C7    A    
C63   C65   S    
H79   O22   S    
C72   H47   S    
O31   P5    S    
O1    P1    D    
C48   C50   A    
C21   C22   A    
C68   C69   A    
C51   H42   S    
Ba2   O4    S    
Ba1   P1    S    
C7    C8    A    
O28   P8    S    
C36   C46   S    
C13   P4    S    
C67   O9    S    
C21   H36   S    
C45   H17   S    
C74   H51   S    
C85   H75   S    
C57   C58   A    
O27   P4    S    
C47   C62   D    
C61   P3    S    
C43   C70   A    
C58   N2    Am   
O30   P7    S    
C84   H76   S    
C49   C69   A    
C60   O22   S    
C78   C81   S    
C4    C16   S    
C12   H7    S    
C80   H57   S    
C52   H45   S    
C40   H34   S    
C70   H43   S    
C47   C61   S    
C51   C53   A    
C28   O29   S    
C39   N1    S    
Ba1   O1    S    
C48   C51   A    
C72   C73   A    
C49   C50   A    
C30   H33   S    
C64   H82   S    
C16   H53   S    
C15   C87   A    
C82   C83   S    
C4    H37   S    
C34   H11   S    
C50   C55   A    
C37   C38   D    
C3    C5    A    
C84   C85   S    
O18   P6    S    
C62   P2    S    
C81   H69   S    
C79   C80   S    
C28   H54   S    
Ba2   O26   S    
C47   H52   S    
O7    P7    S    
Ba1   O20   S    
C41   C42   A    
C26   C29   A    
C60   C61   S    
C16   H48   S    
C71   H46   S    
Ba1   O5    S    
C1    H8    S    
O17   P1    S    
C5    C9    A    
C81   C82   S    
C76   H6    S    
C66   C70   A    
C53   H41   S    
C31   P1    S    
O9    P8    S    
C37   P7    S    
C32   O10   D    
C1    H4    S    
C83   H64   S    
C10   C11   A    
C86   H71   S    
C17   C26   A    
C10   P8    S    
C1    C12   S    
C33   N1    Am   
C52   H56   S    
C3    C84   S    
C60   C65   D    
C76   H5    S    
C80   H55   S    
C38   C39   S    
C28   O25   S    
C78   H25   S    
C41   C68   A    
C45   H18   S    
O8    P8    D    
C71   C74   A    
C35   H44   S    
Ba1   O27   S    
Ba2   P4    S    
Ba2   O6    S    
C18   C31   A    
Ba1   O30   S    
C40   H12   S    
C57   C73   A    
H81   O25   S    
C32   N1    Am   
C42   C43   A    
H80   O24   S    
C2    C87   A    
Ba1   O15   S    
C32   C42   A    
C75   H2    S    
C59   O11   D    
C14   C20   A    
C52   O17   S    
C56   H21   S    
O19   P2    D    
O12   P2    S    
C29   C30   A    
Ba2   O30   S    
C45   O3    S    
C73   H49   S    
C3    C6    A    
C11   H28   S    
C82   H68   S    
C52   C64   S    
C27   H32   S    
C58   O14   D    
C77   C79   S    
C46   O24   S    
C62   C63   D    
O23   P3    S    
C11   C13   A    
C16   H16   S    
C77   H61   S    
C8    C14   A    
C30   C31   A    
C45   C56   S    
C64   H67   S    
C2    C19   A    
C76   C77   S    
C29   P6    S    
C41   C44   A    
C65   N2    S    
C33   O13   D    
C86   H73   S    
O5    P2    S    
O26   P4    D    
C15   C17   A    
O4    P1    S    
C56   H19   S    
C83   H65   S    
O2    P5    D    
C36   P5    S    
C35   C39   D    
C67   H22   S    
C7    C10   A    
C4    H26   S    
C83   H63   S    
C8    C9    A    
C23   C34   S    
C63   H50   S    
Ba1   O19   S    
C23   H9    S    
C81   H70   S    
C18   C19   A    
C19   H30   S    
C66   C68   A    
C20   C21   A    
C28   C40   S    
C67   C78   S    
O29   P4    S    
Ba2   O5    S    
C33   C44   A    
Ba1   O4    S    
C54   C59   A    
C44   C71   A    
C86   H72   S    
C37   C46   D    
C38   H39   S    
