data_mof_unit_12260.cif
_audit_creation_date              2012-12-10T18:14:37-0500
_audit_creation_method            fapswitch 2.2
_symmetry_space_group_name_H-M    P1
_symmetry_Int_Tables_number       1
_space_group_crystal_system       triclinic
_cell_length_a                    11.355482
_cell_length_b                    9.852678
_cell_length_c                    27.948448
_cell_angle_alpha                 89.605184
_cell_angle_beta                  88.636725
_cell_angle_gamma                 87.945359
_cell_volume                      3123.97377444

loop_
_atom_site_label
_atom_site_type_symbol
_atom_type_description
_atom_site_fract_x
_atom_site_fract_y
_atom_site_fract_z
_atom_type_partial_charge
C1    C     C_R   0.259578 0.502082 0.500569 0.861856
C2    C     C_R   0.419140 0.588707 0.275465 0.103998
C3    C     C_R   0.481218 0.483748 0.251315 0.177108
C4    C     C_R   0.487775 0.479797 0.100200 -0.154587
C5    C     C_R   0.382175 0.450789 0.125720 -0.111510
C6    C     C_R   0.276664 0.440505 0.099760 0.112545
C7    C     C_R   0.588018 0.518879 0.125127 -0.087947
C8    C     C_R   0.491205 0.500669 0.353050 -0.205191
C9    C     C_R   0.509579 0.500764 0.646807 -0.194196
C10   C     C_R   0.400531 0.410950 0.974317 0.002142
C11   C     C_R   0.608795 0.469419 0.974606 0.062260
C12   C     C_R   0.496314 0.500824 0.407452 0.786410
C13   C     C_R   0.506182 0.439995 0.949286 -0.029635
C14   C     C_R   0.311311 0.347604 0.948606 0.195380
C15   C     C_R   0.309805 0.356745 0.898266 0.161410
C16   C     C_R   0.411509 0.400082 0.872673 -0.114404
C17   C     C_R   0.511473 0.432489 0.898735 -0.088543
C18   C     C_R   0.619364 0.448393 0.874164 -0.075965
C19   C     C_R   0.621579 0.452241 0.824019 0.679242
C20   C     C_R   0.421917 0.403760 0.821943 0.613158
C21   C     C_R   0.404688 0.522392 0.724899 0.153693
C22   C     C_R   0.404046 0.509275 0.674658 0.089405
C23   C     C_R   0.738316 0.498996 0.493965 0.928893
C24   C     C_R   0.614920 0.517935 0.672256 0.035724
C25   C     C_R   0.611310 0.542889 0.721825 0.414880
C26   C     C_R   0.511853 0.506340 0.749033 0.127463
C27   C     C_R   0.391804 0.435450 0.024500 0.030237
C28   C     C_R   0.493460 0.468786 0.049645 -0.028425
C29   C     C_R   0.599063 0.497862 0.024273 -0.001957
C30   C     C_R   0.281943 0.447495 0.049203 0.368540
C31   C     C_R   0.687448 0.564565 0.099125 0.403074
C32   C     C_R   0.719322 0.455070 0.950128 0.426442
C33   C     C_R   0.723360 0.451487 0.899970 -0.206577
C34   C     C_R   0.505934 0.499404 0.592448 0.895831
C35   C     C_R   0.686718 0.566610 0.048789 0.122660
C36   C     C_3   0.049832 0.590060 0.538467 0.599504
C37   C     C_3   0.073985 0.355494 0.503722 0.655556
C38   C     C_3   0.918680 0.619175 0.524540 0.405980
C39   C     C_3   0.933312 0.357578 0.506285 0.314534
C40   C     C_3   0.074782 0.557471 0.445246 0.530247
C41   C     C_3   0.119039 0.504078 0.497034 -0.383924
C42   C     C_3   0.877622 0.501275 0.490066 -0.277679
C43   C     C_3   0.936375 0.533524 0.439037 0.589330
C44   C     C_3   0.600518 0.074176 0.528037 -0.045222
C45   C     C_3   0.589290 0.914133 0.534231 -0.066396
C46   C     C_3   0.389607 0.083604 0.523074 0.400290
C47   C     C_3   0.383997 0.919127 0.517040 0.417449
C48   C     C_3   0.514434 0.084089 0.451412 0.656726
C49   C     C_3   0.531063 0.917674 0.452330 0.639206
C50   C     C_R   0.386106 0.441720 0.176226 0.649427
C51   C     C_R   0.582869 0.518976 0.175571 0.692672
C52   C     C_R   0.547824 0.388081 0.276864 0.411970
C53   C     C_R   0.562250 0.405477 0.326379 0.029850
C54   C     C_R   0.416630 0.591643 0.326110 0.105584
Cu1   Cu    Cu3+1 0.499860 0.642410 0.500020 1.092849
Cu2   Cu    Cu3+1 0.499860 0.357590 0.500020 1.139787
H1    H     H_    0.808170 0.449728 0.881341 0.201951
H2    H     H_    0.681350 0.083741 0.506620 0.213208
H3    H     H_    0.673821 0.867709 0.523695 0.238202
N1    N     N_R   0.483814 0.479452 0.199731 -0.449024
N2    N     N_R   0.517745 0.460769 0.799448 -0.441819
N3    N     N_3   0.500250 0.143650 0.501060 -0.225062
N4    N     N_3   0.500250 0.856350 0.501060 -0.214581
O1    O     O_R   0.317570 0.620260 0.500030 -0.565399
O2    O     O_R   0.317570 0.379740 0.500030 -0.441035
O3    O     O_R   0.499900 0.620250 0.430280 -0.515697
O4    O     O_R   0.499900 0.379750 0.430280 -0.486959
O5    O     O_R   0.682190 0.620260 0.500010 -0.545207
O6    O     O_R   0.682190 0.379740 0.500010 -0.527036
O7    O     O_R   0.499860 0.620280 0.569750 -0.543389
O8    O     O_R   0.499860 0.379720 0.569750 -0.544319
O9    O     O_2   0.294583 0.394967 0.202130 -0.454548
O10   O     O_2   0.343285 0.340778 0.795435 -0.461983
O11   O     O_2   0.675712 0.558233 0.200669 -0.410064
O12   O     O_2   0.726389 0.436098 0.800837 -0.446034
I1    I     I_    0.290046 0.729216 0.356437 -0.101315
O13   O     O_3   0.605517 0.284829 0.251506 -0.657521
H4    H     H_    0.621117 0.207465 0.273532 0.354838
O14   O     O_3   0.781117 0.614777 0.123301 -0.621166
H5    H     H_    0.852230 0.610596 0.102073 0.357973
O15   O     O_3   0.821114 0.433743 0.975760 -0.686431
H6    H     H_    0.889634 0.422575 0.953274 0.357442
I2    I     I_    0.785107 0.457446 0.648968 -0.088672
O16   O     O_3   0.695592 0.619563 0.742681 -0.638288
H7    H     H_    0.741925 0.665886 0.717327 0.359082
I3    I     I_    0.785211 0.722636 0.013483 -0.201997
O17   O     O_3   0.102701 0.711124 0.548554 -0.710571
H8    H     H_    0.127368 0.751848 0.518336 0.347437
O18   O     O_3   0.121908 0.271463 0.466843 -0.659210
H9    H     H_    0.082043 0.287039 0.436421 0.393800
O19   O     O_3   0.047120 0.516298 0.581522 -0.565495
H10   H     H_    0.024997 0.578993 0.608240 0.388613
O20   O     O_3   0.118821 0.302684 0.546957 -0.592704
H11   H     H_    0.086801 0.211728 0.552699 0.331635
O21   O     O_3   0.845782 0.622145 0.565658 -0.659024
H12   H     H_    0.865342 0.702303 0.584880 0.353264
O22   O     O_3   0.894248 0.336820 0.553666 -0.612123
H13   H     H_    0.903160 0.238805 0.561074 0.353417
I4    I     I_    0.334699 0.744772 0.232748 -0.138127
I5    I     I_    0.898423 0.829621 0.497748 -0.188144
I6    I     I_    0.875470 0.183908 0.465110 -0.146213
O23   O     O_3   0.092276 0.696674 0.439391 -0.634709
H14   H     H_    0.176438 0.711723 0.444041 0.364035
O24   O     O_3   0.138281 0.490788 0.407579 -0.674132
H15   H     H_    0.223725 0.494276 0.413259 0.324800
O25   O     O_3   0.880449 0.647913 0.417608 -0.609752
H16   H     H_    0.798617 0.623855 0.410345 0.337193
O26   O     O_3   0.924182 0.424778 0.407821 -0.719038
H17   H     H_    0.947561 0.455274 0.375074 0.414233
I7    I     I_    0.673245 0.170261 0.589160 -0.143886
I8    I     I_    0.610709 0.844441 0.608768 -0.208889
I9    I     I_    0.360110 0.152151 0.597530 -0.114560
I10   I     I_    0.313623 0.826051 0.583144 -0.159846
O27   O     O_3   0.419639 0.131217 0.422737 -0.648606
H18   H     H_    0.354541 0.067399 0.423710 0.391810
O28   O     O_3   0.460133 0.864236 0.417411 -0.649547
H19   H     H_    0.482762 0.904711 0.385990 0.308309
O29   O     O_3   0.615700 0.135809 0.429811 -0.652622
H20   H     H_    0.618559 0.101678 0.396475 0.336072
O30   O     O_3   0.649727 0.877911 0.440836 -0.706072
H21   H     H_    0.663671 0.878070 0.405670 0.342358
O31   O     O_3   0.292783 0.138840 0.500138 -0.604520
H22   H     H_    0.223726 0.105830 0.517964 0.341739
O32   O     O_3   0.302739 0.887692 0.481735 -0.676652
H23   H     H_    0.222173 0.911811 0.493141 0.333643
I11   I     I_    0.105074 0.420078 0.132977 -0.078088
I12   I     I_    0.243023 0.475918 0.644878 -0.065580
I13   I     I_    0.256253 0.622064 0.760835 -0.108181
I14   I     I_    0.146104 0.316437 0.864996 -0.096111
I15   I     I_    0.209303 0.191719 0.982302 -0.158907
O33   O     O_3   0.182361 0.477331 0.023047 -0.687961
H24   H     H_    0.125173 0.531671 0.042878 0.357267
I16   I     I_    0.721433 0.325474 0.352678 -0.176660

loop_
_geom_bond_atom_site_label_1
_geom_bond_atom_site_label_2
_ccdc_geom_bond_type
C10   C27   A    
C21   C26   A    
O20   H11   S    
C49   N4    S    
C46   I9    S    
C23   O6    A    
O21   H12   S    
C51   O11   S    
Cu1   Cu2   S    
O15   H6    S    
C22   I12   S    
O13   H4    S    
O26   H17   S    
C32   O15   S    
C23   C42   S    
C46   N3    S    
C28   C29   A    
C24   I2    S    
C38   C42   S    
C47   N4    S    
C5    C6    A    
C35   I3    S    
C9    C22   A    
C39   O22   S    
C49   O30   S    
O25   H16   S    
Cu2   O2    S    
O22   H13   S    
O28   H19   S    
C18   C19   A    
C20   N2    A    
C50   O9    S    
O29   H20   S    
C40   C43   S    
C44   H2    S    
C16   C17   A    
Cu1   N4    S    
C38   O21   S    
C25   O16   S    
C1    O2    A    
C34   O7    A    
C16   C20   A    
C3    N1    S    
C21   C22   A    
C27   C30   A    
C36   C41   S    
O23   H14   S    
C4    C7    A    
O24   H15   S    
C4    C28   A    
C39   I6    S    
C39   C42   S    
C36   O17   S    
C12   O4    A    
C7    C31   A    
C15   C16   A    
C53   I16   S    
C24   C25   A    
C6    I11   S    
C38   I5    S    
C10   C14   A    
C8    C54   A    
O19   H10   S    
Cu1   O5    S    
C48   O29   S    
C44   N3    S    
C25   C26   A    
C12   O3    A    
C45   N4    S    
C43   O25   S    
C23   O5    A    
C40   O24   S    
C48   N3    S    
C15   I14   S    
C8    C12   S    
Cu2   O8    S    
Cu1   O1    S    
C17   C18   A    
C37   O20   S    
C52   C53   A    
O16   H7    S    
C21   I13   S    
C31   O14   S    
C54   I1    S    
C36   O19   S    
C1    C41   S    
C40   C41   S    
C6    C30   A    
C2    I4    S    
C2    C54   A    
C9    C34   S    
C31   C35   A    
C5    C50   A    
C42   C43   S    
C52   O13   S    
C1    O1    A    
Cu1   O3    S    
O30   H21   S    
C48   O27   S    
C14   I15   S    
C47   I10   S    
C46   C47   S    
C45   H3    S    
C33   H1    S    
C26   N2    S    
C44   C45   S    
C4    C5    A    
C10   C13   A    
C8    C53   A    
C11   C32   A    
C3    C52   A    
C45   I8    S    
C9    C24   A    
O27   H18   S    
C37   O18   S    
Cu2   O4    S    
C29   C35   A    
C13   C17   A    
C50   N1    A    
C32   C33   A    
C36   C38   S    
C2    C3    A    
O31   H22   S    
C7    C51   A    
C37   C39   S    
C11   C13   A    
C47   O32   S    
C19   N2    A    
C48   C49   S    
C19   O12   S    
C20   O10   S    
Cu2   N3    S    
C43   O26   S    
C37   C41   S    
O33   H24   S    
C18   C33   A    
Cu1   O7    S    
C40   O23   S    
O14   H5    S    
C49   O28   S    
C11   C29   A    
O17   H8    S    
Cu2   O6    S    
C27   C28   A    
C14   C15   A    
C46   O31   S    
C51   N1    A    
O18   H9    S    
C34   O8    A    
C30   O33   S    
O32   H23   S    
C44   I7    S    
