data_mof_unit_30242.cif
_audit_creation_date              2012-12-10T19:35:25-0500
_audit_creation_method            fapswitch 2.2
_symmetry_space_group_name_H-M    P1
_symmetry_Int_Tables_number       1
_space_group_crystal_system       triclinic
_cell_length_a                    30.665798
_cell_length_b                    30.67417
_cell_length_c                    22.389313
_cell_angle_alpha                 89.993925
_cell_angle_beta                  89.991846
_cell_angle_gamma                 89.992646
_cell_volume                      21060.459774

loop_
_atom_site_label
_atom_site_type_symbol
_atom_type_description
_atom_site_fract_x
_atom_site_fract_y
_atom_site_fract_z
_atom_type_partial_charge
C1    C     C_R   0.618013 0.118426 0.250328 -0.407870
C2    C     C_R   0.617784 0.881418 0.250630 -0.394389
C3    C     C_R   0.360498 0.129924 0.303648 0.331864
C4    C     C_R   0.891539 0.338513 0.732459 0.334793
C5    C     C_R   0.127858 0.641762 0.302988 0.333502
C6    C     C_R   0.337793 0.107563 0.737955 0.335004
C7    C     C_R   0.638038 0.869090 0.304751 0.331046
C8    C     C_R   0.890711 0.661140 0.268572 0.334483
C9    C     C_R   0.128186 0.358509 0.697017 0.334277
C10   C     C_R   0.337888 0.892392 0.262412 0.333424
C11   C     C_R   0.638878 0.130494 0.695947 0.338009
C12   C     C_R   0.108259 0.338364 0.266815 0.334339
C13   C     C_R   0.881619 0.381731 0.749925 -0.406096
C14   C     C_R   0.872077 0.641822 0.697253 0.332805
C15   C     C_R   0.662141 0.107795 0.261334 0.333452
C16   C     C_R   0.360494 0.870039 0.696297 0.337519
C17   C     C_R   0.637841 0.195082 0.250098 0.349073
C18   C     C_R   0.333478 0.832917 0.804143 0.315719
C19   C     C_R   0.194649 0.360844 0.241966 0.349061
C20   C     C_R   0.829254 0.663306 0.803671 0.315149
C21   C     C_R   0.361592 0.805195 0.248240 0.348428
C22   C     C_R   0.666520 0.167155 0.803789 0.316606
C23   C     C_R   0.804642 0.637737 0.243012 0.348392
C24   C     C_R   0.118361 0.618249 0.250172 -0.391036
C25   C     C_R   0.169698 0.335768 0.803837 0.316122
C26   C     C_R   0.361388 0.194808 0.751901 0.349836
C27   C     C_R   0.665534 0.831380 0.197596 0.316891
C28   C     C_R   0.805291 0.361076 0.758329 0.348163
C29   C     C_R   0.170302 0.663795 0.196532 0.315135
C30   C     C_R   0.638293 0.805090 0.750515 0.349675
C31   C     C_R   0.333229 0.166648 0.195762 0.346816
C32   C     C_R   0.194614 0.639097 0.758336 0.348488
C33   C     C_R   0.828766 0.336918 0.197239 0.315325
C34   C     C_R   0.139204 0.694532 0.741601 0.348519
C35   C     C_R   0.618134 0.881662 0.749801 -0.409743
C36   C     C_R   0.835774 0.330549 0.304970 0.314506
C37   C     C_R   0.694562 0.860926 0.748326 0.349844
C38   C     C_R   0.333217 0.166569 0.304400 0.347116
C39   C     C_R   0.860512 0.305582 0.740816 0.348569
C40   C     C_R   0.163948 0.669817 0.304387 0.315108
C41   C     C_R   0.305295 0.138853 0.747556 0.349898
C42   C     C_R   0.664345 0.831744 0.306185 0.346527
C43   C     C_R   0.859218 0.693758 0.260988 0.348575
C44   C     C_R   0.164331 0.330524 0.695811 0.316052
C45   C     C_R   0.305426 0.861042 0.253074 0.348933
C46   C     C_R   0.381771 0.118144 0.250021 -0.395767
C47   C     C_R   0.666348 0.167013 0.695203 0.316234
C48   C     C_R   0.139188 0.305392 0.258080 0.349165
C49   C     C_R   0.835877 0.669739 0.695912 0.314705
C50   C     C_R   0.694349 0.139477 0.252304 0.349797
C51   C     C_R   0.332858 0.833645 0.695586 0.315875
C52   C     C_R   0.682529 0.184001 0.251603 -0.290666
C53   C     C_R   0.316652 0.816726 0.749839 -0.274188
C54   C     C_R   0.183483 0.316567 0.250065 -0.290859
C55   C     C_R   0.816036 0.682950 0.749732 -0.266887
C56   C     C_R   0.316976 0.816484 0.250835 -0.290507
C57   C     C_R   0.118331 0.618291 0.750001 -0.406065
C58   C     C_R   0.682896 0.183690 0.749397 -0.275027
C59   C     C_R   0.815106 0.682021 0.252499 -0.290192
C60   C     C_R   0.183526 0.316676 0.749784 -0.271348
C61   C     C_R   0.316781 0.183426 0.749688 -0.291653
C62   C     C_R   0.681140 0.814664 0.252307 -0.281489
C63   C     C_R   0.816291 0.316848 0.749408 -0.290457
C64   C     C_R   0.183662 0.683253 0.250560 -0.267778
C65   C     C_R   0.682944 0.816358 0.749301 -0.291433
C66   C     C_R   0.316678 0.183176 0.250101 -0.289507
C67   C     C_R   0.183470 0.683352 0.749921 -0.290482
C68   C     C_R   0.881447 0.381910 0.250434 -0.389998
C69   C     C_R   0.815657 0.317388 0.251323 -0.266449
C70   C     C_R   0.781329 0.283343 0.251758 0.209940
C71   C     C_R   0.217676 0.717525 0.749831 0.194808
C72   C     C_R   0.282521 0.217416 0.250131 0.196450
C73   C     C_R   0.717007 0.782041 0.749260 0.190876
C74   C     C_R   0.217926 0.717374 0.250767 0.208548
C75   C     C_R   0.781981 0.282781 0.749236 0.195154
C76   C     C_R   0.715037 0.780151 0.253136 0.200652
C77   C     C_R   0.282628 0.217651 0.749635 0.191151
C78   C     C_R   0.217742 0.282517 0.749702 0.208938
C79   C     C_R   0.753461 0.214344 0.288506 -0.190670
C80   C     C_R   0.780369 0.715677 0.253088 0.194089
C81   C     C_R   0.717036 0.217958 0.749218 0.205205
C82   C     C_R   0.282880 0.782197 0.250994 0.193972
C83   C     C_R   0.781829 0.717109 0.749560 0.210777
C84   C     C_R   0.217690 0.282374 0.250130 0.192289
C85   C     C_R   0.282495 0.782477 0.749807 0.205410
C86   C     C_R   0.716438 0.218470 0.252053 0.192658
C87   C     C_3   0.561477 0.172390 0.160142 0.163456
C88   C     C_3   0.573703 0.215894 0.130815 -0.354560
C89   C     C_3   0.573563 0.212023 0.062927 -0.999392
C90   C     C_R   0.247378 0.784690 0.709661 -0.182632
C91   C     C_3   0.426095 0.839479 0.864211 0.156941
C92   C     C_3   0.410830 0.796045 0.891177 -0.348901
C93   C     C_3   0.449347 0.766658 0.906334 -1.004188
C94   C     C_3   0.167460 0.434187 0.149697 0.164688
C95   C     C_3   0.209135 0.420440 0.116913 -0.350509
C96   C     C_3   0.203223 0.423239 0.049396 -1.004757
C97   C     C_3   0.835915 0.568859 0.858513 0.165912
C98   C     C_3   0.790875 0.582295 0.882143 -0.353713
C99   C     C_3   0.762945 0.542612 0.896889 -1.001901
C100  C     C_3   0.437391 0.828690 0.157684 0.163415
C101  C     C_R   0.216234 0.248136 0.291717 -0.189130
C102  C     C_3   0.424501 0.785720 0.127440 -0.354236
C103  C     C_3   0.424358 0.790455 0.059655 -1.000521
C104  C     C_3   0.574327 0.159547 0.865094 0.156974
C105  C     C_3   0.589316 0.202642 0.893275 -0.348000
C106  C     C_3   0.550594 0.231699 0.908674 -1.003855
C107  C     C_3   0.833005 0.566318 0.148657 0.164434
C108  C     C_3   0.791361 0.580536 0.116163 -0.350061
C109  C     C_3   0.797117 0.578123 0.048590 -1.005370
C110  C     C_3   0.163503 0.430021 0.859463 0.163590
C111  C     C_3   0.208386 0.416107 0.883139 -0.353040
C112  C     C_R   0.381770 0.881808 0.749947 -0.393536
C113  C     C_R   0.786750 0.754727 0.714451 -0.179444
C114  C     C_3   0.236805 0.455515 0.897517 -1.002580
C115  C     C_3   0.437719 0.171464 0.841756 0.163127
C116  C     C_3   0.425279 0.214545 0.872053 -0.353763
C117  C     C_3   0.425355 0.209843 0.939847 -0.999872
C118  C     C_3   0.573974 0.840235 0.135169 0.157494
C119  C     C_3   0.588523 0.796958 0.107071 -0.348119
C120  C     C_3   0.549492 0.768415 0.091392 -1.003953
C121  C     C_3   0.833044 0.433584 0.851395 0.164691
C122  C     C_3   0.791490 0.419582 0.884273 -0.349951
C123  C     C_3   0.797431 0.422376 0.951787 -1.005872
C124  C     C_R   0.246173 0.786031 0.288122 -0.190302
C125  C     C_3   0.164014 0.569461 0.141235 0.164589
C126  C     C_3   0.208965 0.583166 0.117568 -0.352647
C127  C     C_3   0.237204 0.543645 0.103092 -1.003096
C128  C     C_3   0.561719 0.827740 0.840184 0.162742
C129  C     C_3   0.574229 0.784420 0.869812 -0.354499
C130  C     C_3   0.574069 0.788544 0.937671 -0.999582
C131  C     C_3   0.425988 0.160674 0.135757 0.154532
C132  C     C_3   0.410425 0.203976 0.108717 -0.348260
C133  C     C_3   0.448733 0.233663 0.093685 -1.002771
C134  C     C_3   0.167252 0.565762 0.850559 0.165466
C135  C     C_R   0.751924 0.215916 0.708664 -0.183078
C136  C     C_3   0.208979 0.579179 0.883445 -0.350463
C137  C     C_3   0.203008 0.576280 0.950953 -1.006023
C138  C     C_3   0.835736 0.431173 0.141837 0.166166
C139  C     C_3   0.790659 0.417887 0.118225 -0.353508
C140  C     C_3   0.762895 0.457667 0.103359 -1.001901
C141  C     C_3   0.065844 0.667269 0.649456 0.165356
C142  C     C_3   0.079346 0.708975 0.616591 -0.350263
C143  C     C_3   0.076133 0.703141 0.549090 -1.006105
C144  C     C_3   0.930704 0.335972 0.358695 0.164853
C145  C     C_3   0.916775 0.290998 0.382005 -0.353200
C146  C     C_R   0.781131 0.749457 0.295386 -0.188430
C147  C     C_3   0.956164 0.262457 0.396065 -1.003015
C148  C     C_3   0.672238 0.938255 0.659712 0.162899
C149  C     C_3   0.715603 0.926171 0.629861 -0.353957
C150  C     C_3   0.711314 0.926320 0.562021 -0.999403
C151  C     C_3   0.339352 0.073686 0.364130 0.155219
C152  C     C_3   0.295937 0.089041 0.391072 -0.349000
C153  C     C_3   0.266349 0.050595 0.405829 -1.002462
C154  C     C_3   0.934065 0.333021 0.648973 0.165812
C155  C     C_3   0.920809 0.291364 0.615834 -0.350363
C156  C     C_3   0.923935 0.297468 0.548369 -1.006487
C157  C     C_R   0.213331 0.245307 0.713679 -0.180523
C158  C     C_3   0.069283 0.663831 0.358870 0.165150
C159  C     C_3   0.083040 0.708763 0.382489 -0.353155
C160  C     C_3   0.043534 0.737103 0.396723 -1.002862
C161  C     C_3   0.328667 0.062393 0.657953 0.163064
C162  C     C_3   0.285717 0.074999 0.627416 -0.353541
C163  C     C_3   0.290528 0.074535 0.559634 -1.000190
C164  C     C_3   0.659760 0.925009 0.365341 0.154182
C165  C     C_3   0.702691 0.908781 0.392784 -0.348529
C166  C     C_3   0.733119 0.946595 0.407354 -1.002376
C167  C     C_3   0.933492 0.666629 0.351788 0.165725
C168  C     C_R   0.246100 0.213954 0.712177 -0.190954
C169  C     C_3   0.920200 0.708070 0.385404 -0.349987
C170  C     C_3   0.923840 0.701745 0.452776 -1.006405
C171  C     C_3   0.069945 0.336577 0.640481 0.163828
C172  C     C_3   0.083898 0.291721 0.616784 -0.353169
C173  C     C_3   0.044500 0.263245 0.602537 -1.002560
C174  C     C_3   0.328724 0.937699 0.342269 0.164315
C175  C     C_3   0.285685 0.925385 0.372787 -0.353992
C176  C     C_3   0.290420 0.926036 0.440569 -1.001646
C177  C     C_3   0.659606 0.074496 0.634765 0.156464
C178  C     C_3   0.702725 0.089829 0.606925 -0.347494
C179  C     C_R   0.749684 0.782152 0.294066 -0.191552
C180  C     C_3   0.732177 0.051369 0.591762 -1.004763
C181  C     C_3   0.065764 0.332546 0.350224 0.164964
C182  C     C_3   0.079360 0.290830 0.382995 -0.350461
C183  C     C_3   0.076426 0.296696 0.450509 -1.005150
C184  C     C_3   0.930617 0.664206 0.641567 0.164516
C185  C     C_3   0.916665 0.709316 0.618772 -0.353516
C186  C     C_3   0.956051 0.737836 0.604619 -1.002698
C187  C     C_3   0.672418 0.061288 0.339623 0.164233
C188  C     C_3   0.716051 0.072464 0.369337 -0.354313
C189  C     C_3   0.712021 0.071675 0.437198 -1.000917
C190  C     C_R   0.783134 0.248807 0.707250 -0.191596
C191  C     C_3   0.339545 0.926424 0.635893 0.157473
C192  C     C_3   0.296018 0.911368 0.608988 -0.349135
C193  C     C_3   0.266706 0.950019 0.594188 -1.004324
C194  C     C_3   0.624741 0.251067 0.315286 0.105206
C195  C     C_3   0.581364 0.240183 0.345904 -0.316912
C196  C     C_3   0.580985 0.255792 0.410595 -0.998191
C197  C     C_3   0.280757 0.846426 0.872881 0.127646
C198  C     C_3   0.261026 0.830801 0.931792 -0.328626
C199  C     C_3   0.221099 0.857736 0.948926 -0.999693
C200  C     C_3   0.255791 0.376619 0.296627 0.106014
C201  C     C_R   0.213346 0.754755 0.286430 -0.180774
C202  C     C_3   0.247720 0.421670 0.324094 -0.318091
C203  C     C_3   0.269780 0.425835 0.384900 -0.997617
C204  C     C_3   0.838729 0.709892 0.881406 0.126573
C205  C     C_3   0.819840 0.724309 0.941394 -0.324458
C206  C     C_3   0.847035 0.760532 0.969519 -1.002466
C207  C     C_3   0.375171 0.748375 0.311867 0.105190
C208  C     C_3   0.419031 0.758528 0.341641 -0.316283
C209  C     C_3   0.420103 0.742189 0.405985 -0.998695
C210  C     C_3   0.720022 0.153648 0.871382 0.127868
C211  C     C_3   0.740727 0.169603 0.929478 -0.328838
C212  C     C_R   0.754027 0.786120 0.712785 -0.190500
C213  C     C_3   0.781169 0.143019 0.945322 -0.998762
C214  C     C_3   0.743590 0.619946 0.296704 0.106087
C215  C     C_3   0.752199 0.574446 0.322435 -0.318080
C216  C     C_3   0.729692 0.568547 0.382669 -0.996777
C217  C     C_3   0.159458 0.286756 0.878494 0.125210
C218  C     C_3   0.178302 0.269591 0.937122 -0.324909
C219  C     C_3   0.151887 0.231191 0.960966 -0.997962
C220  C     C_3   0.373523 0.252199 0.688549 0.106190
C221  C     C_3   0.415996 0.240856 0.655922 -0.321199
C222  C     C_3   0.415835 0.258485 0.592187 -0.995088
C223  C     C_R   0.118341 0.381671 0.249985 -0.406548
C224  C     C_R   0.247457 0.215233 0.290365 -0.188226
C225  C     C_3   0.719267 0.844405 0.130196 0.128164
C226  C     C_3   0.739655 0.828613 0.071795 -0.328673
C227  C     C_3   0.779951 0.855296 0.055583 -0.999242
C228  C     C_3   0.743759 0.377596 0.704880 0.107426
C229  C     C_3   0.750982 0.423231 0.678851 -0.319348
C230  C     C_3   0.728177 0.428279 0.618696 -0.995141
C231  C     C_3   0.160663 0.711506 0.120109 0.126733
C232  C     C_3   0.179044 0.726402 0.060041 -0.324706
C233  C     C_3   0.152306 0.763674 0.033682 -1.002053
C234  C     C_3   0.626392 0.748552 0.685715 0.106113
C235  C     C_R   0.216242 0.751736 0.708209 -0.191479
C236  C     C_3   0.584220 0.760580 0.652818 -0.320949
C237  C     C_3   0.584661 0.743672 0.588727 -0.995634
C238  C     C_3   0.277430 0.155727 0.129308 0.103559
C239  C     C_3   0.287866 0.114339 0.093761 -0.314601
C240  C     C_3   0.246340 0.090285 0.075800 -0.996240
C241  C     C_3   0.255994 0.623085 0.704252 0.107200
C242  C     C_3   0.248775 0.577616 0.677695 -0.318897
C243  C     C_3   0.271262 0.573082 0.617232 -0.995568
C244  C     C_3   0.837944 0.290104 0.119687 0.126798
C245  C     C_3   0.819055 0.275771 0.059670 -0.324365
C246  C     C_R   0.786224 0.245694 0.286819 -0.180330
C247  C     C_3   0.846078 0.239363 0.031648 -1.002536
C248  C     C_3   0.123435 0.755965 0.795670 0.107232
C249  C     C_3   0.078100 0.748676 0.822674 -0.319550
C250  C     C_3   0.073832 0.771167 0.883163 -0.994904
C251  C     C_3   0.788693 0.340375 0.382105 0.126561
C252  C     C_3   0.773921 0.321823 0.442133 -0.324519
C253  C     C_3   0.736849 0.348612 0.468935 -1.002179
C254  C     C_3   0.751342 0.871857 0.813085 0.105902
C255  C     C_3   0.740408 0.914141 0.846366 -0.320809
C256  C     C_3   0.756445 0.912501 0.910835 -0.997211
C257  C     C_R   0.251913 0.716153 0.791416 -0.191553
C258  C     C_3   0.344213 0.222288 0.370926 0.103446
C259  C     C_3   0.385750 0.211806 0.406151 -0.314698
C260  C     C_3   0.409917 0.253294 0.423958 -0.996166
C261  C     C_3   0.876078 0.243737 0.794155 0.107282
C262  C     C_3   0.921439 0.250693 0.821215 -0.319661
C263  C     C_3   0.925719 0.227580 0.881268 -0.994218
C264  C     C_3   0.211516 0.659919 0.380920 0.126659
C265  C     C_3   0.226565 0.678314 0.440896 -0.324859
C266  C     C_3   0.263901 0.651577 0.467099 -1.001886
C267  C     C_3   0.247702 0.126975 0.810689 0.106179
C268  C     C_R   0.743519 0.288250 0.217034 -0.179515
C269  C     C_3   0.258871 0.084558 0.843534 -0.321444
C270  C     C_3   0.241069 0.084890 0.907183 -0.994758
C271  C     C_3   0.651321 0.776175 0.372253 0.102251
C272  C     C_3   0.609027 0.787406 0.405327 -0.314361
C273  C     C_3   0.583573 0.746365 0.421679 -0.995723
C274  C     C_3   0.873964 0.756169 0.208463 0.107484
C275  C     C_3   0.919488 0.750229 0.181449 -0.319550
C276  C     C_3   0.923456 0.773862 0.121737 -0.994457
C277  C     C_3   0.213223 0.340942 0.621039 0.125322
C278  C     C_3   0.230270 0.322268 0.562243 -0.324815
C279  C     C_R   0.712739 0.745092 0.785825 -0.191572
C280  C     C_3   0.268589 0.348782 0.538346 -0.998140
C281  C     C_3   0.248177 0.873610 0.189732 0.105182
C282  C     C_3   0.258133 0.917075 0.158791 -0.317124
C283  C     C_3   0.241536 0.917248 0.094557 -0.998400
C284  C     C_3   0.652557 0.220189 0.627213 0.127471
C285  C     C_3   0.668003 0.240303 0.568457 -0.328354
C286  C     C_3   0.641398 0.280676 0.552379 -1.000155
C287  C     C_3   0.123597 0.244217 0.203409 0.105951
C288  C     C_3   0.078681 0.252396 0.175551 -0.318377
C289  C     C_3   0.074736 0.230320 0.114730 -0.997413
C290  C     C_R   0.284794 0.252480 0.209921 -0.188057
C291  C     C_3   0.788390 0.659418 0.619481 0.125275
C292  C     C_3   0.772512 0.678070 0.560065 -0.323343
C293  C     C_3   0.735406 0.650907 0.534066 -0.998689
C294  C     C_3   0.751248 0.128937 0.187599 0.105881
C295  C     C_3   0.740755 0.086566 0.154274 -0.319919
C296  C     C_3   0.756895 0.088354 0.089861 -0.998035
C297  C     C_3   0.346290 0.781096 0.626595 0.127552
C298  C     C_3   0.330737 0.761673 0.567469 -0.328360
C299  C     C_3   0.357549 0.721709 0.550164 -1.000378
C300  C     C_R   0.747949 0.283998 0.791161 -0.191742
C301  C     C_R   0.255409 0.712768 0.215288 -0.180432
C302  C     C_R   0.286360 0.254166 0.787096 -0.190846
C303  C     C_R   0.881593 0.618209 0.749973 -0.390053
C304  C     C_R   0.713265 0.745307 0.212528 -0.178700
C305  C     C_R   0.746390 0.714336 0.211095 -0.191938
C306  C     C_R   0.254993 0.286924 0.785664 -0.180495
C307  C     C_R   0.286758 0.745530 0.213824 -0.190073
C308  C     C_R   0.714998 0.252859 0.789716 -0.182484
C309  C     C_R   0.251953 0.283766 0.208565 -0.189205
C310  C     C_R   0.744081 0.712309 0.784450 -0.179396
C311  C     C_R   0.712153 0.255497 0.215635 -0.190646
C312  C     C_R   0.284801 0.747360 0.789942 -0.182335
C313  C     C_R   1.000000 0.499998 0.409863 0.845529
C314  C     C_R   0.381843 0.881719 0.250181 -0.407835
C315  C     C_R   1.000000 0.500001 0.590137 0.845553
C316  C     C_R   0.499998 0.999999 0.409866 0.847601
C317  C     C_R   0.500002 1.000000 0.590133 0.848072
C318  C     C_R   0.499999 0.999999 0.909863 0.847968
C319  C     C_R   0.499998 0.000001 0.090137 0.847636
C320  C     C_R   0.999998 0.500000 0.909867 0.845638
C321  C     C_R   0.000002 0.500000 0.090133 0.845455
C322  C     C_R   0.915796 0.584150 0.250020 0.914903
C323  C     C_R   0.084160 0.415845 0.749997 0.934283
C324  C     C_R   0.584126 0.084144 0.250005 0.925639
C325  C     C_R   0.618102 0.118301 0.749792 -0.393566
C326  C     C_R   0.415865 0.915872 0.749992 0.942056
C327  C     C_R   0.084175 0.415826 0.249993 0.916103
C328  C     C_R   0.915834 0.584164 0.750026 0.932857
C329  C     C_R   0.415863 0.915867 0.250009 0.923124
C330  C     C_R   0.584120 0.084135 0.749974 0.943567
C331  C     C_R   0.084170 0.584163 0.750001 0.916057
C332  C     C_R   0.915806 0.415854 0.250047 0.932782
C333  C     C_R   0.415858 0.084149 0.749985 0.923499
C334  C     C_R   0.584117 0.915874 0.249999 0.942887
C335  C     C_R   0.915832 0.415825 0.750019 0.915505
C336  C     C_R   0.881258 0.617942 0.250569 -0.405824
C337  C     C_R   0.084170 0.584158 0.250013 0.933429
C338  C     C_R   0.584134 0.915854 0.749984 0.925143
C339  C     C_R   0.415867 0.084114 0.250000 0.941400
C340  C     C_1   0.000003 0.500000 0.026725 -0.159750
C341  C     C_1   0.999997 0.500000 0.973275 -0.159754
C342  C     C_1   0.499997 0.000002 0.026726 -0.159739
C343  C     C_1   0.499997 0.999998 0.973274 -0.159618
C344  C     C_1   0.500002 0.999999 0.526725 -0.159876
C345  C     C_1   0.499997 0.999999 0.473274 -0.159940
C346  C     C_1   0.999999 0.500002 0.526726 -0.159429
C347  C     C_R   0.118317 0.381739 0.749937 -0.392123
C348  C     C_1   0.999999 0.499998 0.473274 -0.159388
C349  C     C_R   0.606824 0.162467 0.239754 0.333162
C350  C     C_R   0.369896 0.860531 0.803552 0.337445
C351  C     C_R   0.161661 0.391750 0.233158 0.334318
C352  C     C_R   0.857712 0.627503 0.802572 0.331083
C353  C     C_R   0.392695 0.837783 0.238211 0.333590
C354  C     C_R   0.630264 0.139332 0.803442 0.337247
C355  C     C_R   0.838096 0.607496 0.233377 0.334780
C356  C     C_R   0.141625 0.371848 0.802783 0.334231
C357  C     C_R   0.392599 0.162264 0.761703 0.334926
C358  C     C_R   0.381782 0.118289 0.749897 -0.410132
C359  C     C_R   0.629804 0.859885 0.197302 0.336742
C360  C     C_R   0.838397 0.391811 0.767245 0.335041
C361  C     C_R   0.142060 0.627837 0.197541 0.332919
C362  C     C_R   0.607117 0.837609 0.760608 0.334745
C363  C     C_R   0.369901 0.139392 0.196424 0.332137
C364  C     C_R   0.161608 0.608213 0.767047 0.334570
C365  C     C_R   0.857379 0.372598 0.198025 0.330741
C366  C     C_R   0.108282 0.661562 0.732953 0.334715
C367  C     C_R   0.872025 0.358400 0.303298 0.333517
C368  C     C_R   0.662235 0.892403 0.738769 0.334614
H1    H     H_    0.757320 0.186695 0.318078 0.171840
H2    H     H_    0.752615 0.809031 0.325109 0.172841
H3    H     H_    0.530139 0.761098 0.132104 0.270390
H4    H     H_    0.561016 0.737230 0.071786 0.276606
H5    H     H_    0.528514 0.785145 0.058306 0.270072
H6    H     H_    0.840604 0.467710 0.864166 0.153813
H7    H     H_    0.861282 0.413520 0.866886 0.121875
H8    H     H_    0.763906 0.440781 0.870461 0.243845
H9    H     H_    0.783329 0.385329 0.873025 0.238681
H10   H     H_    0.822519 0.398629 0.966731 0.270510
H11   H     H_    0.766099 0.414523 0.974183 0.280553
H12   H     H_    0.807715 0.455623 0.965265 0.263631
H13   H     H_    0.808336 0.247430 0.673453 0.172320
H14   H     H_    0.149579 0.545688 0.109466 0.160416
H15   H     H_    0.167867 0.552009 0.184655 0.133407
H16   H     H_    0.204930 0.603353 0.076781 0.261421
H17   H     H_    0.226291 0.602699 0.151886 0.228547
H18   H     H_    0.241807 0.523274 0.143617 0.272789
H19   H     H_    0.269646 0.554676 0.087083 0.275561
H20   H     H_    0.221794 0.523840 0.067493 0.272898
H21   H     H_    0.527118 0.834799 0.851143 0.150014
H22   H     H_    0.581131 0.854931 0.860115 0.128347
H23   H     H_    0.550926 0.758638 0.855852 0.235004
H24   H     H_    0.184419 0.759865 0.313234 0.172977
H25   H     H_    0.607491 0.774416 0.856185 0.245500
H26   H     H_    0.600640 0.810721 0.952286 0.266712
H27   H     H_    0.579427 0.756017 0.958139 0.281739
H28   H     H_    0.542524 0.801821 0.953544 0.263990
H29   H     H_    0.449794 0.145575 0.104576 0.160797
H30   H     H_    0.444008 0.167057 0.178186 0.130546
H31   H     H_    0.391220 0.197487 0.067607 0.256037
H32   H     H_    0.389470 0.221523 0.141173 0.230358
H33   H     H_    0.468112 0.240681 0.134461 0.270257
H34   H     H_    0.436411 0.264920 0.075230 0.276080
H35   H     H_    0.757865 0.813707 0.683101 0.172262
H36   H     H_    0.469901 0.218037 0.059824 0.271102
H37   H     H_    0.159501 0.531565 0.862809 0.154041
H38   H     H_    0.139192 0.585875 0.866543 0.122076
H39   H     H_    0.236295 0.557676 0.869505 0.242771
H40   H     H_    0.217552 0.613358 0.872346 0.240126
H41   H     H_    0.178210 0.600293 0.966010 0.270527
H42   H     H_    0.234427 0.583695 0.973387 0.281277
H43   H     H_    0.192303 0.543130 0.964277 0.263171
H44   H     H_    0.850362 0.454855 0.110096 0.160683
H45   H     H_    0.832064 0.448599 0.185303 0.134292
H46   H     H_    0.244164 0.188156 0.321031 0.172796
H47   H     H_    0.794506 0.397479 0.077623 0.261833
H48   H     H_    0.773092 0.398691 0.152686 0.228779
H49   H     H_    0.758403 0.478204 0.143745 0.273134
H50   H     H_    0.730379 0.446940 0.087259 0.275605
H51   H     H_    0.778622 0.477202 0.067715 0.272113
H52   H     H_    0.031636 0.659577 0.637205 0.153925
H53   H     H_    0.085918 0.639191 0.633455 0.121954
H54   H     H_    0.058042 0.736373 0.630780 0.243405
H55   H     H_    0.113624 0.717341 0.627454 0.239449
H56   H     H_    0.099901 0.678189 0.533784 0.270716
H57   H     H_    0.190895 0.753239 0.674638 0.172511
H58   H     H_    0.083699 0.734530 0.526681 0.281228
H59   H     H_    0.042836 0.692720 0.535998 0.263163
H60   H     H_    0.954701 0.350062 0.390441 0.160241
H61   H     H_    0.947952 0.332234 0.315106 0.133577
H62   H     H_    0.896697 0.294950 0.422909 0.262218
H63   H     H_    0.897051 0.273969 0.347608 0.227579
H64   H     H_    0.976474 0.257992 0.355446 0.272874
H65   H     H_    0.944964 0.229988 0.411717 0.275451
H66   H     H_    0.976097 0.277526 0.431809 0.273268
H67   H     H_    0.665010 0.972895 0.649218 0.150394
H68   H     H_    0.815385 0.240405 0.313071 0.172276
H69   H     H_    0.645106 0.918869 0.639566 0.127612
H70   H     H_    0.741205 0.949706 0.643725 0.233891
H71   H     H_    0.725961 0.893012 0.643416 0.247470
H72   H     H_    0.689349 0.899553 0.547488 0.267304
H73   H     H_    0.743855 0.921268 0.541421 0.282619
H74   H     H_    0.697701 0.957731 0.546199 0.262894
H75   H     H_    0.354502 0.049920 0.395313 0.160737
H76   H     H_    0.333095 0.055682 0.321656 0.131289
H77   H     H_    0.302286 0.108172 0.432280 0.256019
H78   H     H_    0.278387 0.110020 0.358649 0.230123
H79   H     H_    0.253466 0.690831 0.825016 0.172682
H80   H     H_    0.259419 0.031334 0.364919 0.270289
H81   H     H_    0.235031 0.062756 0.424318 0.275984
H82   H     H_    0.282010 0.029347 0.439570 0.271404
H83   H     H_    0.968272 0.340893 0.636868 0.154351
H84   H     H_    0.913899 0.361066 0.633076 0.121563
H85   H     H_    0.942302 0.264051 0.629805 0.242900
H86   H     H_    0.886592 0.282739 0.626684 0.240586
H87   H     H_    0.899952 0.322275 0.533252 0.270940
H88   H     H_    0.916608 0.266092 0.525793 0.281316
H89   H     H_    0.957134 0.308205 0.535276 0.263105
H90   H     H_    0.738216 0.317324 0.190614 0.172446
H91   H     H_    0.045375 0.649501 0.390556 0.160453
H92   H     H_    0.051960 0.667687 0.315358 0.133210
H93   H     H_    0.103119 0.704728 0.423372 0.261721
H94   H     H_    0.102716 0.725994 0.348217 0.227898
H95   H     H_    0.023209 0.741634 0.356136 0.272597
H96   H     H_    0.054603 0.769558 0.412589 0.275457
H97   H     H_    0.023646 0.721827 0.432359 0.273301
H98   H     H_    0.335811 0.027805 0.647065 0.150783
H99   H     H_    0.356117 0.081806 0.638678 0.127253
H100  H     H_    0.259663 0.051892 0.641061 0.235728
H101  H     H_    0.685096 0.741394 0.815453 0.171909
H102  H     H_    0.275773 0.108362 0.640642 0.245513
H103  H     H_    0.313218 0.100741 0.545251 0.267305
H104  H     H_    0.258271 0.080276 0.538549 0.282759
H105  H     H_    0.303510 0.042757 0.544168 0.262891
H106  H     H_    0.644908 0.949097 0.396330 0.160790
H107  H     H_    0.666633 0.942867 0.322925 0.129363
H108  H     H_    0.695720 0.890040 0.434155 0.255035
H109  H     H_    0.719883 0.887215 0.360730 0.229137
H110  H     H_    0.740501 0.965615 0.366370 0.269520
H111  H     H_    0.764148 0.933791 0.425929 0.275979
H112  H     H_    0.243942 0.811826 0.679130 0.173508
H113  H     H_    0.311885 0.255712 0.179253 0.172602
H114  H     H_    0.717902 0.968245 0.440978 0.271732
H115  H     H_    0.967785 0.658849 0.363514 0.154548
H116  H     H_    0.913528 0.638420 0.367618 0.121178
H117  H     H_    0.941412 0.735572 0.371335 0.242986
H118  H     H_    0.885852 0.716514 0.375078 0.241376
H119  H     H_    0.900082 0.676782 0.468070 0.271779
H120  H     H_    0.916527 0.733022 0.475620 0.281529
H121  H     H_    0.957180 0.691118 0.465358 0.262691
H122  H     H_    0.046163 0.350950 0.608653 0.160439
H123  H     H_    0.052405 0.332577 0.683812 0.133796
H124  H     H_    0.746625 0.309129 0.825040 0.172455
H125  H     H_    0.103970 0.295877 0.575911 0.261590
H126  H     H_    0.103644 0.274524 0.651003 0.227528
H127  H     H_    0.024294 0.258472 0.643190 0.272411
H128  H     H_    0.055692 0.230899 0.586404 0.275519
H129  H     H_    0.024439 0.278555 0.567115 0.273018
H130  H     H_    0.336027 0.972273 0.353027 0.150856
H131  H     H_    0.356067 0.918187 0.361652 0.127231
H132  H     H_    0.259754 0.948577 0.358963 0.235635
H133  H     H_    0.275613 0.892029 0.359726 0.245680
H134  H     H_    0.312981 0.899771 0.455141 0.267374
H135  H     H_    0.260502 0.683906 0.188371 0.172836
H136  H     H_    0.258114 0.920506 0.461627 0.282479
H137  H     H_    0.303520 0.957808 0.455859 0.263311
H138  H     H_    0.644113 0.050718 0.603925 0.161253
H139  H     H_    0.666360 0.056482 0.677096 0.128639
H140  H     H_    0.695950 0.108875 0.565752 0.254224
H141  H     H_    0.720612 0.110842 0.638938 0.232157
H142  H     H_    0.739476 0.032138 0.632584 0.270006
H143  H     H_    0.763328 0.063495 0.572721 0.276307
H144  H     H_    0.716178 0.030120 0.558349 0.271577
H145  H     H_    0.031537 0.340145 0.362493 0.153547
H146  H     H_    0.313619 0.257548 0.817446 0.172022
H147  H     H_    0.085760 0.360651 0.366296 0.122365
H148  H     H_    0.057977 0.263453 0.368984 0.243183
H149  H     H_    0.113586 0.282411 0.371886 0.239743
H150  H     H_    0.100338 0.321567 0.465608 0.270872
H151  H     H_    0.083972 0.265289 0.472884 0.281659
H152  H     H_    0.043223 0.307260 0.463844 0.262879
H153  H     H_    0.954430 0.650202 0.609478 0.160323
H154  H     H_    0.948087 0.667717 0.685018 0.134058
H155  H     H_    0.896388 0.705592 0.578025 0.262314
H156  H     H_    0.897117 0.726227 0.653478 0.226668
H157  H     H_    0.686454 0.742103 0.181408 0.173184
H158  H     H_    0.976520 0.742108 0.645119 0.272836
H159  H     H_    0.944847 0.770385 0.589283 0.275407
H160  H     H_    0.975836 0.722865 0.568626 0.273425
H161  H     H_    0.664754 0.026653 0.349549 0.150656
H162  H     H_    0.645631 0.080858 0.360335 0.127317
H163  H     H_    0.741261 0.048700 0.354829 0.233406
H164  H     H_    0.726801 0.105609 0.356306 0.248776
H165  H     H_    0.690569 0.098657 0.452430 0.267326
H166  H     H_    0.744721 0.075947 0.457636 0.282323
H167  H     H_    0.697930 0.040333 0.452488 0.263001
H168  H     H_    0.745322 0.689327 0.177032 0.172218
H169  H     H_    0.354812 0.950140 0.604744 0.160825
H170  H     H_    0.333387 0.944419 0.678401 0.129878
H171  H     H_    0.302217 0.892147 0.567811 0.256062
H172  H     H_    0.278305 0.890572 0.641466 0.231272
H173  H     H_    0.259881 0.969334 0.635086 0.270447
H174  H     H_    0.235318 0.938081 0.575674 0.276065
H175  H     H_    0.282543 0.971147 0.560461 0.271627
H176  H     H_    0.629340 0.286984 0.316186 0.158620
H177  H     H_    0.652543 0.236938 0.341022 0.124284
H178  H     H_    0.554191 0.255986 0.321188 0.240127
H179  H     H_    0.259891 0.315647 0.812927 0.172023
H180  H     H_    0.576034 0.204367 0.345442 0.227470
H181  H     H_    0.607101 0.239182 0.436365 0.273373
H182  H     H_    0.549043 0.247935 0.431335 0.272861
H183  H     H_    0.586043 0.291618 0.412683 0.269032
H184  H     H_    0.255165 0.844606 0.837588 0.132056
H185  H     H_    0.291497 0.880933 0.878208 0.151051
H186  H     H_    0.251295 0.796020 0.927511 0.224902
H187  H     H_    0.285858 0.833416 0.967793 0.224247
H188  H     H_    0.229947 0.892718 0.953128 0.273995
H189  H     H_    0.208220 0.846258 0.992521 0.274501
H190  H     H_    0.314094 0.742024 0.183626 0.172353
H191  H     H_    0.195138 0.854078 0.914689 0.266658
H192  H     H_    0.291533 0.371580 0.292391 0.158953
H193  H     H_    0.243741 0.350543 0.327250 0.122747
H194  H     H_    0.260613 0.447252 0.293679 0.239667
H195  H     H_    0.212136 0.426999 0.329858 0.226424
H196  H     H_    0.256665 0.401002 0.416213 0.269735
H197  H     H_    0.263343 0.458717 0.403670 0.271235
H198  H     H_    0.305587 0.421413 0.380467 0.268243
H199  H     H_    0.839653 0.738569 0.850821 0.130589
H200  H     H_    0.872535 0.697600 0.888729 0.155386
H201  H     H_    0.688035 0.256075 0.820594 0.173096
H202  H     H_    0.785939 0.736238 0.934782 0.223810
H203  H     H_    0.818872 0.695957 0.972321 0.225312
H204  H     H_    0.881153 0.749415 0.976287 0.269165
H205  H     H_    0.832984 0.769408 0.013582 0.271058
H206  H     H_    0.846943 0.789880 0.940442 0.266580
H207  H     H_    0.370273 0.712492 0.312094 0.158486
H208  H     H_    0.347822 0.762427 0.338589 0.124084
H209  H     H_    0.445740 0.742768 0.315936 0.239903
H210  H     H_    0.424683 0.794295 0.341799 0.228042
H211  H     H_    0.394510 0.758781 0.432744 0.273165
H212  H     H_    0.253524 0.309140 0.175038 0.173018
H213  H     H_    0.452397 0.749489 0.426063 0.272645
H214  H     H_    0.414695 0.706399 0.407469 0.269071
H215  H     H_    0.745004 0.155423 0.835258 0.131691
H216  H     H_    0.709530 0.119120 0.877306 0.151756
H217  H     H_    0.750116 0.204441 0.924641 0.224815
H218  H     H_    0.716598 0.166924 0.966363 0.223898
H219  H     H_    0.772663 0.107988 0.950057 0.274749
H220  H     H_    0.794793 0.154725 0.988361 0.274883
H221  H     H_    0.806441 0.146758 0.910135 0.266231
H222  H     H_    0.707796 0.624588 0.292454 0.159138
H223  H     H_    0.190835 0.246615 0.325225 0.172880
H224  H     H_    0.738764 0.683260 0.810915 0.172508
H225  H     H_    0.755197 0.645537 0.328390 0.122463
H226  H     H_    0.740010 0.549337 0.290774 0.239746
H227  H     H_    0.787820 0.569599 0.328549 0.226123
H228  H     H_    0.742025 0.592945 0.415181 0.269244
H229  H     H_    0.736612 0.535404 0.400224 0.270791
H230  H     H_    0.693847 0.572362 0.377796 0.268109
H231  H     H_    0.158907 0.259551 0.845457 0.130983
H232  H     H_    0.125502 0.298323 0.886619 0.153358
H233  H     H_    0.212544 0.258930 0.929778 0.225045
H234  H     H_    0.178317 0.296167 0.970893 0.224810
H235  H     H_    0.684534 0.259241 0.185987 0.172220
H236  H     H_    0.117522 0.241111 0.968813 0.268821
H237  H     H_    0.166092 0.219923 0.003903 0.264671
H238  H     H_    0.152645 0.203714 0.928659 0.266418
H239  H     H_    0.369825 0.288224 0.689178 0.159215
H240  H     H_    0.344923 0.239304 0.663303 0.126150
H241  H     H_    0.444087 0.254964 0.680623 0.240850
H242  H     H_    0.420106 0.204896 0.654164 0.223341
H243  H     H_    0.388493 0.243976 0.566410 0.270584
H244  H     H_    0.446979 0.249863 0.569811 0.272520
H245  H     H_    0.412431 0.294537 0.592408 0.267662
H246  H     H_    0.311945 0.743997 0.820480 0.173165
H247  H     H_    0.744359 0.842355 0.166136 0.131935
H248  H     H_    0.708899 0.879006 0.124593 0.151818
H249  H     H_    0.749123 0.793775 0.076362 0.224473
H250  H     H_    0.715303 0.831355 0.035201 0.224373
H251  H     H_    0.771369 0.890334 0.051182 0.274612
H252  H     H_    0.793283 0.843759 0.012279 0.274819
H253  H     H_    0.805469 0.851461 0.090407 0.266317
H254  H     H_    0.708127 0.371957 0.709422 0.159259
H255  H     H_    0.755967 0.352252 0.673226 0.123653
H256  H     H_    0.738133 0.448079 0.710419 0.239384
H257  H     H_    0.526937 0.165132 0.149089 0.150031
H258  H     H_    0.786438 0.429076 0.672564 0.227234
H259  H     H_    0.741216 0.404194 0.586272 0.270217
H260  H     H_    0.734020 0.461572 0.600948 0.270693
H261  H     H_    0.692479 0.423351 0.623727 0.268336
H262  H     H_    0.160566 0.739804 0.151363 0.131553
H263  H     H_    0.126576 0.699862 0.113291 0.153368
H264  H     H_    0.213297 0.737448 0.066067 0.224053
H265  H     H_    0.178921 0.698515 0.028312 0.225136
H266  H     H_    0.117813 0.753514 0.027744 0.269164
H267  H     H_    0.165833 0.772815 0.989411 0.271657
H268  H     H_    0.581101 0.145398 0.140070 0.128124
H269  H     H_    0.153619 0.792602 0.063478 0.266420
H270  H     H_    0.629861 0.712501 0.685538 0.159330
H271  H     H_    0.655260 0.761587 0.661168 0.126039
H272  H     H_    0.555862 0.746409 0.676886 0.241113
H273  H     H_    0.580386 0.796585 0.651759 0.222800
H274  H     H_    0.612282 0.758244 0.563565 0.269946
H275  H     H_    0.553734 0.752799 0.566177 0.273764
H276  H     H_    0.587770 0.707595 0.588231 0.267247
H277  H     H_    0.256004 0.176899 0.101734 0.157748
H278  H     H_    0.258362 0.147413 0.170257 0.121116
H279  H     H_    0.550231 0.241475 0.144967 0.234782
H280  H     H_    0.306436 0.123156 0.052857 0.237293
H281  H     H_    0.308302 0.092194 0.121295 0.233719
H282  H     H_    0.227625 0.080547 0.116136 0.267422
H283  H     H_    0.254994 0.060453 0.050333 0.273842
H284  H     H_    0.225616 0.111384 0.047151 0.269881
H285  H     H_    0.291630 0.628767 0.708611 0.159170
H286  H     H_    0.243622 0.648618 0.673005 0.123728
H287  H     H_    0.261878 0.552585 0.708794 0.239373
H288  H     H_    0.213306 0.571697 0.671702 0.227598
H289  H     H_    0.257923 0.597326 0.585259 0.270321
H290  H     H_    0.606900 0.226051 0.144510 0.245736
H291  H     H_    0.265467 0.539885 0.599131 0.270856
H292  H     H_    0.306965 0.578140 0.621928 0.268353
H293  H     H_    0.838681 0.261437 0.150296 0.130754
H294  H     H_    0.871827 0.302196 0.112407 0.155188
H295  H     H_    0.785073 0.264058 0.066210 0.223739
H296  H     H_    0.818305 0.304113 0.028713 0.225322
H297  H     H_    0.880296 0.250229 0.025090 0.268944
H298  H     H_    0.832111 0.230612 0.987492 0.271076
H299  H     H_    0.845687 0.210003 0.060697 0.266377
H300  H     H_    0.129018 0.791599 0.791175 0.159188
H301  H     H_    0.600278 0.190070 0.048144 0.266863
H302  H     H_    0.149149 0.743689 0.826709 0.124029
H303  H     H_    0.052885 0.761724 0.791808 0.239404
H304  H     H_    0.072270 0.713208 0.828754 0.227159
H305  H     H_    0.098269 0.757889 0.914915 0.270254
H306  H     H_    0.040730 0.765321 0.901596 0.270856
H307  H     H_    0.078804 0.806867 0.878383 0.268328
H308  H     H_    0.760247 0.340806 0.351097 0.131652
H309  H     H_    0.800605 0.374340 0.389101 0.153273
H310  H     H_    0.762692 0.287656 0.435912 0.224284
H311  H     H_    0.801925 0.321686 0.473678 0.224894
H312  H     H_    0.578702 0.244659 0.042684 0.281741
H313  H     H_    0.747198 0.383019 0.475078 0.268630
H314  H     H_    0.727770 0.334939 0.513149 0.271579
H315  H     H_    0.707815 0.347568 0.439302 0.266488
H316  H     H_    0.787310 0.867532 0.813081 0.158557
H317  H     H_    0.737692 0.843220 0.837507 0.126068
H318  H     H_    0.755911 0.942154 0.823109 0.239472
H319  H     H_    0.704549 0.919276 0.846642 0.225716
H320  H     H_    0.740227 0.885427 0.935176 0.273125
H321  H     H_    0.748463 0.943639 0.933637 0.272745
H322  H     H_    0.792333 0.907676 0.912176 0.268486
H323  H     H_    0.542103 0.198605 0.046978 0.263664
H324  H     H_    0.323125 0.243636 0.398734 0.157709
H325  H     H_    0.352369 0.241448 0.330003 0.121338
H326  H     H_    0.377080 0.193228 0.447103 0.237287
H327  H     H_    0.407782 0.191376 0.378436 0.233894
H328  H     H_    0.419536 0.271994 0.383559 0.267468
H329  H     H_    0.439838 0.244611 0.449224 0.273974
H330  H     H_    0.388934 0.274037 0.452743 0.269834
H331  H     H_    0.870369 0.208154 0.789225 0.159307
H332  H     H_    0.850417 0.255894 0.825369 0.124032
H333  H     H_    0.946618 0.237927 0.790069 0.239670
H334  H     H_    0.815868 0.759908 0.688058 0.171744
H335  H     H_    0.449806 0.854702 0.895400 0.160850
H336  H     H_    0.927312 0.286092 0.827940 0.226922
H337  H     H_    0.901254 0.240478 0.913277 0.270139
H338  H     H_    0.958810 0.233274 0.899814 0.270696
H339  H     H_    0.920798 0.191926 0.875790 0.268195
H340  H     H_    0.239781 0.659717 0.349587 0.131732
H341  H     H_    0.199788 0.625878 0.387832 0.153314
H342  H     H_    0.237619 0.712549 0.434773 0.224252
H343  H     H_    0.198747 0.678222 0.472760 0.225044
H344  H     H_    0.253736 0.617102 0.473118 0.268988
H345  H     H_    0.273168 0.665117 0.511307 0.271813
H346  H     H_    0.444157 0.833224 0.821774 0.129130
H347  H     H_    0.292761 0.652862 0.437156 0.266534
H348  H     H_    0.211677 0.130751 0.809877 0.159201
H349  H     H_    0.260599 0.155589 0.835892 0.126239
H350  H     H_    0.244764 0.056454 0.818872 0.240860
H351  H     H_    0.294828 0.080377 0.845481 0.223200
H352  H     H_    0.255570 0.112245 0.932932 0.270498
H353  H     H_    0.249565 0.053782 0.929719 0.272483
H354  H     H_    0.205015 0.088370 0.906769 0.267640
H355  H     H_    0.671342 0.754664 0.401275 0.157667
H356  H     H_    0.643995 0.756937 0.331121 0.121957
H357  H     H_    0.391473 0.802363 0.932211 0.256546
H358  H     H_    0.616903 0.805743 0.446770 0.237681
H359  H     H_    0.588171 0.808300 0.376577 0.233031
H360  H     H_    0.574624 0.728003 0.380713 0.267445
H361  H     H_    0.553195 0.755575 0.445547 0.272636
H362  H     H_    0.603372 0.725097 0.451299 0.271040
H363  H     H_    0.867589 0.791606 0.213843 0.159329
H364  H     H_    0.848583 0.743766 0.177013 0.123776
H365  H     H_    0.944377 0.763210 0.212851 0.239589
H366  H     H_    0.926014 0.714993 0.174251 0.227581
H367  H     H_    0.899308 0.760745 0.089463 0.270231
H368  H     H_    0.390106 0.778331 0.858627 0.231267
H369  H     H_    0.956686 0.768921 0.103236 0.270924
H370  H     H_    0.917849 0.809376 0.127685 0.268150
H371  H     H_    0.240512 0.341443 0.653955 0.131073
H372  H     H_    0.201594 0.374894 0.613122 0.153255
H373  H     H_    0.240993 0.288029 0.569374 0.225041
H374  H     H_    0.203604 0.322306 0.528597 0.224793
H375  H     H_    0.258610 0.383149 0.530735 0.268783
H376  H     H_    0.279760 0.334713 0.495277 0.264643
H377  H     H_    0.296160 0.347962 0.570510 0.266479
H378  H     H_    0.212289 0.868683 0.189994 0.158417
H379  H     H_    0.468818 0.759739 0.865600 0.270366
H380  H     H_    0.262112 0.845958 0.163513 0.124685
H381  H     H_    0.242417 0.944081 0.183941 0.239834
H382  H     H_    0.293899 0.922786 0.158214 0.227720
H383  H     H_    0.258056 0.891320 0.068335 0.273029
H384  H     H_    0.248719 0.949259 0.073582 0.273077
H385  H     H_    0.205737 0.911781 0.093492 0.268832
H386  H     H_    0.654691 0.245486 0.662858 0.132440
H387  H     H_    0.617957 0.209683 0.622070 0.150727
H388  H     H_    0.702927 0.249614 0.572461 0.225236
H389  H     H_    0.664878 0.215849 0.532059 0.223503
H390  H     H_    0.437246 0.735331 0.924836 0.276200
H391  H     H_    0.606266 0.272289 0.548641 0.274421
H392  H     H_    0.652653 0.293767 0.508791 0.274518
H393  H     H_    0.645674 0.306301 0.586947 0.266628
H394  H     H_    0.128509 0.208473 0.207745 0.158970
H395  H     H_    0.149849 0.256154 0.172981 0.122982
H396  H     H_    0.052918 0.239595 0.205759 0.239746
H397  H     H_    0.073476 0.287982 0.169707 0.226063
H398  H     H_    0.099770 0.243329 0.083623 0.269648
H399  H     H_    0.041958 0.236850 0.095659 0.271257
H400  H     H_    0.079021 0.194511 0.119243 0.268215
H401  H     H_    0.470365 0.782475 0.940187 0.271027
H402  H     H_    0.760368 0.658441 0.651210 0.130727
H403  H     H_    0.800653 0.625651 0.611840 0.154076
H404  H     H_    0.760917 0.712047 0.566970 0.224748
H405  H     H_    0.800039 0.678749 0.527745 0.225065
H406  H     H_    0.746291 0.616792 0.526677 0.267633
H407  H     H_    0.725100 0.664956 0.490583 0.264421
H408  H     H_    0.706993 0.650997 0.564855 0.266572
H409  H     H_    0.787173 0.133595 0.187675 0.158488
H410  H     H_    0.737354 0.157462 0.163177 0.125744
H411  H     H_    0.756463 0.058684 0.177572 0.239460
H412  H     H_    0.159956 0.468420 0.137375 0.153583
H413  H     H_    0.704945 0.081123 0.153881 0.226500
H414  H     H_    0.740479 0.115294 0.065493 0.273260
H415  H     H_    0.749226 0.057156 0.067020 0.272933
H416  H     H_    0.792742 0.093484 0.088631 0.268550
H417  H     H_    0.344335 0.755367 0.661683 0.132326
H418  H     H_    0.380844 0.791771 0.621470 0.150906
H419  H     H_    0.295892 0.752077 0.571511 0.225050
H420  H     H_    0.333557 0.786634 0.531664 0.224142
H421  H     H_    0.392606 0.730388 0.546344 0.273820
H422  H     H_    0.346197 0.709130 0.506349 0.274364
H423  H     H_    0.139282 0.414263 0.133688 0.122608
H424  H     H_    0.353597 0.695595 0.584120 0.266810
H425  H     H_    0.236574 0.441790 0.130801 0.243058
H426  H     H_    0.242631 0.813350 0.318324 0.172311
H427  H     H_    0.217498 0.386230 0.128134 0.239703
H428  H     H_    0.178319 0.399320 0.034418 0.270820
H429  H     H_    0.234619 0.415627 0.027011 0.281563
H430  H     H_    0.192670 0.456411 0.035948 0.262933
H431  H     H_    0.850431 0.545066 0.890193 0.160514
H432  H     H_    0.832188 0.551516 0.814998 0.133909
H433  H     H_    0.794780 0.602628 0.922802 0.262211
H434  H     H_    0.773397 0.601612 0.847724 0.228497
H435  H     H_    0.758460 0.522098 0.856481 0.272884
H436  H     H_    0.730436 0.553455 0.912893 0.275653
H437  H     H_    0.755143 0.188943 0.677825 0.173216
H438  H     H_    0.778533 0.523013 0.932573 0.272141
H439  H     H_    0.471925 0.835757 0.146309 0.150903
H440  H     H_    0.417883 0.856148 0.138615 0.127724
H441  H     H_    0.447728 0.759677 0.140747 0.235451
H442  H     H_    0.391248 0.775795 0.141220 0.245011
H443  H     H_    0.397989 0.813092 0.045662 0.266993
H444  H     H_    0.418483 0.758179 0.038724 0.282216
H445  H     H_    0.455990 0.803455 0.043666 0.263970
H446  H     H_    0.550699 0.143713 0.895841 0.161409
H447  H     H_    0.556214 0.166347 0.822853 0.129240
H448  H     H_    0.806269 0.750886 0.329260 0.173151
H449  H     H_    0.608412 0.195829 0.934391 0.254233
H450  H     H_    0.610210 0.220826 0.861413 0.232830
H451  H     H_    0.531404 0.239149 0.867867 0.270056
H452  H     H_    0.562450 0.262790 0.928176 0.276532
H453  H     H_    0.529357 0.215311 0.941772 0.270504
H454  H     H_    0.840613 0.532317 0.135311 0.153764
H455  H     H_    0.861175 0.586564 0.133396 0.121891
H456  H     H_    0.763805 0.559279 0.129893 0.244504
H457  H     H_    0.783245 0.614728 0.127836 0.237360
H458  H     H_    0.822249 0.601866 0.033779 0.270278
H459  H     H_    0.184581 0.240413 0.686454 0.172080
H460  H     H_    0.765758 0.586220 0.026435 0.280385
H461  H     H_    0.807249 0.544915 0.034702 0.263792
H462  H     H_    0.149088 0.453744 0.891334 0.160448
H463  H     H_    0.167483 0.447607 0.816167 0.133770
H464  H     H_    0.204248 0.395971 0.923950 0.261649
H465  H     H_    0.225628 0.396447 0.848869 0.227645
H466  H     H_    0.241576 0.475771 0.856918 0.272396
H467  H     H_    0.269166 0.444351 0.913659 0.275573
H468  H     H_    0.221440 0.475502 0.932972 0.272806
H469  H     H_    0.472275 0.164190 0.852753 0.150958
H470  H     H_    0.242697 0.186710 0.681817 0.172097
H471  H     H_    0.418155 0.144157 0.861121 0.127122
H472  H     H_    0.448664 0.240390 0.858552 0.234985
H473  H     H_    0.392054 0.224728 0.858497 0.246230
H474  H     H_    0.398850 0.187442 0.954061 0.267159
H475  H     H_    0.419828 0.242180 0.960785 0.282744
H476  H     H_    0.456933 0.196575 0.955626 0.263087
H477  H     H_    0.550650 0.856371 0.104283 0.161482
H478  H     H_    0.555626 0.833650 0.177293 0.130166
H479  H     H_    0.607870 0.803534 0.066098 0.254058
H480  H     H_    0.609050 0.778489 0.139068 0.233876
O1    O     O_3   1.000000 0.500000 0.250000 -0.491066
O2    O     O_R   1.000000 0.463680 0.618090 -0.646948
O3    O     O_3   0.811364 0.323404 0.143370 -0.643572
O4    O     O_3   0.125892 0.737591 0.737745 -0.638252
O5    O     O_3   0.822346 0.313820 0.359292 -0.642596
O6    O     O_3   0.737597 0.874265 0.752767 -0.636089
O7    O     O_3   0.320493 0.183669 0.358942 -0.640330
O8    O     O_3   0.873674 0.262502 0.736456 -0.638541
O9    O     O_3   0.177621 0.686414 0.358661 -0.642580
O10   O     O_3   0.262242 0.125367 0.750666 -0.635951
O11   O     O_3   0.675915 0.814378 0.361056 -0.640042
O12   O     O_3   0.871831 0.736964 0.265909 -0.638851
O13   O     O_R   0.536320 1.000000 0.381910 -0.646869
O14   O     O_3   0.178673 0.314513 0.641523 -0.640744
O15   O     O_3   0.262353 0.874440 0.249935 -0.636606
O16   O     O_3   0.679252 0.184048 0.640799 -0.639499
O17   O     O_3   0.125827 0.262330 0.261508 -0.637410
O18   O     O_3   0.822023 0.686268 0.641682 -0.641478
O19   O     O_3   0.737456 0.126362 0.247886 -0.636903
O20   O     O_3   0.319500 0.816949 0.641203 -0.639690
O21   O     O_R   0.463680 1.000000 0.618090 -0.647187
O22   O     O_R   0.500000 0.963680 0.881910 -0.646812
O23   O     O_R   0.500000 0.036320 0.118090 -0.646884
O24   O     O_R   0.963680 0.500000 0.881910 -0.646925
O25   O     O_R   0.036320 0.500000 0.118090 -0.646804
O26   O     O_R   0.500000 0.036320 0.881910 -0.647712
O27   O     O_R   0.500000 0.963680 0.118090 -0.647696
O28   O     O_R   0.036320 0.500000 0.881910 -0.646914
O29   O     O_3   1.000000 0.500000 0.750000 -0.491052
O30   O     O_R   0.963680 0.500000 0.118090 -0.646962
O31   O     O_R   0.948950 0.587490 0.284490 -0.639841
O32   O     O_R   0.051050 0.412510 0.715510 -0.637312
O33   O     O_R   0.587490 0.051050 0.284490 -0.643948
O34   O     O_R   0.412510 0.948950 0.715510 -0.639820
O35   O     O_R   0.051050 0.412510 0.284490 -0.639627
O36   O     O_R   0.948950 0.587490 0.715510 -0.636655
O37   O     O_R   0.412510 0.948950 0.284490 -0.642861
O38   O     O_R   0.587490 0.051050 0.715510 -0.640339
O39   O     O_R   0.051050 0.587490 0.715510 -0.639586
O40   O     O_3   0.500000 0.000000 0.250000 -0.490333
O41   O     O_R   0.948950 0.412510 0.284490 -0.636617
O42   O     O_R   0.412510 0.051050 0.715510 -0.642939
O43   O     O_R   0.587490 0.948950 0.284490 -0.639161
O44   O     O_R   0.948950 0.412510 0.715510 -0.639594
O45   O     O_R   0.051050 0.587490 0.284490 -0.637064
O46   O     O_R   0.587490 0.948950 0.715510 -0.643535
O47   O     O_R   0.412510 0.051050 0.284490 -0.639297
O48   O     O_R   0.448950 0.087490 0.784490 -0.642773
O49   O     O_R   0.551050 0.912510 0.215510 -0.640954
O50   O     O_R   0.087490 0.551050 0.784490 -0.639599
O51   O     O_3   0.500000 1.000000 0.750000 -0.490299
O52   O     O_R   0.912510 0.448950 0.215510 -0.636638
O53   O     O_R   0.551050 0.912510 0.784490 -0.643017
O54   O     O_R   0.448950 0.087490 0.215510 -0.638915
O55   O     O_R   0.912510 0.448950 0.784490 -0.638984
O56   O     O_R   0.087490 0.551050 0.215510 -0.636923
O57   O     O_R   0.551050 0.087490 0.215510 -0.642888
O58   O     O_R   0.448950 0.912510 0.784490 -0.639519
O59   O     O_R   0.912510 0.551050 0.215510 -0.638341
O60   O     O_R   0.087490 0.448950 0.784490 -0.637353
O61   O     O_R   0.448950 0.912510 0.215510 -0.642334
O62   O     O_R   1.000000 0.463680 0.381910 -0.646517
O63   O     O_R   0.551050 0.087490 0.784490 -0.640475
O64   O     O_R   0.087490 0.448950 0.215510 -0.639638
O65   O     O_R   0.912510 0.551050 0.784490 -0.636827
O66   O     O_3   0.564998 0.174484 0.223329 -0.611301
O67   O     O_3   0.391065 0.869289 0.856827 -0.606378
O68   O     O_3   0.173007 0.432777 0.212621 -0.612878
O69   O     O_3   0.865007 0.604775 0.855066 -0.609974
O70   O     O_3   0.434325 0.825762 0.220854 -0.611207
O71   O     O_3   0.609568 0.130100 0.856925 -0.606691
O72   O     O_3   0.827345 0.566655 0.211592 -0.612826
O73   O     O_R   1.000000 0.536320 0.618090 -0.646554
O74   O     O_3   0.134165 0.394332 0.855422 -0.608046
O75   O     O_3   0.434299 0.174360 0.778614 -0.609943
O76   O     O_3   0.609550 0.869234 0.143549 -0.607497
O77   O     O_3   0.827248 0.432700 0.788493 -0.613172
O78   O     O_3   0.134764 0.605242 0.144948 -0.608850
O79   O     O_3   0.565323 0.825470 0.777012 -0.610166
O80   O     O_3   0.391152 0.130669 0.143193 -0.613316
O81   O     O_3   0.172911 0.567183 0.787648 -0.613186
O82   O     O_3   0.864677 0.395136 0.145377 -0.610179
O83   O     O_3   0.067251 0.672891 0.712368 -0.613200
O84   O     O_R   0.463680 1.000000 0.381910 -0.647263
O85   O     O_3   0.895126 0.365507 0.355529 -0.608401
O86   O     O_3   0.674616 0.934213 0.722826 -0.610140
O87   O     O_3   0.369242 0.108636 0.356841 -0.613207
O88   O     O_3   0.932564 0.327165 0.711844 -0.613051
O89   O     O_3   0.105002 0.634480 0.355389 -0.608383
O90   O     O_3   0.325627 0.065888 0.721075 -0.610103
O91   O     O_3   0.629226 0.890660 0.357706 -0.612367
O92   O     O_3   0.931688 0.672801 0.288993 -0.613732
O93   O     O_3   0.105605 0.365960 0.644450 -0.607933
O94   O     O_3   0.325703 0.934093 0.279166 -0.611383
O95   O     O_R   0.536320 1.000000 0.618090 -0.647302
O96   O     O_3   0.629804 0.109469 0.642667 -0.606337
O97   O     O_3   0.067209 0.327016 0.287299 -0.612770
O98   O     O_3   0.894994 0.634740 0.644857 -0.608552
O99   O     O_3   0.674665 0.065886 0.276577 -0.611112
O100  O     O_3   0.369261 0.891293 0.643081 -0.606289
O101  O     O_3   0.624009 0.237938 0.254643 -0.636414
O102  O     O_3   0.316627 0.819596 0.858465 -0.639706
O103  O     O_3   0.237721 0.374200 0.238516 -0.637486
O104  O     O_3   0.812001 0.676744 0.857671 -0.643646
O105  O     O_3   0.375241 0.762220 0.251509 -0.636489
O106  O     O_R   1.000000 0.536320 0.381910 -0.646871
O107  O     O_3   0.683748 0.180224 0.857996 -0.639407
O108  O     O_3   0.761789 0.623814 0.238816 -0.637781
O109  O     O_3   0.185799 0.321383 0.858052 -0.640790
O110  O     O_3   0.374976 0.237812 0.748645 -0.636135
O111  O     O_3   0.682982 0.817891 0.143713 -0.639453
O112  O     O_3   0.762276 0.374481 0.762657 -0.638343
O113  O     O_3   0.187119 0.677610 0.142443 -0.642815
O114  O     O_3   0.624602 0.762176 0.746120 -0.636095
O115  O     O_3   0.316079 0.179411 0.141266 -0.640663
O116  O     O_3   0.237676 0.625768 0.762197 -0.638434
Zn1   Zn    Zn3+2 0.948160 0.500000 0.200440 0.962502
Zn2   Zn    Zn3+2 0.551840 1.000000 0.299560 0.963783
Zn3   Zn    Zn3+2 1.000000 0.551840 0.700440 0.962530
Zn4   Zn    Zn3+2 1.000000 0.448160 0.299560 0.962619
Zn5   Zn    Zn3+2 0.551840 1.000000 0.700440 0.964042
Zn6   Zn    Zn3+2 0.448160 1.000000 0.299560 0.963150
Zn7   Zn    Zn3+2 0.000000 0.448160 0.700440 0.962199
Zn8   Zn    Zn3+2 1.000000 0.551840 0.299560 0.961878
Zn9   Zn    Zn3+2 0.051840 0.500000 0.799560 0.962255
Zn10  Zn    Zn3+2 0.500000 0.051840 0.200440 0.963981
Zn11  Zn    Zn3+2 0.500000 0.948160 0.799560 0.964606
Zn12  Zn    Zn3+2 0.051840 0.500000 0.200440 0.962290
Zn13  Zn    Zn3+2 0.948160 0.500000 0.799560 0.962335
Zn14  Zn    Zn3+2 0.500000 0.948160 0.200440 0.963104
Zn15  Zn    Zn3+2 0.500000 0.051840 0.799560 0.963699
Zn16  Zn    Zn3+2 0.448160 1.000000 0.700440 0.963972

loop_
_geom_bond_atom_site_label_1
_geom_bond_atom_site_label_2
_ccdc_geom_bond_type
C82   C307  A    
C355  O72   S    
C174  O94   S    
C357  C358  A    
C84   C101  A    
C109  H458  S    
C160  H96   S    
C186  H158  S    
C73   C212  A    
C291  C292  S    
C147  H66   S    
C41   C61   A    
C360  O77   S    
C80   C305  A    
O1    Zn4   S    
C363  O80   S    
C167  H116  S    
C329  O61   A    
C326  O34   A    
C77   C168  A    
C272  H358  S    
C251  H308  S    
C314  C353  A    
C192  H171  S    
C189  H165  S    
C282  C283  S    
C228  O112  S    
C279  C310  A    
O39   Zn3   S    
C298  H419  S    
C225  H247  S    
C284  C285  S    
C139  H48   S    
C209  H214  S    
O57   Zn10  S    
C79   H1    S    
C125  H14   S    
C193  H173  S    
C297  C298  S    
C142  H54   S    
C356  O74   S    
C271  C272  S    
C72   C224  A    
C22   O107  S    
C273  H361  S    
C108  C109  S    
C185  H155  S    
C123  H10   S    
C258  O7    S    
C274  C275  S    
C162  H102  S    
C7    C42   A    
C164  H106  S    
C219  H236  S    
O53   Zn11  S    
C83   C113  A    
C110  C111  S    
C338  O46   A    
C218  H233  S    
C94   H423  S    
C127  H20   S    
C115  H471  S    
C276  H367  S    
C220  H239  S    
C66   C72   S    
C275  C276  S    
C143  H58   S    
C107  H455  S    
C272  C273  S    
C95   H425  S    
C150  H74   S    
C50   C52   A    
C353  O70   S    
C11   C325  A    
C158  O89   S    
C21   O105  S    
C1    C15   A    
C25   C60   A    
C322  O31   A    
C183  H150  S    
C182  H148  S    
C197  O102  S    
C33   C69   A    
C144  O85   S    
C292  H405  S    
C57   C331  S    
C80   C146  A    
C29   C64   A    
C312  H246  S    
O60   Zn9   S    
C31   O115  S    
C204  C205  S    
C333  C358  S    
C30   O114  S    
C230  H261  S    
C234  C236  S    
C2    C359  A    
C99   H435  S    
C97   H431  S    
C157  C168  A    
C82   C124  A    
C228  C229  S    
C241  O116  S    
C199  H191  S    
O1    Zn8   S    
C354  O71   S    
O46   Zn5   S    
O40   Zn14  S    
C131  O80   S    
C202  C203  S    
C299  H424  S    
O44   Zn7   S    
C191  C192  S    
C79   C246  A    
C221  H241  S    
C111  H464  S    
C57   C364  A    
C153  H81   S    
C241  H286  S    
O95   Zn5   S    
C216  H228  S    
C228  H254  S    
C149  H71   S    
C5    O89   S    
C342  C343  T    
C144  C145  S    
O63   Zn15  S    
C133  H34   S    
C267  H349  S    
C305  H168  S    
C260  H328  S    
C265  H343  S    
C128  O79   S    
C109  H461  S    
C249  H304  S    
C196  H182  S    
C248  O4    S    
C215  C216  S    
C187  H162  S    
C12   C223  A    
C22   C58   A    
C229  C230  S    
C203  H196  S    
C270  H352  S    
C307  H190  S    
C253  H313  S    
C266  H347  S    
C175  C176  S    
C202  H194  S    
O29   Zn7   S    
C139  C140  S    
C368  O86   S    
C9    C347  A    
C323  C347  S    
C180  H144  S    
O106  Zn8   S    
C214  O108  S    
O29   Zn13  S    
C151  H75   S    
C334  O43   A    
C171  C172  S    
C154  C155  S    
C333  O48   A    
C286  H392  S    
C222  H243  S    
O73   Zn3   S    
C257  H79   S    
C281  H378  S    
C26   C357  A    
C158  C159  S    
O42   Zn16  S    
O29   Zn3   S    
C114  H467  S    
C154  H83   S    
C135  C190  A    
C55   C83   S    
C76   C304  A    
C335  O55   A    
C169  H118  S    
C337  O56   A    
C105  C106  S    
C309  H212  S    
C293  H406  S    
C104  H446  S    
C204  O104  S    
C118  O76   S    
C257  C312  A    
C177  O96   S    
C351  O68   S    
C281  H380  S    
C193  H174  S    
C242  H288  S    
C288  H397  S    
C102  H442  S    
C18   C350  A    
C85   C90   A    
C70   C268  A    
C74   C201  A    
C40   O9    S    
C245  H296  S    
C100  H439  S    
C302  C306  A    
C3    C46   A    
C293  H408  S    
C124  C201  A    
C217  H231  S    
C264  H340  S    
C172  H125  S    
C338  O53   A    
C52   C86   S    
C41   O10   S    
C198  H186  S    
C197  H184  S    
C121  O77   S    
C115  H469  S    
C267  O10   S    
C156  H88   S    
C254  H317  S    
C284  H386  S    
C237  H276  S    
C271  H356  S    
C352  O69   S    
C283  H385  S    
O52   Zn1   S    
C316  O84   A    
C138  H45   S    
C90   C235  A    
C12   O97   S    
C310  H224  S    
C69   C70   S    
C277  H371  S    
C321  O30   A    
C91   H346  S    
C216  H229  S    
C271  O11   S    
C117  H474  S    
C28   C63   A    
C291  H403  S    
C103  H445  S    
C88   C89   S    
C233  H267  S    
C290  C309  A    
C200  C202  S    
C98   C99   S    
C155  C156  S    
C88   H290  S    
C125  O78   S    
C53   C85   S    
C230  H259  S    
C188  H164  S    
C100  O70   S    
C140  H49   S    
O61   Zn14  S    
C199  H189  S    
C252  C253  S    
C68   C367  A    
C130  H26   S    
C260  H329  S    
C330  O63   A    
C48   O17   S    
O45   Zn8   S    
C90   H112  S    
C152  H77   S    
C253  H314  S    
C209  H211  S    
C332  O52   A    
O43   Zn2   S    
C167  H115  S    
C57   C366  A    
C299  H421  S    
C16   C51   A    
C100  H440  S    
C76   C179  A    
O51   Zn11  S    
C128  C129  S    
C301  H135  S    
C194  H176  S    
C97   C98   S    
C315  O73   A    
C213  H221  S    
C138  O82   S    
C133  H36   S    
C316  C345  S    
C244  C245  S    
C13   C360  A    
C23   C59   A    
C214  C215  S    
C46   C363  A    
C60   C78   S    
C249  C250  S    
C131  H30   S    
C174  H131  S    
C107  O72   S    
C187  H161  S    
C98   H434  S    
O1    Zn1   S    
C261  C262  S    
C253  H315  S    
C33   C365  A    
C277  O14   S    
C301  C307  A    
O34   Zn16  S    
C362  O79   S    
C251  H309  S    
C108  H457  S    
C51   O20   S    
C136  H39   S    
C184  H154  S    
C184  C185  S    
C74   C301  A    
C241  C242  S    
C6    O90   S    
C296  H415  S    
C138  H44   S    
C72   C290  A    
C174  C175  S    
C92   C93   S    
C256  H321  S    
C213  H220  S    
C182  C183  S    
C285  H389  S    
C35   C338  S    
C322  O59   A    
C83   C310  A    
C61   C77   S    
C264  C265  S    
C238  H277  S    
C37   C65   A    
C166  H111  S    
C283  H384  S    
C96   H430  S    
O33   Zn2   S    
C123  H11   S    
C71   C235  A    
C347  C356  A    
C219  H237  S    
C291  O18   S    
C208  H210  S    
C189  H166  S    
C42   C62   A    
C270  H353  S    
C201  H24   S    
C43   C59   A    
C294  C295  S    
C287  O17   S    
C294  H410  S    
C127  H18   S    
C143  H59   S    
C35   C362  A    
C128  H21   S    
C282  H381  S    
C151  H76   S    
C206  H205  S    
C211  H218  S    
C183  H151  S    
O23   Zn10  S    
C321  O25   A    
C84   C309  A    
C118  H478  S    
C285  H388  S    
C137  H42   S    
C237  H274  S    
C85   C312  A    
C292  H404  S    
C86   C311  A    
C330  O38   A    
C259  H326  S    
C119  H479  S    
C308  H201  S    
C327  O35   A    
C46   C339  S    
C243  H291  S    
C110  H463  S    
C92   H368  S    
C45   C56   A    
C247  H297  S    
C42   O11   S    
C262  H336  S    
C91   C92   S    
C8    C336  A    
C97   O69   S    
C199  H188  S    
O51   Zn16  S    
C24   C361  A    
C207  O105  S    
C261  H332  S    
C217  C218  S    
C49   C55   A    
C203  H198  S    
C295  H413  S    
C51   C53   A    
C315  C346  S    
C181  O97   S    
C132  H32   S    
C248  H302  S    
C89   H312  S    
C210  H216  S    
C221  C222  S    
C208  H209  S    
C317  C344  S    
C117  H476  S    
C189  H167  S    
C234  H270  S    
C59   C80   S    
C346  C348  T    
C233  H269  S    
C32   O116  S    
C280  H375  S    
C130  H28   S    
C10   C45   A    
C187  O99   S    
C26   O110  S    
C173  H128  S    
C165  H109  S    
C92   H357  S    
C197  H185  S    
C140  H51   S    
O29   Zn9   S    
C161  H99   S    
C240  H283  S    
C11   O96   S    
C167  O92   S    
O84   Zn6   S    
C32   C67   A    
C181  H147  S    
C19   C54   A    
C106  H452  S    
O55   Zn13  S    
C304  H157  S    
C281  O15   S    
C244  O3    S    
C296  H414  S    
O1    Zn12  S    
C209  H213  S    
C23   O108  S    
C205  H203  S    
C256  H320  S    
C225  H248  S    
C181  H145  S    
C134  H38   S    
C320  C341  S    
C176  H137  S    
C1    C324  S    
C101  C224  A    
C129  C130  S    
C279  H101  S    
C238  O115  S    
C288  H396  S    
C37   C368  A    
C271  H355  S    
C165  H108  S    
C337  O45   A    
C142  H55   S    
O62   Zn4   S    
C186  H159  S    
C294  H409  S    
C88   H279  S    
C339  O47   A    
C136  C137  S    
C151  O87   S    
C144  H61   S    
C247  H299  S    
C366  O83   S    
O59   Zn1   S    
C106  H453  S    
C326  O58   A    
C77   C302  A    
C264  O9    S    
C8    O92   S    
C71   C257  A    
C252  H311  S    
C335  O44   A    
C192  H172  S    
C154  H84   S    
C258  C259  S    
C139  H47   S    
O50   Zn9   S    
C30   C362  A    
C229  H256  S    
O51   Zn15  S    
C227  H252  S    
C226  H249  S    
C63   C75   S    
C274  H363  S    
C28   O112  S    
C244  H294  S    
C258  H324  S    
C75   C300  A    
C247  H298  S    
C278  C280  S    
C102  C103  S    
O47   Zn6   S    
C218  H234  S    
C30   C65   A    
C93   H390  S    
C179  H2    S    
C220  H240  S    
C152  C153  S    
C239  H281  S    
C226  C227  S    
C349  O66   S    
C19   O103  S    
C147  H64   S    
C327  O64   A    
C101  H223  S    
C126  H17   S    
C306  H179  S    
C182  H149  S    
C276  H369  S    
O37   Zn6   S    
C287  H394  S    
O64   Zn12  S    
C177  H139  S    
C190  H13   S    
C87   C88   S    
C110  O74   S    
C313  C348  S    
C31   C66   A    
C163  H104  S    
C28   C360  A    
C25   C356  A    
C11   C47   A    
C239  C240  S    
C250  H306  S    
C8    C43   A    
C12   C48   A    
C99   H438  S    
C170  H119  S    
C36   C367  A    
C54   C84   S    
C161  C162  S    
C220  C221  S    
C251  C252  S    
O27   Zn14  S    
C181  C182  S    
C93   H379  S    
C263  H338  S    
C113  H334  S    
C250  H305  S    
C155  H86   S    
C168  H470  S    
C332  O41   A    
C294  O19   S    
C164  C165  S    
C26   C61   A    
C241  H285  S    
C141  O83   S    
C148  H67   S    
C207  H208  S    
C300  H124  S    
C149  H70   S    
C215  H226  S    
C29   O113  S    
C173  H129  S    
C133  H33   S    
C158  H92   S    
C45   O15   S    
C121  H7    S    
O40   Zn6   S    
C265  H342  S    
C262  H333  S    
C159  H94   S    
C249  H303  S    
C19   C351  A    
C27   C359  A    
C282  H382  S    
C284  H387  S    
C104  C105  S    
C339  O54   A    
C232  H265  S    
C254  O6    S    
C18   C53   A    
C261  O8    S    
C2    C334  S    
C202  H195  S    
C2    C7    A    
C191  H170  S    
C208  C209  S    
C120  H3    S    
C317  O95   A    
O40   Zn2   S    
C151  C152  S    
C14   C303  A    
C367  O85   S    
C89   H323  S    
C268  H90   S    
C81   C308  A    
C43   O12   S    
C286  H393  S    
C222  H244  S    
C38   O7    S    
C68   C365  A    
C325  C354  A    
C194  C195  S    
C25   O109  S    
C269  C270  S    
C236  H272  S    
C160  H95   S    
C195  H178  S    
C62   C76   S    
C114  H468  S    
O24   Zn13  S    
C111  H465  S    
C278  H373  S    
C195  H180  S    
C214  H222  S    
C145  C147  S    
C194  O101  S    
C169  H117  S    
C81   C135  A    
O65   Zn13  S    
C200  H192  S    
O21   Zn16  S    
C239  H280  S    
C127  H19   S    
C143  H56   S    
C137  H41   S    
C207  C208  S    
C290  H113  S    
C178  H140  S    
C1    C349  A    
C120  H5    S    
C212  H35   S    
C295  C296  S    
C125  H15   S    
O36   Zn3   S    
O28   Zn9   S    
C164  O91   S    
C195  C196  S    
C232  H264  S    
C259  H327  S    
C73   C279  A    
C297  H418  S    
C16   O100  S    
C185  H156  S    
C171  H122  S    
C172  H126  S    
C10   O94   S    
C317  O21   A    
C198  H187  S    
C13   C335  S    
C285  C286  S    
C87   O66   S    
C17   O101  S    
C33   O3    S    
C243  H289  S    
C159  C160  S    
C47   O16   S    
C75   C190  A    
C150  H73   S    
C269  H351  S    
C242  C243  S    
C297  O20   S    
C331  O39   A    
C325  C330  S    
C162  H100  S    
C178  H141  S    
C96   H428  S    
C145  H62   S    
C9    O93   S    
C323  O60   A    
C121  C122  S    
C262  C263  S    
C216  H230  S    
C156  H87   S    
C70   C246  A    
C104  O71   S    
C223  C327  S    
C244  H293  S    
C10   C314  A    
C233  H266  S    
C124  H426  S    
C245  C247  S    
C336  C355  A    
C32   C364  A    
C125  C126  S    
C58   C81   S    
C230  H260  S    
C161  O90   S    
C140  H50   S    
C131  C132  S    
C97   H432  S    
C240  H282  S    
C39   C63   A    
C248  C249  S    
C16   C112  A    
O25   Zn12  S    
C162  C163  S    
C364  O81   S    
C260  H330  S    
C350  O67   S    
C217  O109  S    
C238  C239  S    
C280  H377  S    
C311  H235  S    
C49   O18   S    
C297  H417  S    
C221  H242  S    
C153  H82   S    
C145  H63   S    
C148  H69   S    
C321  C340  S    
C242  H287  S    
C246  H68   S    
C34   C67   A    
C21   C56   A    
C178  C180  S    
C119  C120  S    
C318  O26   A    
C103  H444  S    
C273  H360  S    
C322  C336  S    
O35   Zn4   S    
C328  O36   A    
C106  H451  S    
C131  H29   S    
C20   O104  S    
C274  O12   S    
C196  H181  S    
C116  H473  S    
C135  H437  S    
C298  H420  S    
C187  C188  S    
C234  O114  S    
C184  O98   S    
C149  C150  S    
C192  C193  S    
C158  H91   S    
C267  C269  S    
C185  C186  S    
C87   H268  S    
C200  H193  S    
C44   C60   A    
C126  C127  S    
C252  H310  S    
C156  H89   S    
C232  C233  S    
C136  H40   S    
C180  H143  S    
C146  C179  A    
C111  C114  S    
C67   C71   S    
C166  H114  S    
C296  H416  S    
C94   C95   S    
O51   Zn5   S    
C231  H263  S    
C268  C311  A    
C256  H322  S    
C138  C139  S    
C273  H362  S    
C227  H253  S    
C37   O6    S    
C17   C349  A    
C200  O103  S    
C122  H8    S    
C177  C178  S    
C5    C40   A    
C261  H331  S    
C142  C143  S    
C176  H134  S    
C114  H466  S    
C112  C350  A    
C153  H80   S    
C79   C86   A    
C23   C355  A    
C328  O65   A    
C105  H449  S    
C146  H448  S    
C302  H146  S    
C272  H359  S    
C24   C337  S    
C293  H407  S    
C237  H275  S    
C165  C166  S    
C184  H153  S    
C128  H22   S    
C21   C353  A    
C169  C170  S    
C147  H65   S    
C95   C96   S    
C278  H374  S    
C214  H225  S    
C17   C52   A    
C193  H175  S    
C154  O88   S    
C286  H391  S    
C102  H441  S    
C264  H341  S    
C287  H395  S    
C319  O23   A    
C205  C206  S    
C236  C237  S    
C122  H9    S    
C48   C54   A    
C229  H258  S    
C275  H366  S    
C254  C255  S    
C213  H219  S    
C34   O4    S    
C313  O62   A    
C217  H232  S    
C175  H133  S    
C163  H105  S    
C164  H107  S    
C292  C293  S    
C334  O49   A    
C220  O110  S    
C15   O99   S    
C365  O82   S    
C251  O5    S    
O48   Zn15  S    
O2    Zn7   S    
C34   C366  A    
O54   Zn10  S    
C14   C49   A    
C254  H316  S    
C357  O75   S    
C107  H454  S    
C263  H339  S    
C203  H197  S    
C194  H177  S    
C255  C256  S    
C65   C73   S    
C116  C117  S    
C329  O37   A    
C15   C50   A    
C4    C13   A    
C277  H372  S    
C64   C74   S    
C118  C119  S    
C126  H16   S    
C245  H295  S    
C115  O75   S    
C117  H475  S    
O31   Zn8   S    
C31   C363  A    
C234  H271  S    
C14   O98   S    
C289  H400  S    
C191  O100  S    
C361  O78   S    
C3    C38   A    
C132  C133  S    
C280  H376  S    
C6    C41   A    
C266  H344  S    
C303  C352  A    
C173  H127  S    
C198  C199  S    
C333  O42   A    
C188  H163  S    
C36   O5    S    
C68   C332  S    
O22   Zn11  S    
C240  H284  S    
C141  H53   S    
C134  O81   S    
C324  O33   A    
C243  H292  S    
C161  H98   S    
C204  H200  S    
C316  O13   A    
C300  C308  A    
C211  H217  S    
C205  H202  S    
C167  C169  S    
C324  O57   A    
C197  C198  S    
C299  H422  S    
C215  H227  S    
C255  H318  S    
C20   C55   A    
C177  H138  S    
C91   O67   S    
C320  O28   A    
C315  O2    A    
C267  H348  S    
C6    C358  A    
C266  H345  S    
C231  H262  S    
C87   H257  S    
C148  O86   S    
C174  H130  S    
C283  H383  S    
C196  H183  S    
C186  H160  S    
C248  H300  S    
C98   H433  S    
C129  H25   S    
C148  C149  S    
C141  H52   S    
C235  H57   S    
O56   Zn12  S    
C36   C69   A    
C269  H350  S    
C134  C136  S    
C281  C282  S    
C78   C306  A    
C91   H335  S    
C35   C368  A    
C157  H459  S    
C188  C189  S    
C103  H443  S    
O41   Zn4   S    
C99   H436  S    
C22   C354  A    
C7    O91   S    
C227  H251  S    
C323  O32   A    
C78   C157  A    
C226  H250  S    
C4    C39   A    
C115  C116  S    
C210  O107  S    
C107  C108  S    
C274  H364  S    
O26   Zn15  S    
C166  H110  S    
C100  C102  S    
C96   H429  S    
C313  O106  A    
C3    O87   S    
C123  H12   S    
C176  H136  S    
C171  H123  S    
C344  C345  T    
C219  H238  S    
C160  H97   S    
C171  O93   S    
C191  H169  S    
C50   O19   S    
C56   C82   S    
C93   H401  S    
C112  C326  S    
C304  C305  A    
C211  C213  S    
C44   O14   S    
C104  H447  S    
C95   H427  S    
C319  C342  S    
C255  H319  S    
C295  H411  S    
O38   Zn5   S    
C206  H204  S    
C18   O102  S    
C319  O27   A    
C259  C260  S    
C183  H152  S    
C225  O111  S    
C118  H477  S    
C276  H370  S    
C172  C173  S    
C137  H43   S    
C228  H255  S    
C265  C266  S    
C320  O24   A    
C144  H60   S    
C289  H398  S    
C9    C44   A    
C180  H142  S    
C119  H480  S    
C231  O113  S    
C225  C226  S    
C129  H23   S    
C163  H103  S    
C275  H365  S    
C110  H462  S    
C250  H307  S    
C152  H78   S    
C170  H120  S    
C289  H399  S    
C224  H46   S    
O58   Zn11  S    
C331  O50   A    
C89   H301  S    
C27   C62   A    
C263  H337  S    
C204  H199  S    
C94   H412  S    
C318  C343  S    
C105  H450  S    
C206  H206  S    
C155  H85   S    
O30   Zn1   S    
C284  O16   S    
O40   Zn10  S    
C288  C289  S    
C113  C212  A    
C132  H31   S    
O13   Zn2   S    
C20   C352  A    
C210  H215  S    
C109  H460  S    
C207  H207  S    
C141  C142  S    
C47   C58   A    
C291  H402  S    
C29   C361  A    
C218  C219  S    
C5    C24   A    
C27   O111  S    
C39   O8    S    
C108  H456  S    
C130  H27   S    
C121  H6    S    
C159  H93   S    
C94   O68   S    
C175  H132  S    
C116  H472  S    
C170  H121  S    
C303  C328  S    
C238  H278  S    
C270  H354  S    
C287  C288  S    
C359  O76   S    
C38   C66   A    
C314  C329  S    
C210  C211  S    
C298  C299  S    
C120  H4    S    
C231  C232  S    
C122  C123  S    
C340  C341  T    
C40   C64   A    
C150  H72   S    
O32   Zn7   S    
O49   Zn14  S    
C277  C278  S    
C134  H37   S    
C236  H273  S    
C223  C351  A    
C4    O88   S    
C222  H245  S    
C318  O22   A    
C258  H325  S    
