data_mof_unit_64257.cif
_audit_creation_date              2012-12-10T20:14:14-0500
_audit_creation_method            fapswitch 2.2
_symmetry_space_group_name_H-M    P1
_symmetry_Int_Tables_number       1
_space_group_crystal_system       triclinic
_cell_length_a                    19.372646
_cell_length_b                    18.600766
_cell_length_c                    10.733604
_cell_angle_alpha                 89.976304
_cell_angle_beta                  90.797799
_cell_angle_gamma                 89.625366
_cell_volume                      3867.35374575

loop_
_atom_site_label
_atom_site_type_symbol
_atom_type_description
_atom_site_fract_x
_atom_site_fract_y
_atom_site_fract_z
_atom_type_partial_charge
C1    C     C_R   0.365096 0.500421 0.506497 0.913673
C2    C     C_R   0.444443 0.273893 0.453129 0.388668
C3    C     C_R   0.467085 0.726422 0.406630 0.429399
C4    C     C_R   0.556346 0.273911 0.545699 0.396524
C5    C     C_R   0.521927 0.801780 0.603404 0.336597
C6    C     C_R   0.439888 0.198802 0.479063 0.339523
C7    C     C_R   0.480925 0.800766 0.391281 0.351011
C8    C     C_R   0.562200 0.198970 0.518657 0.331021
C9    C     C_R   0.501473 0.841451 0.496597 -0.118665
C10   C     C_R   0.501406 0.158950 0.498149 -0.128469
C11   C     C_R   0.450595 0.962329 0.426297 0.375144
C12   C     C_R   0.634823 0.500135 0.492615 0.914876
C13   C     C_R   0.546906 0.036963 0.573846 0.396136
C14   C     C_R   0.553669 0.962295 0.558352 0.378305
C15   C     C_R   0.457738 0.038400 0.412616 0.394843
C16   C     C_R   0.502189 0.077261 0.494659 -0.152528
C17   C     C_R   0.501745 0.923095 0.494317 -0.156132
C18   C     C_R   0.499123 0.499714 0.257161 0.920662
C19   C     C_R   0.500632 0.500043 0.742923 0.918995
C20   C     C_3   0.460363 0.553718 0.039057 0.014998
C21   C     C_3   0.539785 0.443638 0.960301 0.036731
C22   C     C_3   0.526555 0.561969 0.963005 -0.016317
C23   C     C_R   0.955748 0.507030 0.389797 0.382986
C24   C     C_3   0.473887 0.435301 0.038189 0.016266
C25   C     C_3   0.436040 0.491457 0.956040 0.555760
C26   C     C_3   0.564258 0.505765 0.044552 0.548227
C27   C     C_3   0.501436 0.499979 0.878060 -0.311063
C28   C     C_3   0.498596 0.498231 0.122224 -0.308820
C29   C     C_R   0.750977 0.436640 0.476306 0.020794
C30   C     C_R   0.251238 0.569178 0.503844 0.016059
C31   C     C_R   0.249254 0.437209 0.517983 0.025152
C32   C     C_R   0.748060 0.568572 0.489971 0.023075
C33   C     C_R   0.821472 0.437470 0.508709 0.469315
C34   C     C_R   0.044360 0.508577 0.599474 0.381581
C35   C     C_R   0.180904 0.568897 0.469973 0.436435
C36   C     C_R   0.179249 0.438360 0.482040 0.466430
C37   C     C_R   0.818761 0.568014 0.521156 0.433977
C38   C     C_R   0.854808 0.502964 0.525192 0.009464
C39   C     C_R   0.145469 0.503995 0.464641 0.009693
C40   C     C_R   0.711709 0.501643 0.485052 -0.221265
C41   C     C_R   0.288087 0.502175 0.511059 -0.221527
C42   C     C_3   0.319503 0.470886 0.989987 -0.368695
C43   C     C_3   0.681574 0.526480 0.017374 -0.351209
C44   C     C_3   0.415530 0.616082 0.082967 -0.277197
C45   C     C_R   0.027460 0.501833 0.372755 0.370066
C46   C     C_3   0.372701 0.650783 0.978517 -0.904109
C47   C     C_3   0.583040 0.383256 0.903515 -0.298726
C48   C     C_3   0.624555 0.341636 0.001162 -0.917904
C49   C     C_3   0.557740 0.632728 0.921297 -0.265505
C50   C     C_3   0.578087 0.682275 0.029284 -0.916390
C51   C     C_3   0.443953 0.365219 0.088272 -0.294660
C52   C     C_3   0.425983 0.311530 0.985336 -0.944941
C53   C     C_3   0.723826 0.369732 0.411056 -0.357243
C54   C     C_3   0.702735 0.385039 0.276990 -0.828627
C55   C     C_3   0.281316 0.640065 0.550642 -0.336664
C56   C     C_R   0.972849 0.502125 0.616619 0.369964
C57   C     C_3   0.299684 0.636205 0.689175 -0.832353
C58   C     C_3   0.275871 0.369864 0.584394 -0.366429
C59   C     C_3   0.297256 0.385213 0.718167 -0.815361
C60   C     C_3   0.716931 0.639639 0.443772 -0.350747
C61   C     C_3   0.696474 0.635709 0.306156 -0.819074
C62   C     C_3   0.849276 0.337511 0.620588 -0.364164
C63   C     C_3   0.148594 0.657312 0.335660 -0.365650
C64   C     C_3   0.154596 0.338397 0.368926 -0.367306
C65   C     C_3   0.850684 0.657135 0.653508 -0.369598
C66   C     C_3   0.911349 0.578069 0.234903 -0.303138
C67   C     C_R   0.070812 0.505639 0.477957 -0.090510
C68   C     C_3   0.086339 0.581270 0.753278 -0.298969
C69   C     C_3   0.032112 0.438439 0.187971 -0.261817
C70   C     C_3   0.969962 0.439597 0.802457 -0.265737
C71   C     C_3   0.637209 0.727181 0.704268 -0.308787
C72   C     C_3   0.353085 0.270667 0.306226 -0.296925
C73   C     C_3   0.363601 0.728733 0.296034 -0.339292
C74   C     C_3   0.650150 0.271144 0.687698 -0.302008
C75   C     C_3   0.469147 0.830301 0.783476 -0.320831
C76   C     C_3   0.354603 0.169342 0.611061 -0.335660
C77   C     C_3   0.538724 0.844193 0.224864 -0.381412
C78   C     C_R   0.929405 0.504464 0.511387 -0.090087
C79   C     C_3   0.646398 0.168984 0.383614 -0.354055
C80   C     C_3   0.365449 0.942215 0.272189 -0.102666
C81   C     C_3   0.549982 0.074373 0.774468 -0.285037
C82   C     C_3   0.661134 0.918505 0.525240 -0.287166
C83   C     C_3   0.462061 0.092014 0.222224 -0.405058
C84   C     C_R   0.533992 0.726489 0.591597 0.391549
H1    H     H_    0.332174 0.489936 0.085734 0.149361
H2    H     H_    0.380820 0.597002 0.157115 0.211792
H3    H     H_    0.503816 0.109695 0.762677 0.123061
H4    H     H_    0.644326 0.880189 0.451510 0.123089
H5    H     H_    0.707437 0.894984 0.572011 0.180515
H6    H     H_    0.676649 0.970623 0.483161 0.169082
H7    H     H_    0.494826 0.045782 0.192494 0.139472
H8    H     H_    0.494898 0.138970 0.245204 0.168060
H9    H     H_    0.428867 0.107455 0.141407 0.185175
H10   H     H_    0.450520 0.657089 0.121376 0.277298
H11   H     H_    0.671304 0.372559 0.026588 0.282093
H12   H     H_    0.593588 0.331293 0.085224 0.269392
H13   H     H_    0.641317 0.289058 0.962992 0.230311
H14   H     H_    0.548467 0.345984 0.852322 0.241735
H15   H     H_    0.618745 0.406702 0.834786 0.201974
H16   H     H_    0.537603 0.723906 0.042503 0.261583
H17   H     H_    0.585513 0.652149 0.117635 0.289988
H18   H     H_    0.626860 0.710393 0.007753 0.236807
H19   H     H_    0.310531 0.412104 0.991643 0.192832
H20   H     H_    0.603985 0.619469 0.866300 0.222760
H21   H     H_    0.519486 0.661074 0.861532 0.256841
H22   H     H_    0.407269 0.339300 0.899834 0.286907
H23   H     H_    0.471849 0.278325 0.962512 0.255515
H24   H     H_    0.385084 0.274728 0.017738 0.236075
H25   H     H_    0.480863 0.339459 0.154648 0.228989
H26   H     H_    0.397178 0.379402 0.140752 0.208074
H27   H     H_    0.692574 0.333023 0.230091 0.225311
H28   H     H_    0.654952 0.418047 0.273095 0.301533
H29   H     H_    0.744864 0.412935 0.227601 0.280631
H30   H     H_    0.270086 0.496902 0.961426 0.192606
H31   H     H_    0.763091 0.326173 0.407316 0.238384
H32   H     H_    0.680723 0.345984 0.459695 0.269887
H33   H     H_    0.253111 0.622996 0.743667 0.258167
H34   H     H_    0.340078 0.594951 0.708116 0.293352
H35   H     H_    0.319427 0.689196 0.720567 0.227139
H36   H     H_    0.326101 0.656996 0.496689 0.238575
H37   H     H_    0.244430 0.685523 0.539541 0.232911
H38   H     H_    0.347127 0.413787 0.719461 0.303710
H39   H     H_    0.256966 0.417838 0.764835 0.287152
H40   H     H_    0.304075 0.333862 0.769753 0.217723
H41   H     H_    0.692289 0.584941 0.018212 0.188760
H42   H     H_    0.236191 0.327285 0.588970 0.239619
H43   H     H_    0.318747 0.345044 0.535839 0.269941
H44   H     H_    0.741759 0.620082 0.249621 0.260000
H45   H     H_    0.654723 0.596190 0.290856 0.302387
H46   H     H_    0.677568 0.689211 0.274268 0.217342
H47   H     H_    0.672913 0.657116 0.499785 0.239276
H48   H     H_    0.753763 0.684790 0.452502 0.229635
H49   H     H_    0.798531 0.310300 0.617656 0.157385
H50   H     H_    0.852056 0.373049 0.703843 0.171528
H51   H     H_    0.889728 0.295451 0.631837 0.198675
H52   H     H_    0.669701 0.508896 0.920466 0.145212
H53   H     H_    0.127158 0.617789 0.268039 0.211948
H54   H     H_    0.202784 0.670149 0.311970 0.144757
H55   H     H_    0.117798 0.707538 0.326195 0.196421
H56   H     H_    0.205585 0.311134 0.375181 0.159171
H57   H     H_    0.152956 0.373865 0.285394 0.170249
H58   H     H_    0.114865 0.296348 0.355432 0.197706
H59   H     H_    0.871570 0.617556 0.722145 0.211915
H60   H     H_    0.796588 0.671449 0.676503 0.144254
H61   H     H_    0.881949 0.706663 0.662170 0.196549
H62   H     H_    0.961351 0.588642 0.189103 0.191934
H63   H     H_    0.729789 0.498674 0.047407 0.191664
H64   H     H_    0.900357 0.620896 0.304198 0.203623
H65   H     H_    0.870306 0.580973 0.161938 0.170756
H66   H     H_    0.036006 0.590953 0.798907 0.191416
H67   H     H_    0.095913 0.624017 0.683312 0.204202
H68   H     H_    0.127234 0.585408 0.826234 0.171192
H69   H     H_    0.986149 0.453437 0.130690 0.208197
H70   H     H_    0.020424 0.391369 0.248328 0.171529
H71   H     H_    0.072624 0.421225 0.122130 0.149743
H72   H     H_    0.015572 0.455552 0.859332 0.209300
H73   H     H_    0.982830 0.392403 0.742871 0.170263
H74   H     H_    0.403887 0.658622 0.894025 0.263175
H75   H     H_    0.929966 0.422120 0.868718 0.151344
H76   H     H_    0.628582 0.760692 0.788098 0.237103
H77   H     H_    0.656708 0.760677 0.626338 0.152979
H78   H     H_    0.678491 0.688030 0.729114 0.140860
H79   H     H_    0.311811 0.243744 0.358830 0.214641
H80   H     H_    0.384073 0.231862 0.251007 0.192130
H81   H     H_    0.325314 0.306556 0.239958 0.144284
H82   H     H_    0.371682 0.762057 0.211915 0.219812
H83   H     H_    0.344880 0.762735 0.374308 0.165152
H84   H     H_    0.321884 0.690436 0.272504 0.154927
H85   H     H_    0.327340 0.617326 0.955009 0.287340
H86   H     H_    0.691345 0.245544 0.632233 0.215276
H87   H     H_    0.621317 0.231299 0.743850 0.185564
H88   H     H_    0.677914 0.307276 0.752757 0.162592
H89   H     H_    0.454747 0.773320 0.800180 0.152110
H90   H     H_    0.426384 0.859295 0.734101 0.162346
H91   H     H_    0.476628 0.856155 0.875752 0.182512
H92   H     H_    0.301952 0.146570 0.616158 0.195774
H93   H     H_    0.351748 0.225898 0.644552 0.149158
H94   H     H_    0.388862 0.136843 0.673448 0.153208
H95   H     H_    0.573174 0.796115 0.232546 0.160865
H96   H     H_    0.353292 0.704042 0.009251 0.230855
H97   H     H_    0.563463 0.891327 0.270039 0.157825
H98   H     H_    0.532301 0.856977 0.124407 0.190876
H99   H     H_    0.645236 0.224861 0.346335 0.149836
H100  H     H_    0.613629 0.133282 0.324933 0.153554
H101  H     H_    0.700332 0.149050 0.377718 0.194636
H102  H     H_    0.407654 0.950954 0.204725 0.167971
H103  H     H_    0.329046 0.988496 0.274417 0.186699
H104  H     H_    0.335455 0.895535 0.237681 0.133977
H105  H     H_    0.583380 0.098727 0.847624 0.172165
H106  H     H_    0.534616 0.020156 0.807890 0.175544
N1    N     N_R   0.500000 0.689440 0.500000 -0.209125
N2    N     N_R   0.500000 0.310560 0.500000 -0.201295
O1    O     O_R   0.398180 0.560840 0.499970 -0.601816
O2    O     O_3   0.629569 0.510868 0.103878 -0.630396
O3    O     O_3   0.860958 0.375088 0.508648 -0.597005
O4    O     O_3   0.143714 0.632490 0.459278 -0.621584
O5    O     O_3   0.140343 0.376110 0.479810 -0.598074
O6    O     O_3   0.855555 0.631433 0.530414 -0.621930
O7    O     O_3   0.910284 0.508948 0.289014 -0.598326
O8    O     O_3   0.089711 0.511952 0.700259 -0.599514
O9    O     O_3   0.056729 0.498537 0.255397 -0.628069
O10   O     O_3   0.943710 0.498978 0.734068 -0.628561
O11   O     O_3   0.576789 0.688417 0.672434 -0.594153
O12   O     O_R   0.601820 0.439160 0.500030 -0.573662
O13   O     O_3   0.394837 0.312977 0.386004 -0.596008
O14   O     O_3   0.424169 0.688917 0.326310 -0.589433
O15   O     O_3   0.605841 0.313223 0.611276 -0.596950
O16   O     O_3   0.531202 0.835252 0.717219 -0.537608
O17   O     O_3   0.376595 0.165446 0.486675 -0.542231
O18   O     O_3   0.472938 0.831605 0.274801 -0.578214
O19   O     O_3   0.626190 0.166374 0.509119 -0.543480
O20   O     O_3   0.390086 0.926140 0.393434 -0.585460
O21   O     O_3   0.587682 0.069970 0.663355 -0.506994
O22   O     O_3   0.609421 0.928172 0.614847 -0.507918
O23   O     O_R   0.601820 0.560840 0.500030 -0.599266
O24   O     O_3   0.419055 0.074483 0.322883 -0.545525
O25   O     O_R   0.398180 0.439160 0.499970 -0.573286
O26   O     O_R   0.499980 0.560800 0.313940 -0.583450
O27   O     O_R   0.500020 0.439200 0.686060 -0.612067
O28   O     O_R   0.500020 0.560800 0.686060 -0.589641
O29   O     O_R   0.499980 0.439200 0.313940 -0.617025
O30   O     O_3   0.369782 0.487442 0.900492 -0.628902
Zn1   Zn    Zn3+2 0.500000 0.581210 0.500000 1.005435
Zn2   Zn    Zn3+2 0.500000 0.418790 0.500000 1.004623

loop_
_geom_bond_atom_site_label_1
_geom_bond_atom_site_label_2
_ccdc_geom_bond_type
C76   O17   S    
C70   O10   S    
C73   O14   S    
C55   H37   S    
C34   C56   A    
C23   C45   A    
C48   H11   S    
C29   C33   A    
C75   H89   S    
C72   H81   S    
C4    N2    A    
C1    O1    A    
C72   H79   S    
C4    C8    A    
C42   H19   S    
C60   H48   S    
C49   H20   S    
C83   O24   S    
C56   C78   A    
O26   Zn1   S    
C6    O17   S    
C53   C54   S    
C79   O19   S    
C48   H13   S    
C77   H95   S    
C82   H5    S    
C29   C53   S    
C30   C35   A    
C43   O2    S    
C70   H72   S    
C62   H49   S    
C71   H78   S    
C83   H9    S    
C2    N2    A    
C71   O11   S    
O29   Zn2   S    
C76   H94   S    
C66   H64   S    
C80   O20   S    
C65   H59   S    
C72   H80   S    
C56   O10   S    
C20   C25   S    
C15   C16   A    
C46   H74   S    
C54   H29   S    
C23   O7    S    
C47   H15   S    
C79   H100  S    
C14   O22   S    
C84   N1    A    
C70   H75   S    
C13   O21   S    
C18   O29   A    
C22   C26   S    
O27   Zn2   S    
C82   O22   S    
C11   C15   A    
C42   H30   S    
C81   O21   S    
C52   H23   S    
C68   H68   S    
C45   C67   A    
C77   H97   S    
C3    C7    A    
C30   C41   A    
C8    O19   S    
C19   C27   S    
C74   H88   S    
C66   O7    S    
C53   H32   S    
C61   H45   S    
C57   H35   S    
O25   Zn2   S    
C12   O12   A    
C21   C27   S    
C52   H22   S    
C58   H43   S    
C51   H25   S    
C45   O9    S    
C64   O5    S    
O12   Zn2   S    
C75   H90   S    
C63   H53   S    
C14   C17   A    
C43   H41   S    
C2    C6    A    
C63   H55   S    
C62   O3    S    
C73   H84   S    
C44   H2    S    
C60   H47   S    
C20   C44   S    
C21   C26   S    
C44   C46   S    
C55   H36   S    
C59   H38   S    
C59   H39   S    
C69   O9    S    
C74   H86   S    
C75   H91   S    
C51   C52   S    
C46   H96   S    
C76   H92   S    
C18   C28   S    
C36   O5    S    
N2    Zn2   S    
C66   H65   S    
C76   H93   S    
C74   O15   S    
C2    O13   S    
C5    C84   A    
C73   H82   S    
C49   H21   S    
C38   C78   S    
C73   H83   S    
C58   C59   S    
C37   O6    S    
C69   H69   S    
C60   C61   S    
C62   H51   S    
C12   C40   S    
C35   C39   A    
C5    C9    A    
C37   C38   A    
C83   H8    S    
C3    N1    A    
C11   O20   S    
C75   O16   S    
C47   C48   S    
C33   O3    S    
C77   H98   S    
C80   H104  S    
C54   H28   S    
C25   O30   S    
C42   H1    S    
C69   H71   S    
C32   C37   A    
C24   C25   S    
C47   H14   S    
C81   H105  S    
C74   H87   S    
C81   H3    S    
C35   O4    S    
C22   C49   S    
C77   O18   S    
C84   O11   S    
C9    C17   S    
C20   C22   S    
C58   H42   S    
C51   H26   S    
C22   C27   S    
C55   C57   S    
C79   H101  S    
C63   H54   S    
C13   C16   A    
C19   O27   A    
C32   C60   S    
C65   H61   S    
C18   O26   A    
N1    Zn1   S    
C7    O18   S    
C83   H7    S    
C31   C58   S    
C4    O15   S    
C57   H33   S    
C64   H56   S    
C1    C41   S    
C59   H40   S    
C7    C9    A    
C11   C17   A    
C48   H12   S    
C43   H63   S    
C31   C36   A    
C3    O14   S    
C39   C67   S    
C36   C39   A    
C42   O30   S    
C24   C28   S    
C15   O24   S    
O23   Zn1   S    
C34   C67   A    
C6    C10   A    
C50   H18   S    
C72   O13   S    
C44   H10   S    
C25   C27   S    
C20   C28   S    
C30   C55   S    
C26   C28   S    
C33   C38   A    
C82   H6    S    
C46   H85   S    
C61   H46   S    
C71   H76   S    
C68   O8    S    
C70   H73   S    
C62   H50   S    
C68   H67   S    
C10   C16   S    
C5    O16   S    
C50   H16   S    
C64   H58   S    
C24   C51   S    
C82   H4    S    
C29   C40   A    
C80   H103  S    
C79   H99   S    
C54   H27   S    
C61   H44   S    
C32   C40   A    
C23   C78   A    
C43   H52   S    
C81   H106  S    
C66   H62   S    
C68   H66   S    
C31   C41   A    
C71   H77   S    
C65   O6    S    
C34   O8    S    
O1    Zn1   S    
C52   H24   S    
C50   H17   S    
C8    C10   A    
C49   C50   S    
C64   H57   S    
C21   C24   S    
C80   H102  S    
C63   O4    S    
C65   H60   S    
C69   H70   S    
C1    O25   A    
C19   O28   A    
C12   O23   A    
C13   C14   A    
O28   Zn1   S    
C53   H31   S    
C57   H34   S    
C21   C47   S    
C26   O2    S    
