data_mof_unit_43699.cif
_audit_creation_date              2012-12-10T20:53:08-0500
_audit_creation_method            fapswitch 2.2
_symmetry_space_group_name_H-M    P1
_symmetry_Int_Tables_number       1
_space_group_crystal_system       triclinic
_cell_length_a                    18.358448
_cell_length_b                    18.358634
_cell_length_c                    18.358725
_cell_angle_alpha                 59.856063
_cell_angle_beta                  59.860525
_cell_angle_gamma                 59.853908
_cell_volume                      4361.04503961

loop_
_atom_site_label
_atom_site_type_symbol
_atom_type_description
_atom_site_fract_x
_atom_site_fract_y
_atom_site_fract_z
_atom_type_partial_charge
C1    C     C_R   0.389931 0.110157 0.110175 0.478603
C2    C     C_R   0.384046 0.806714 0.774921 -0.069084
C3    C     C_R   0.909830 0.551090 0.035570 0.011133
C4    C     C_R   0.448775 0.964480 0.090105 0.011133
C5    C     C_R   0.551227 0.035529 0.909891 0.011127
C6    C     C_R   0.946036 0.945870 0.553788 0.009310
C7    C     C_R   0.053971 0.054103 0.446216 0.009269
C8    C     C_R   0.945875 0.553767 0.946040 0.009487
C9    C     C_R   0.054120 0.446234 0.053965 0.009484
C10   C     C_R   0.553777 0.946041 0.945876 0.009473
C11   C     C_R   0.446219 0.053968 0.054117 0.009479
C12   C     C_2   0.236398 0.520918 0.346109 0.238985
C13   C     C_R   0.193180 0.224753 0.616233 -0.069056
C14   C     C_2   0.763679 0.478942 0.653866 0.239152
C15   C     C_2   0.520933 0.346135 0.236390 0.239039
C16   C     C_2   0.479103 0.653812 0.763584 0.239049
C17   C     C_2   0.346086 0.236145 0.521503 0.239191
C18   C     C_2   0.653967 0.763724 0.478817 0.239172
C19   C     C_R   0.806844 0.775154 0.383940 -0.069011
C20   C     C_R   0.183870 0.574265 0.284440 0.047362
C21   C     C_R   0.816183 0.425664 0.715552 0.047285
C22   C     C_R   0.574271 0.284449 0.183890 0.047293
C23   C     C_R   0.425750 0.715516 0.816065 0.047277
C24   C     C_R   0.284398 0.183671 0.574559 0.047285
C25   C     C_R   0.715623 0.816244 0.425605 0.047336
C26   C     C_R   0.092625 0.583766 0.315411 0.018688
C27   C     C_R   0.610068 0.889849 0.889819 0.478597
C28   C     C_R   0.907407 0.416224 0.684595 0.018671
C29   C     C_R   0.583759 0.315406 0.092652 0.018703
C30   C     C_R   0.416252 0.684585 0.907302 0.018720
C31   C     C_R   0.315369 0.092506 0.583788 0.018699
C32   C     C_R   0.684624 0.907459 0.416221 0.018705
C33   C     C_R   0.045158 0.634069 0.255110 -0.088290
C34   C     C_R   0.954857 0.365973 0.744909 -0.088243
C35   C     C_R   0.634049 0.255090 0.045211 -0.088276
C36   C     C_R   0.365945 0.744919 0.954725 -0.088272
C37   C     C_R   0.255055 0.045081 0.633819 -0.088211
C38   C     C_R   0.110161 0.110167 0.389933 0.478505
C39   C     C_R   0.744912 0.954920 0.366055 -0.088304
C40   C     C_R   0.086987 0.674999 0.165073 -0.107695
C41   C     C_R   0.913027 0.325043 0.834945 -0.107677
C42   C     C_R   0.674988 0.165053 0.087057 -0.107691
C43   C     C_R   0.324997 0.834948 0.912863 -0.107699
C44   C     C_R   0.165002 0.086885 0.674741 -0.107603
C45   C     C_R   0.834966 0.913111 0.325141 -0.107650
C46   C     C_R   0.176662 0.665949 0.134208 -0.127695
C47   C     C_R   0.823370 0.334039 0.865797 -0.127696
C48   C     C_R   0.665956 0.134201 0.176723 -0.127714
C49   C     C_R   0.889842 0.889823 0.610072 0.478514
C50   C     C_R   0.334034 0.865774 0.823198 -0.127710
C51   C     C_R   0.134135 0.176483 0.665960 -0.127685
C52   C     C_R   0.865861 0.823464 0.334073 -0.127675
C53   C     C_R   0.990395 0.590462 0.465139 -0.161874
C54   C     C_R   0.009634 0.409530 0.534868 -0.161848
C55   C     C_R   0.590463 0.465131 0.990398 -0.161980
C56   C     C_R   0.409540 0.534868 0.009583 -0.161984
C57   C     C_R   0.465121 0.990344 0.590472 -0.162008
C58   C     C_R   0.534876 0.009640 0.409530 -0.161999
C59   C     C_R   0.944715 0.552533 0.555008 0.018989
C60   C     C_R   0.110174 0.389934 0.110159 0.478551
C61   C     C_R   0.055305 0.447462 0.444996 0.018961
C62   C     C_R   0.552541 0.555001 0.944693 0.018943
C63   C     C_R   0.447461 0.444998 0.055293 0.018961
C64   C     C_R   0.555006 0.944705 0.552537 0.018978
C65   C     C_R   0.444992 0.055281 0.447465 0.019002
C66   C     C_R   0.954279 0.460891 0.590338 -0.055662
C67   C     C_R   0.045750 0.539101 0.409667 -0.055653
C68   C     C_R   0.460907 0.590333 0.954220 -0.055659
C69   C     C_R   0.539098 0.409665 0.045756 -0.055655
C70   C     C_R   0.590351 0.954296 0.460892 -0.055707
C71   C     C_R   0.889824 0.610066 0.889844 0.478556
C72   C     C_R   0.409645 0.045680 0.539113 -0.055730
C73   C     C_R   0.110756 0.390397 0.389786 0.509121
C74   C     C_R   0.889248 0.609602 0.610215 0.509186
C75   C     C_R   0.390396 0.389789 0.110753 0.509158
C76   C     C_R   0.609605 0.610211 0.889243 0.509135
C77   C     C_R   0.389786 0.110751 0.390394 0.509161
C78   C     C_R   0.610214 0.889246 0.609606 0.509162
C79   C     C_R   0.927789 0.179843 0.398036 -0.091185
C80   C     C_R   0.072278 0.820064 0.601795 -0.091136
C81   C     C_R   0.180484 0.399768 0.927178 -0.091187
C82   C     C_R   0.224980 0.615950 0.193235 -0.068980
C83   C     C_R   0.819499 0.600190 0.072842 -0.091182
C84   C     C_R   0.399526 0.927249 0.180375 -0.091142
C85   C     C_R   0.600493 0.072755 0.819630 -0.091164
C86   C     C_R   0.839565 0.214358 0.401103 -0.115003
C87   C     C_R   0.160513 0.785543 0.598701 -0.114982
C88   C     C_R   0.215287 0.403643 0.838650 -0.114822
C89   C     C_R   0.784680 0.596269 0.161388 -0.114845
C90   C     C_R   0.403298 0.838756 0.215129 -0.114792
C91   C     C_R   0.596665 0.161267 0.784855 -0.114783
C92   C     C_R   0.786093 0.160706 0.454386 -0.121238
C93   C     C_R   0.775071 0.383981 0.806756 -0.069004
C94   C     C_R   0.213936 0.839241 0.545549 -0.121290
C95   C     C_R   0.161578 0.456793 0.785218 -0.121052
C96   C     C_R   0.838390 0.543122 0.214818 -0.121069
C97   C     C_R   0.456457 0.785328 0.161425 -0.121133
C98   C     C_R   0.543429 0.214723 0.838531 -0.121095
C99   C     C_R   0.820555 0.072277 0.504897 -0.099761
C100  C     C_R   0.179435 0.927709 0.495141 -0.099836
C101  C     C_R   0.072819 0.506418 0.820003 -0.099913
C102  C     C_R   0.927167 0.493545 0.180015 -0.099906
C103  C     C_R   0.506196 0.820082 0.072719 -0.099781
C104  C     C_R   0.615962 0.193243 0.225018 -0.069073
C105  C     C_R   0.493704 0.179965 0.927242 -0.099752
C106  C     C_R   0.910356 0.035279 0.502258 0.010107
C107  C     C_R   0.089645 0.964696 0.497754 0.010099
C108  C     C_R   0.035582 0.503046 0.910061 0.010060
C109  C     C_R   0.964411 0.496946 0.089948 0.010059
C110  C     C_R   0.502929 0.910105 0.035527 0.010158
C111  C     C_R   0.497040 0.089916 0.964456 0.010167
C112  C     C_R   0.964755 0.089830 0.448050 0.011123
C113  C     C_R   0.035268 0.910119 0.551907 0.011141
C114  C     C_R   0.090162 0.448899 0.964440 0.011135
H1    H     H_    0.282620 0.812095 0.542888 0.129016
H2    H     H_    0.339702 0.562031 0.015613 0.140907
H3    H     H_    0.437948 0.984271 0.660317 0.140994
H4    H     H_    0.562049 0.015715 0.339684 0.140964
H5    H     H_    0.966152 0.224768 0.356583 0.120485
H6    H     H_    0.033948 0.775111 0.643140 0.120329
H7    H     H_    0.225393 0.358404 0.965568 0.119702
H8    H     H_    0.774592 0.641554 0.034449 0.119691
H9    H     H_    0.358150 0.965629 0.225287 0.119877
H10   H     H_    0.641918 0.034355 0.774737 0.119907
H11   H     H_    0.812448 0.283227 0.362358 0.124202
H12   H     H_    0.717406 0.187852 0.457053 0.129043
H13   H     H_    0.187671 0.716642 0.637327 0.124212
H14   H     H_    0.284397 0.365607 0.811283 0.124233
H15   H     H_    0.715556 0.634261 0.188771 0.124192
H16   H     H_    0.365178 0.811410 0.284202 0.124229
H17   H     H_    0.634793 0.188608 0.715784 0.124249
H18   H     H_    0.775766 0.033775 0.546292 0.119408
H19   H     H_    0.224188 0.966249 0.453829 0.119458
H20   H     H_    0.034220 0.547703 0.775299 0.118858
H21   H     H_    0.965772 0.452269 0.224716 0.118856
H22   H     H_    0.547490 0.775373 0.034132 0.118919
H23   H     H_    0.811035 0.539835 0.283728 0.129094
H24   H     H_    0.452355 0.224694 0.965814 0.118832
H25   H     H_    0.208779 0.697541 0.064230 0.109664
H26   H     H_    0.791251 0.302447 0.935775 0.109668
H27   H     H_    0.697559 0.064223 0.208853 0.109727
H28   H     H_    0.302420 0.935744 0.791055 0.109758
H29   H     H_    0.064145 0.208585 0.697550 0.109704
H30   H     H_    0.935852 0.791360 0.302493 0.109689
H31   H     H_    0.294676 0.609616 0.167434 0.140967
H32   H     H_    0.705389 0.390274 0.832546 0.140967
H33   H     H_    0.609641 0.167455 0.294706 0.140905
H34   H     H_    0.188918 0.460039 0.716322 0.129167
H35   H     H_    0.390369 0.832484 0.705233 0.140905
H36   H     H_    0.167380 0.294392 0.610095 0.140996
H37   H     H_    0.832664 0.705480 0.390192 0.140970
H38   H     H_    0.975786 0.640663 0.277832 0.105436
H39   H     H_    0.024215 0.359422 0.722197 0.105449
H40   H     H_    0.640632 0.277803 0.975845 0.105401
H41   H     H_    0.359351 0.722225 0.024092 0.105383
H42   H     H_    0.277785 0.975767 0.640211 0.105264
H43   H     H_    0.722166 0.024269 0.359555 0.105252
H44   H     H_    0.049904 0.713437 0.119055 0.116808
H45   H     H_    0.540189 0.283618 0.811196 0.128982
H46   H     H_    0.950096 0.286648 0.880974 0.116812
H47   H     H_    0.713422 0.119023 0.049992 0.116818
H48   H     H_    0.286548 0.880990 0.949915 0.116816
H49   H     H_    0.118971 0.049839 0.712964 0.116842
H50   H     H_    0.880975 0.950188 0.286810 0.116839
H51   H     H_    0.205099 0.489943 0.416809 0.141956
H52   H     H_    0.794967 0.509964 0.583175 0.142103
H53   H     H_    0.490021 0.416852 0.205055 0.142068
H54   H     H_    0.510038 0.583103 0.794927 0.142024
H55   H     H_    0.416778 0.204897 0.490417 0.142038
H56   H     H_    0.459629 0.716457 0.188732 0.128946
H57   H     H_    0.583245 0.795022 0.509737 0.141981
H58   H     H_    0.984343 0.660304 0.437977 0.140927
H59   H     H_    0.015689 0.339687 0.562031 0.140952
H60   H     H_    0.660302 0.437966 0.984365 0.140910
O1    O     O_3   0.250000 0.250000 0.250000 -0.444079
O2    O     O_R   0.865800 0.694910 0.573470 -0.542025
O3    O     O_R   0.305090 0.426530 0.134200 -0.542089
O4    O     O_R   0.694910 0.573470 0.865800 -0.542091
O5    O     O_R   0.426530 0.134200 0.305090 -0.542042
O6    O     O_R   0.573470 0.865800 0.694910 -0.542042
O7    O     O_R   0.134190 0.426530 0.134200 -0.545591
O8    O     O_R   0.865810 0.573470 0.865800 -0.545610
O9    O     O_R   0.426530 0.134200 0.134190 -0.545599
O10   O     O_R   0.573470 0.865800 0.865810 -0.545617
O11   O     O_R   0.134200 0.134190 0.426530 -0.545733
O12   O     O_3   0.750000 0.750000 0.750000 -0.444088
O13   O     O_R   0.865800 0.865810 0.573470 -0.545729
O14   O     O_R   0.426530 0.305080 0.134210 -0.533025
O15   O     O_R   0.573470 0.694920 0.865790 -0.533039
O16   O     O_R   0.305080 0.134210 0.426530 -0.533168
O17   O     O_R   0.694920 0.865790 0.573470 -0.533133
O18   O     O_R   0.134210 0.426530 0.305080 -0.533042
O19   O     O_R   0.865790 0.573470 0.694920 -0.533048
O20   O     O_2   0.315645 0.510789 0.318671 -0.487460
O21   O     O_2   0.684465 0.488957 0.681278 -0.487353
O22   O     O_2   0.510741 0.318693 0.315655 -0.487389
O23   O     O_R   0.305080 0.134200 0.134200 -0.543652
O24   O     O_2   0.489281 0.681228 0.684326 -0.487351
O25   O     O_2   0.318677 0.315294 0.511746 -0.487440
O26   O     O_2   0.681439 0.684482 0.488894 -0.487364
O27   O     O_R   0.694920 0.865800 0.865800 -0.543663
O28   O     O_R   0.134200 0.134200 0.305080 -0.543893
O29   O     O_R   0.865800 0.865800 0.694920 -0.543867
O30   O     O_R   0.134200 0.305080 0.134200 -0.543765
O31   O     O_R   0.865800 0.694920 0.865800 -0.543731
O32   O     O_R   0.134200 0.305090 0.426530 -0.542041
Zn1   Zn    Zn3+2 0.206620 0.206630 0.380140 0.940161
Zn2   Zn    Zn3+2 0.793380 0.793370 0.619860 0.940223
Zn3   Zn    Zn3+2 0.206630 0.380140 0.206620 0.940306
Zn4   Zn    Zn3+2 0.793370 0.619860 0.793380 0.940299
Zn5   Zn    Zn3+2 0.380140 0.206620 0.206630 0.940326
Zn6   Zn    Zn3+2 0.619860 0.793380 0.793370 0.940324
Zn7   Zn    Zn3+2 0.206620 0.206620 0.206620 0.919257
Zn8   Zn    Zn3+2 0.793380 0.793380 0.793380 0.919278

loop_
_geom_bond_atom_site_label_1
_geom_bond_atom_site_label_2
_ccdc_geom_bond_type
C10   C27   S    
C73   O32   A    
C80   H6    S    
C22   C29   A    
C20   C82   A    
O19   Zn4   S    
O11   Zn1   S    
O29   Zn8   S    
C75   O14   A    
C1    C11   S    
C35   H40   S    
O1    Zn1   S    
C14   O21   D    
C62   C76   S    
C87   H13   S    
C1    O9    A    
C42   H47   S    
C89   H15   S    
C55   H60   S    
C106  C112  A    
C101  H20   S    
C84   H9    S    
C40   C46   A    
C34   C41   A    
C52   H30   S    
C98   C105  A    
C21   C93   A    
C99   H18   S    
C103  C110  A    
C78   O6    A    
C26   C67   S    
O1    Zn7   S    
C54   H59   S    
C40   H44   S    
C45   H50   S    
C3    C109  A    
C13   H36   S    
C80   C87   A    
C76   O4    A    
C59   C66   A    
O14   Zn5   S    
C17   H55   S    
C91   H17   S    
C96   C102  A    
O9    Zn5   S    
C48   C104  A    
C87   C94   A    
O5    Zn5   S    
O8    Zn4   S    
C22   C104  A    
C7    C112  A    
O4    Zn4   S    
C85   H10   S    
O7    Zn3   S    
C32   C39   A    
O3    Zn3   S    
O6    Zn6   S    
C58   H4    S    
C27   O10   A    
C107  C113  A    
C76   O15   A    
C2    C50   A    
C53   H58   S    
C105  H24   S    
C102  H21   S    
C19   C52   A    
C60   O30   A    
C15   C22   S    
C63   C69   A    
C8    C71   S    
C79   H5    S    
O13   Zn2   S    
C19   H37   S    
C10   C110  A    
C44   H49   S    
C64   C70   A    
C14   H52   S    
C90   C97   A    
C89   C96   A    
C39   C45   A    
C5    C85   A    
C101  C108  A    
C105  C111  A    
C88   C95   A    
C28   C34   A    
O28   Zn7   S    
C13   C51   A    
C39   H43   S    
C86   H11   S    
C9    C109  A    
C104  H33   S    
C15   H53   S    
C55   C69   A    
C18   C25   S    
C84   C90   A    
C53   C67   A    
C8    C108  A    
C41   C47   A    
C2    H35   S    
O10   Zn6   S    
C29   C69   S    
C53   C59   A    
C83   C89   A    
C33   C40   A    
C65   C77   S    
C95   H34   S    
C11   C111  A    
C17   C24   S    
C23   C30   A    
C46   C82   A    
C93   H32   S    
C92   C99   A    
C3    C8    A    
C12   H51   S    
O32   Zn1   S    
C58   C70   A    
C32   C70   S    
C56   H2    S    
C45   C52   A    
C61   C73   S    
C18   H57   S    
O30   Zn7   S    
O15   Zn6   S    
C97   H56   S    
C31   C37   A    
C13   C24   A    
C81   H7    S    
C47   H26   S    
C42   C48   A    
C28   C66   S    
C103  H22   S    
C6    C113  A    
C74   O2    A    
C41   H46   S    
C61   C67   A    
C58   C65   A    
C4    C84   A    
C94   C100  A    
C12   C20   S    
C6    C106  A    
C56   C63   A    
C49   O13   A    
C77   O5    A    
C98   H45   S    
C4    C11   A    
C59   C74   S    
C97   C103  A    
C15   O22   D    
C79   C112  A    
C44   C51   A    
C55   C62   A    
C31   C72   S    
C21   C28   A    
C37   H42   S    
O31   Zn8   S    
C16   C23   S    
O1    Zn5   S    
O12   Zn4   S    
C18   O26   D    
C81   C88   A    
C7    C107  A    
C9    C114  A    
C63   C75   S    
C65   C72   A    
C96   H23   S    
C82   H31   S    
C16   O24   D    
C100  H19   S    
C14   C21   S    
C57   C64   A    
C57   H3    S    
C34   H39   S    
C60   O7    A    
C99   C106  A    
C4    C110  A    
C100  C107  A    
C47   C93   A    
C27   O27   A    
C12   O20   D    
C1    O23   A    
C78   O17   A    
C102  C109  A    
C33   H38   S    
C92   H12   S    
C94   H1    S    
C43   C50   A    
C54   C66   A    
C54   C61   A    
C51   H29   S    
O18   Zn3   S    
C38   O11   A    
C5    C111  A    
C29   C35   A    
C30   C36   A    
C83   H8    S    
C81   C114  A    
C108  C114  A    
C9    C60   S    
C37   C44   A    
C71   O8    A    
C24   C31   A    
C5    C10   A    
C88   H14   S    
C56   C68   A    
C3    C83   A    
O2    Zn2   S    
O12   Zn6   S    
C20   C26   A    
C16   H54   S    
C77   O16   A    
O12   Zn8   S    
C49   O29   A    
C35   C42   A    
C7    C38   S    
C48   H27   S    
C17   O25   D    
C62   C68   A    
O1    Zn3   S    
C91   C98   A    
O12   Zn2   S    
C75   O3    A    
O27   Zn8   S    
C74   O19   A    
C73   O18   A    
C64   C78   S    
C19   C25   A    
C90   H16   S    
C43   H48   S    
C95   C101  A    
O16   Zn1   S    
C71   O31   A    
O23   Zn7   S    
C80   C113  A    
C36   H41   S    
C38   O28   A    
C2    C23   A    
C57   C72   A    
C46   H25   S    
C36   C43   A    
C86   C92   A    
C85   C91   A    
C79   C86   A    
C30   C68   S    
C6    C49   S    
C50   H28   S    
C26   C33   A    
O17   Zn2   S    
C25   C32   A    
