data_mof_unit_32565.cif
_audit_creation_date              2012-12-11T16:18:15-0500
_audit_creation_method            fapswitch 2.2
_symmetry_space_group_name_H-M    P1
_symmetry_Int_Tables_number       1
_space_group_crystal_system       triclinic
_cell_length_a                    14.011468
_cell_length_b                    14.07872
_cell_length_c                    30.095861
_cell_angle_alpha                 97.158219
_cell_angle_beta                  97.060535
_cell_angle_gamma                 61.268611
_cell_volume                      5151.75034825

loop_
_atom_site_label
_atom_site_type_symbol
_atom_type_description
_atom_site_fract_x
_atom_site_fract_y
_atom_site_fract_z
_atom_type_partial_charge
C1    C     C_R   0.385853 0.710370 0.442079 0.552958
C2    C     C_R   0.759051 0.280038 0.373602 -0.177565
C3    C     C_R   0.783210 0.259034 0.328881 -0.135098
C4    C     C_R   0.398674 0.381173 0.426493 0.543713
C5    C     C_R   0.816051 0.323256 0.310202 -0.004033
C6    C     C_R   0.832532 0.403452 0.336771 -0.096399
C7    C     C_R   0.805047 0.428220 0.381711 0.273871
C8    C     C_R   0.849294 0.393485 0.161643 -0.131483
C9    C     C_R   0.875876 0.385516 0.117935 -0.173131
C10   C     C_R   0.870211 0.213934 0.102802 0.273832
C11   C     C_R   0.840625 0.224720 0.146954 -0.100057
C12   C     C_R   0.331710 0.240780 0.223373 -0.105032
C13   C     C_R   0.836083 0.311100 0.176552 -0.004595
C14   C     C_1   0.827553 0.311340 0.223259 -0.020254
C15   C     C_1   0.823309 0.314183 0.262911 -0.019642
C16   C     C_R   0.710027 0.405553 0.442326 0.562403
C17   C     C_R   0.891964 0.293583 0.088780 0.035547
C18   C     C_R   0.364964 0.767254 0.401280 -0.023705
C19   C     C_R   0.447634 0.782196 0.386259 -0.122858
C20   C     C_R   0.439306 0.811083 0.342421 0.284012
C21   C     C_R   0.348663 0.821871 0.313527 0.051269
C22   C     C_R   0.262142 0.816357 0.329502 -0.174895
C23   C     C_R   0.339875 0.249528 0.270230 -0.108083
C24   C     C_R   0.269752 0.789979 0.373272 -0.145374
C25   C     C_R   0.261414 0.826386 0.151400 -0.122014
C26   C     C_R   0.242511 0.852873 0.106905 -0.135326
C27   C     C_R   0.382827 0.909487 0.119078 -0.130100
C28   C     C_R   0.409744 0.664171 0.572043 0.553944
C29   C     C_R   0.401548 0.882953 0.163471 -0.114824
C30   C     C_R   0.338173 0.845157 0.179977 0.037008
C31   C     C_1   0.344411 0.835887 0.227033 -0.020779
C32   C     C_1   0.346915 0.830495 0.266610 0.018422
C33   C     C_R   0.299533 0.899463 0.091010 0.021889
C34   C     C_R   0.323563 0.347977 0.293460 0.036676
C35   C     C_R   0.362062 0.362300 0.591069 -0.027426
C36   C     C_R   0.410387 0.257676 0.607132 0.260956
C37   C     C_R   0.391768 0.246663 0.650287 -0.142800
C38   C     C_R   0.322272 0.337665 0.676472 -0.014801
C39   C     C_R   0.264214 0.439530 0.658788 0.260229
C40   C     C_R   0.401610 0.382914 0.552091 0.546999
C41   C     C_R   0.285358 0.451586 0.616376 -0.161325
C42   C     C_R   0.213878 0.393378 0.829492 0.287043
C43   C     C_R   0.207603 0.386565 0.875081 0.274401
C44   C     C_R   0.392378 0.235459 0.877606 -0.185268
C45   C     C_R   0.307879 0.330195 0.199679 0.037112
C46   C     C_R   0.400534 0.246969 0.833237 -0.182589
C47   C     C_R   0.310527 0.322885 0.808862 -0.007789
C48   C     C_1   0.315832 0.325161 0.762065 0.004230
C49   C     C_1   0.318590 0.328876 0.722801 0.005523
C50   C     C_R   0.294276 0.300948 0.898309 -0.020561
C51   C     C_1   0.760427 0.378123 0.612871 -0.008517
C52   C     C_R   0.712756 0.408081 0.568601 0.537547
C53   C     C_R   0.729180 0.399451 0.728019 -0.121615
C54   C     C_R   0.749722 0.382699 0.773746 -0.159088
C55   C     C_R   0.935190 0.243513 0.760490 0.273315
C56   C     C_1   0.299007 0.319358 0.151588 -0.060187
C57   C     C_R   0.914597 0.262187 0.714689 -0.100527
C58   C     C_R   0.811688 0.339827 0.698485 -0.009668
C59   C     C_R   0.852656 0.305451 0.790158 0.032634
C60   C     C_1   0.876407 0.293696 0.837653 -0.018687
C61   C     C_1   0.788575 0.358350 0.651549 -0.054510
C62   C     C_1   0.904907 0.282954 0.876920 0.009386
C63   C     C_1   0.401525 0.698028 0.618994 -0.012377
C64   C     C_1   0.364501 0.363903 0.380954 -0.017192
C65   C     C_R   0.381892 0.680966 0.734057 -0.097539
C66   C     C_R   0.363746 0.712191 0.780116 0.290303
C67   C     C_1   0.342553 0.354775 0.341331 -0.061930
C68   C     C_R   0.356182 0.884500 0.769424 -0.170753
C69   C     C_R   0.371077 0.854053 0.723876 -0.125532
C70   C     C_R   0.383249 0.752695 0.706040 -0.004387
C71   C     C_R   0.351999 0.814498 0.797507 0.046540
C72   C     C_1   0.326183 0.853401 0.843356 -0.007088
C73   C     C_1   0.394048 0.723394 0.658674 -0.052268
C74   C     C_1   0.299616 0.893034 0.880603 -0.001880
C75   C     C_R   0.949844 0.273418 0.048000 0.558830
C76   C     C_R   0.298499 0.437815 0.269783 -0.105012
C77   C     C_R   0.275325 0.270026 0.065491 0.541791
C78   C     C_1   0.289896 0.302226 0.111589 -0.014294
C79   C     C_R   0.260916 0.954180 0.048934 0.537052
C80   C     C_R   0.952208 0.269149 0.922119 0.549587
C81   C     C_R   0.276374 0.266173 0.939412 0.555866
C82   C     C_R   0.262091 0.950103 0.923052 0.546890
C83   C     C_R   0.290380 0.429042 0.222876 -0.107348
C84   C     C_3   0.942623 0.027953 0.090525 -0.102314
C85   C     C_3   0.534843 0.905180 0.346926 -0.139288
C86   C     C_3   0.121527 0.547235 0.915491 -0.087142
C87   C     C_3   0.054888 0.428584 0.788517 -0.081075
C88   C     C_3   0.091853 0.541113 0.679909 -0.107208
C89   C     C_R   0.764754 0.367550 0.399892 0.033756
C90   C     C_3   0.426655 0.122682 0.554396 -0.105381
C91   C     C_3   0.048604 0.065087 0.768967 -0.116802
C92   C     C_3   0.303406 0.589930 0.790671 -0.087159
C93   C     C_3   0.768064 0.607605 0.388016 -0.097621
Cr1   Cr    Cr6+3 0.581000 0.584320 0.508140 1.033579
Cr2   Cr    Cr6+3 0.339110 0.576430 0.496080 1.017679
Cr3   Cr    Cr6+3 0.579910 0.339270 0.495810 1.033725
Cr4   Cr    Cr6+3 0.082090 0.079210 0.982490 1.049941
Cr5   Cr    Cr6+3 0.082460 0.324610 0.994920 1.047356
Cr6   Cr    Cr6+3 0.323630 0.087860 0.996130 1.025853
H1    H     H_    0.179074 0.842881 0.085814 0.111095
H2    H     H_    0.978811 0.216476 0.692012 0.117406
H3    H     H_    0.394423 0.601654 0.719823 0.120084
H4    H     H_    0.345284 0.964046 0.782624 0.131934
H5    H     H_    0.891391 0.448001 0.108117 0.143998
H6    H     H_    0.844379 0.461375 0.184474 0.126776
H7    H     H_    0.728478 0.232218 0.386570 0.142483
H8    H     H_    0.287152 0.513927 0.287585 0.113283
H9    H     H_    0.824976 0.164280 0.158759 0.107259
H10   H     H_    0.017100 0.024996 0.109783 0.115930
H11   H     H_    0.970126 0.964246 0.062353 0.145704
H12   H     H_    0.204419 0.779798 0.383992 0.145062
H13   H     H_    0.896440 0.007749 0.111776 0.102256
H14   H     H_    0.771396 0.196032 0.308376 0.122744
H15   H     H_    0.212495 0.796465 0.164063 0.101532
H16   H     H_    0.191253 0.826620 0.307358 0.113314
H17   H     H_    0.521724 0.764518 0.407359 0.119706
H18   H     H_    0.564556 0.893539 0.382831 0.103459
H19   H     H_    0.456350 0.981786 0.343666 0.118247
H20   H     H_    0.596021 0.913959 0.330106 0.141129
H21   H     H_    0.132946 0.591987 0.890355 0.137229
H22   H     H_    0.189506 0.523114 0.942261 0.099575
H23   H     H_    0.461319 0.897338 0.185491 0.117195
H24   H     H_    0.044920 0.603727 0.931584 0.138197
H25   H     H_    0.021022 0.410769 0.816069 0.176219
H26   H     H_    0.095857 0.354396 0.765550 0.129835
H27   H     H_    0.985253 0.490238 0.768771 0.126408
H28   H     H_    0.090778 0.469330 0.691246 0.125108
H29   H     H_    0.057073 0.554247 0.644539 0.115991
H30   H     H_    0.038435 0.613319 0.701261 0.150267
H31   H     H_    0.246837 0.532537 0.604762 0.156794
H32   H     H_    0.368972 0.181026 0.529845 0.113245
H33   H     H_    0.382303 0.095984 0.573877 0.109008
H34   H     H_    0.428411 0.944888 0.107802 0.134015
H35   H     H_    0.485817 0.049939 0.534999 0.143474
H36   H     H_    0.435271 0.167810 0.663970 0.132891
H37   H     H_    0.649124 0.459602 0.715723 0.127456
H38   H     H_    0.049740 0.039597 0.732444 0.119979
H39   H     H_    0.982745 0.059189 0.783792 0.123452
H40   H     H_    0.127217 0.007374 0.785505 0.150488
H41   H     H_    0.354377 0.517129 0.768946 0.145562
H42   H     H_    0.226130 0.644668 0.771879 0.155052
H43   H     H_    0.280715 0.561285 0.818344 0.162952
H44   H     H_    0.371934 0.910053 0.702474 0.126706
H45   H     H_    0.271356 0.498669 0.204802 0.107946
H46   H     H_    0.360643 0.179325 0.288263 0.105381
H47   H     H_    0.862606 0.449306 0.321946 0.111056
H48   H     H_    0.688270 0.623066 0.369838 0.143323
H49   H     H_    0.822811 0.610149 0.364998 0.116946
H50   H     H_    0.751444 0.674855 0.414476 0.138891
H51   H     H_    0.475376 0.192973 0.817278 0.132928
H52   H     H_    0.460888 0.170771 0.894783 0.156659
H53   H     H_    0.344744 0.164118 0.205595 0.111401
H54   H     H_    0.685860 0.430863 0.796339 0.137309
O1    O     O_R   0.688580 0.499770 0.460490 -0.459190
O2    O     O_R   0.346150 0.177650 0.050510 -0.509199
O3    O     O_R   0.314200 0.996600 0.036060 -0.503667
O4    O     O_R   0.480400 0.672610 0.462660 -0.500917
O5    O     O_R   0.168690 0.969990 0.933130 -0.506305
O6    O     O_R   0.991920 0.175870 0.937430 -0.495287
O7    O     O_R   0.974010 0.342590 0.941330 -0.482477
O8    O     O_R   0.182630 0.317940 0.955040 -0.448749
O9    O     O_R   0.347320 0.174720 0.953250 -0.521768
O10   O     O_R   0.315290 0.993890 0.945900 -0.493427
O11   O     O_3   0.162730 0.163890 0.991180 -0.256772
O12   O     O_R   0.348600 0.476260 0.536540 -0.532371
O13   O     O_R   0.315310 0.685650 0.451800 -0.507821
O14   O     O_R   0.346220 0.474990 0.446280 -0.491050
O15   O     O_R   0.492270 0.312460 0.441630 -0.515538
O16   O     O_R   0.669740 0.350480 0.455640 -0.516574
O17   O     O_R   0.691150 0.501150 0.557860 -0.513115
O18   O     O_R   0.482790 0.673890 0.552920 -0.492324
O19   O     O_R   0.317880 0.687030 0.549170 -0.503826
O20   O     O_3   0.874665 0.129211 0.072497 -0.548597
O21   O     O_3   0.525277 0.814641 0.325793 -0.579221
O22   O     O_3   0.111719 0.456486 0.894905 -0.532699
O23   O     O_R   0.494840 0.313840 0.539010 -0.450835
O24   O     O_3   0.126198 0.471107 0.805482 -0.571359
O25   O     O_3   0.197798 0.530457 0.684969 -0.576636
O26   O     O_3   0.484667 0.167412 0.583064 -0.536038
O27   O     O_3   0.038257 0.170313 0.776823 -0.583102
O28   O     O_3   0.363591 0.643545 0.809583 -0.581827
O29   O     O_3   0.819779 0.508396 0.408709 -0.550173
O30   O     O_R   0.672120 0.351750 0.545910 -0.489984
O31   O     O_3   0.500010 0.500010 0.500010 -0.271444
O32   O     O_R   0.167510 0.972920 0.030390 -0.519354
O33   O     O_R   0.990840 0.178580 0.027590 -0.447651
O34   O     O_R   0.972840 0.345510 0.038590 -0.533237
O35   O     O_R   0.181550 0.320660 0.045200 -0.501279

loop_
_geom_bond_atom_site_label_1
_geom_bond_atom_site_label_2
_ccdc_geom_bond_type
C8    C13   A    
C55   C59   A    
C27   C29   A    
C81   O9    A    
C12   H53   S    
C93   H50   S    
C35   C36   A    
C51   C61   T    
C52   O30   A    
C8    H6    S    
Cr5   O8    S    
C54   H54   S    
C39   C41   A    
C38   C49   S    
C77   C78   S    
C27   C33   A    
C68   H4    S    
Cr4   O32   S    
C24   H12   S    
C12   C23   A    
C1    C18   S    
C37   C38   A    
C18   C24   A    
C5    C6    A    
Cr4   O6    S    
C62   C80   S    
C36   C37   A    
C74   C82   S    
C18   C19   A    
C88   H28   S    
C92   O28   S    
C9    H5    S    
C41   H31   S    
C6    H47   S    
Cr2   O31   S    
C80   O7    A    
C82   O10   A    
C42   O24   S    
C65   C70   A    
C7    C89   A    
C56   C78   T    
C93   H49   S    
C60   C62   T    
C86   O22   S    
C55   O27   S    
C85   H20   S    
Cr5   O35   S    
C28   O18   A    
C79   O3    A    
C91   H38   S    
C43   O22   S    
C16   O16   A    
C28   O19   A    
C20   O21   S    
C66   C71   A    
C45   C56   S    
C8    C9    A    
Cr5   O34   S    
Cr6   O2    S    
C47   C48   S    
Cr3   O15   S    
C93   H48   S    
C92   H43   S    
Cr2   O19   S    
C90   H33   S    
C23   C34   A    
C10   O20   S    
C59   C60   S    
C13   C14   S    
C29   H23   S    
C45   C83   A    
C36   O26   S    
Cr1   O31   S    
C65   H3    S    
Cr3   O31   S    
Cr2   O12   S    
C76   C83   A    
C44   C46   A    
C21   C22   A    
C83   H45   S    
C54   C59   A    
Cr4   O33   S    
C21   C32   S    
C75   O34   A    
C44   H52   S    
C51   C52   S    
C27   H34   S    
C64   C67   T    
C38   C39   A    
C72   C74   T    
C3    H14   S    
C52   O17   A    
C40   O23   A    
C68   C69   A    
C80   O6    A    
C63   C73   T    
C25   C26   A    
C53   C54   A    
C2    H7    S    
C84   H11   S    
C4    O15   A    
C2    C89   A    
C28   C63   S    
C29   C30   A    
Cr1   O18   S    
C87   O24   S    
C91   H39   S    
C23   H46   S    
C93   O29   S    
C26   C33   A    
C31   C32   T    
C30   C31   S    
Cr1   O1    S    
Cr4   O11   S    
C91   O27   S    
C70   C73   S    
C37   H36   S    
C85   O21   S    
C82   O5    A    
C84   H13   S    
C85   H18   S    
C92   H42   S    
C40   O12   A    
C91   H40   S    
C90   H32   S    
C9    C17   A    
C22   H16   S    
C46   H51   S    
C66   O28   S    
Cr5   O7    S    
C76   H8    S    
Cr3   O16   S    
C55   C57   A    
C16   O1    A    
C88   H30   S    
Cr6   O10   S    
C75   O33   A    
C69   H44   S    
C42   C43   A    
Cr3   O30   S    
C84   O20   S    
C92   H41   S    
Cr2   O13   S    
C87   H26   S    
C39   O25   S    
C44   C50   A    
C25   C30   A    
C11   H9    S    
C46   C47   A    
C48   C49   T    
C79   O32   A    
C7    O29   S    
C90   O26   S    
C81   O8    A    
C33   C79   S    
C12   C45   A    
C3    C5    A    
Cr2   O14   S    
C34   C67   S    
Cr3   O23   S    
Cr5   O11   S    
C53   C58   A    
C43   C50   A    
C88   O25   S    
C6    C7    A    
C26   H1    S    
Cr1   O4    S    
C57   H2    S    
C4    C64   S    
C84   H10   S    
C4    O14   A    
Cr4   O5    S    
C19   C20   A    
C1    O4    A    
C2    C3    A    
C71   C72   S    
C88   H29   S    
C25   H15   S    
C77   O2    A    
C11   C13   A    
C57   C58   A    
C87   H25   S    
C19   H17   S    
C58   C61   S    
C68   C71   A    
C90   H35   S    
C35   C40   S    
C22   C24   A    
C42   C47   A    
C85   H19   S    
C35   C41   A    
C69   C70   A    
C5    C15   S    
C10   C11   A    
Cr6   O11   S    
Cr6   O3    S    
C53   H37   S    
C16   C89   S    
C20   C21   A    
C65   C66   A    
C34   C76   A    
C86   H24   S    
C17   C75   S    
C77   O35   A    
C14   C15   T    
C86   H21   S    
C10   C17   A    
C86   H22   S    
Cr6   O9    S    
C87   H27   S    
Cr1   O17   S    
C50   C81   S    
C1    O13   A    
