data_mof_unit_56216.cif
_audit_creation_date              2012-12-10T17:02:05-0500
_audit_creation_method            fapswitch 2.2
_symmetry_space_group_name_H-M    P1
_symmetry_Int_Tables_number       1
_space_group_crystal_system       triclinic
_cell_length_a                    10.7721
_cell_length_b                    11.037757
_cell_length_c                    9.833331
_cell_angle_alpha                 111.008963
_cell_angle_beta                  98.107174
_cell_angle_gamma                 91.062483
_cell_volume                      1077.52649714

loop_
_atom_site_label
_atom_site_type_symbol
_atom_type_description
_atom_site_fract_x
_atom_site_fract_y
_atom_site_fract_z
_atom_type_partial_charge
C1    C     C_R   0.490894 0.254198 0.440771 0.868289
C2    C     C_R   0.081168 0.621287 0.604708 0.094383
C3    C     C_R   0.129700 0.511971 0.505737 -0.096816
C4    C     C_R   0.049675 0.409505 0.402251 -0.200106
C5    C     C_R   0.921373 0.410645 0.399491 -0.200944
C6    C     C_R   0.871285 0.514283 0.500232 -0.098050
C7    C     C_2   0.485848 0.114939 0.407467 -0.360735
C8    C     C_2   0.502082 0.069539 0.516684 -0.152638
C9    C     C_2   0.513881 0.885031 0.592630 -0.362509
C10   C     C_2   0.497387 0.930450 0.483450 -0.145174
C11   C     C_2   0.510716 0.510513 0.081213 -0.070114
C12   C     C_R   0.262868 0.503796 0.502156 0.787566
C13   C     C_2   0.488888 0.489927 0.918923 -0.069518
C14   C     C_R   0.509033 0.745797 0.559247 0.840306
C15   C     C_R   0.737441 0.504754 0.499892 0.788227
C16   C     C_R   0.159549 0.731007 0.702431 -0.175651
C17   C     C_R   0.108559 0.838357 0.796557 -0.136464
C18   C     C_R   0.979143 0.839562 0.793667 -0.136416
C19   C     C_R   0.899897 0.733404 0.696662 -0.177371
C20   C     C_R   0.949580 0.622499 0.601765 0.096738
Cu1   Cu    Cu3+1 0.521920 0.521810 0.644910 0.934481
Cu2   Cu    Cu3+1 0.478080 0.478190 0.355090 0.939999
H1    H     H_    0.087111 0.326926 0.324839 0.147137
H2    H     H_    0.468831 0.049014 0.292801 0.148172
H3    H     H_    0.415107 0.418362 0.846377 0.161306
H4    H     H_    0.583995 0.582636 0.153906 0.160728
H5    H     H_    0.624981 0.621173 0.933841 0.193032
H6    H     H_    0.376079 0.377651 0.065841 0.191407
H7    H     H_    0.169649 0.921663 0.870758 0.132364
H8    H     H_    0.799803 0.740621 0.695021 0.143490
H9    H     H_    0.519059 0.135149 0.631552 0.180752
H10   H     H_    0.530978 0.950911 0.707309 0.147654
N1    N     N_2   0.445130 0.445430 0.137370 -0.285313
N2    N     N_2   0.554930 0.554500 0.862630 -0.285906
O1    O     O_R   0.511700 0.332330 0.577400 -0.574140
O2    O     O_R   0.474680 0.295500 0.332650 -0.577586
O3    O     O_R   0.338160 0.518420 0.622400 -0.583443
O4    O     O_R   0.301140 0.481590 0.377650 -0.568110
O5    O     O_R   0.525320 0.704500 0.667350 -0.590024
O6    O     O_R   0.488300 0.667670 0.422600 -0.574491
O7    O     O_R   0.698860 0.518410 0.622350 -0.572928
O8    O     O_R   0.661840 0.481580 0.377600 -0.576396
H11   H     H_    0.260222 0.736400 0.705643 0.150678
H12   H     H_    0.939820 0.923818 0.865579 0.132922
H13   H     H_    0.860981 0.328527 0.320991 0.149617
H14   H     H_    0.480321 0.864847 0.368581 0.181596

loop_
_geom_bond_atom_site_label_1
_geom_bond_atom_site_label_2
_ccdc_geom_bond_type
C10   H14   S    
C9    C14   S    
Cu1   O1    S    
C18   H12   S    
C2    C16   A    
C6    C20   A    
C9    C10   D    
C15   O8    A    
C19   C20   A    
Cu1   O5    S    
C19   H8    S    
Cu2   O6    S    
C17   C18   A    
C6    C15   S    
C7    C8    D    
C17   H7    S    
C11   C13   S    
C16   H11   S    
C13   H3    S    
Cu2   O8    S    
Cu1   O7    S    
Cu1   Cu2   S    
C14   O6    A    
H6    N1    S    
C2    C3    A    
H5    N2    S    
C12   O4    A    
C5    C6    A    
C15   O7    A    
C2    C20   A    
C3    C4    A    
Cu2   O4    S    
C11   N1    D    
Cu1   O3    S    
C1    O1    A    
C8    C10   S    
C18   C19   A    
C11   H4    S    
C12   O3    A    
Cu2   N1    S    
C4    H1    S    
C16   C17   A    
C13   N2    D    
C3    C12   S    
C9    H10   S    
C14   O5    A    
C1    C7    S    
C8    H9    S    
C5    H13   S    
Cu1   N2    S    
Cu2   O2    S    
C7    H2    S    
C1    O2    A    
C4    C5    A    
