data_mof_unit_10161.cif
_audit_creation_date              2012-12-11T18:00:32-0500
_audit_creation_method            fapswitch 2.2
_symmetry_space_group_name_H-M    P1
_symmetry_Int_Tables_number       1
_space_group_crystal_system       triclinic
_cell_length_a                    8.471724
_cell_length_b                    12.867146
_cell_length_c                    18.889151
_cell_angle_alpha                 98.491218
_cell_angle_beta                  94.209806
_cell_angle_gamma                 98.314663
_cell_volume                      2005.60305603

loop_
_atom_site_label
_atom_site_type_symbol
_atom_type_description
_atom_site_fract_x
_atom_site_fract_y
_atom_site_fract_z
_atom_type_partial_charge
Ba1   Ba    Ba6+2 0.851480 0.550950 0.465800 1.791194
Ba2   Ba    Ba6+2 0.338350 0.449140 0.534210 1.853918
C1    C     C_3   0.739241 0.849709 0.194358 -0.314569
C2    C     C_3   0.726958 0.783105 0.254610 0.738502
C3    C     C_3   0.540195 0.181907 0.288879 0.643312
C4    C     C_3   0.594892 0.075321 0.295702 0.249594
C5    C     C_3   0.086511 0.151543 0.730620 0.666605
C6    C     C_3   0.147890 0.097437 0.791334 -0.242820
C7    C     C_3   0.610505 0.193380 0.735646 0.917892
C8    C     C_3   0.510010 0.094014 0.691925 -0.272029
C9    C     C_2   0.294630 0.516888 0.298247 -0.266809
C10   C     C_3   0.422759 0.497140 0.249003 0.077390
C11   C     C_2   0.363871 0.503050 0.171377 -0.024459
C12   C     C_3   0.157858 0.764589 0.273623 0.311522
C13   C     C_2   0.205302 0.495918 0.150240 -0.073740
C14   C     C_2   0.090514 0.480782 0.206978 -0.187714
C15   C     C_1   0.145669 0.476193 0.274657 0.009560
C16   C     C_R   0.046901 0.513127 0.932674 0.487549
C17   C     C_R   0.148693 0.502857 0.073093 0.459274
C18   C     C_R   0.091338 0.547467 0.803189 -0.062323
C19   C     C_R   0.034510 0.535579 0.729036 0.072310
C20   C     C_R   0.771642 0.457847 0.756981 0.024688
C21   C     C_R   0.826809 0.470979 0.830066 -0.048595
C22   C     C_R   0.988764 0.512048 0.854568 -0.017521
C23   C     C_3   0.144202 0.779048 0.194753 -0.287122
C24   C     C_R   0.876444 0.487705 0.707149 -0.188779
C25   C     C_R   0.779711 0.163158 0.507142 0.250699
C26   C     C_R   0.424783 0.808997 0.472959 -0.239279
C27   C     C_R   0.392078 0.985511 0.451513 -0.020079
C28   C     C_R   0.331326 0.878309 0.446767 0.012456
C29   C     C_R   0.574804 0.847109 0.510953 0.095270
C30   C     C_R   0.638138 0.957908 0.517781 -0.000226
C31   C     C_R   0.546954 0.026564 0.483841 -0.076719
C32   C     C_R   0.615870 0.132588 0.479891 -0.072854
C33   C     C_R   0.863279 0.104283 0.549860 0.020928
C34   C     C_3   0.260704 0.772536 0.619795 0.285923
C35   C     C_R   0.790272 0.001533 0.555579 -0.133949
C36   C     C_3   0.224183 0.884674 0.620715 -0.360550
C37   C     C_3   0.092417 0.233024 0.260841 0.288416
C38   C     C_3   0.985467 0.210836 0.190125 -0.358649
C39   C     C_3   0.753426 0.705644 0.680797 0.294339
C40   C     C_3   0.794593 0.747250 0.760715 -0.331607
H1    H     H_    0.834591 0.744272 0.256215 0.031039
H2    H     H_    0.309869 0.930438 0.591007 0.046660
H3    H     H_    0.101106 0.882822 0.596121 0.128321
H4    H     H_    0.232713 0.925238 0.676809 0.138868
H5    H     H_    0.128519 0.156907 0.271396 0.162997
H6    H     H_    0.204148 0.287512 0.258122 0.058407
H7    H     H_    0.898229 0.137136 0.188364 0.135891
H8    H     H_    0.059205 0.199944 0.144202 0.172594
H9    H     H_    0.918335 0.277429 0.184631 0.088946
H10   H     H_    0.862109 0.682582 0.657676 0.007153
H11   H     H_    0.656567 0.635733 0.673952 0.017146
H12   H     H_    0.755057 0.798565 0.143458 0.079600
H13   H     H_    0.892888 0.816334 0.768570 0.144889
H14   H     H_    0.833871 0.684717 0.789077 0.015173
H15   H     H_    0.687690 0.772660 0.784665 0.150414
H16   H     H_    0.843846 0.914498 0.207269 0.109605
H17   H     H_    0.640438 0.246708 0.290424 -0.036226
H18   H     H_    0.677941 0.056956 0.254682 0.072664
H19   H     H_    0.660794 0.075564 0.347974 0.077192
H20   H     H_    0.628213 0.884157 0.185618 0.194629
H21   H     H_    0.230143 0.735521 0.165581 0.100672
H22   H     H_    0.958972 0.117433 0.719393 0.072295
H23   H     H_    0.078442 0.112803 0.838339 0.157778
H24   H     H_    0.132932 0.010118 0.774207 0.053396
H25   H     H_    0.275289 0.129404 0.809101 0.177196
H26   H     H_    0.420158 0.059406 0.724627 0.112627
H27   H     H_    0.585547 0.032509 0.675516 0.093609
H28   H     H_    0.087977 0.685955 0.276887 0.020540
H29   H     H_    0.450624 0.113926 0.642422 0.116229
H30   H     H_    0.451938 0.510370 0.132697 0.105596
H31   H     H_    0.962950 0.468890 0.191629 0.139466
H32   H     H_    0.214191 0.583545 0.820472 0.097687
H33   H     H_    0.744013 0.444578 0.867160 0.127023
H34   H     H_    0.324412 0.561685 0.352193 0.037417
H35   H     H_    0.832357 0.476901 0.650888 0.078433
H36   H     H_    0.318449 0.034938 0.427113 0.133024
H37   H     H_    0.856046 0.955553 0.586921 0.081735
H38   H     H_    0.285962 0.764156 0.291400 0.075269
H39   H     H_    0.376558 0.725271 0.466968 0.028330
H40   H     H_    0.021863 0.746265 0.168945 0.061177
H41   H     H_    0.170374 0.864299 0.189277 0.217711
H42   H     H_    0.391882 0.775384 0.627919 0.019649
H43   H     H_    0.213506 0.726056 0.566282 0.028732
N1    N     N_R   0.205694 0.531871 0.956372 -0.213754
N2    N     N_R   0.255032 0.526876 0.024694 -0.224779
N3    N     N_R   0.990042 0.484966 0.049523 -0.233572
N4    N     N_R   0.940799 0.489620 0.981220 -0.229708
O1    O     O_2   0.866600 0.438960 0.328790 -0.492712
O2    O     O_3   0.701607 0.787110 0.648442 -0.639151
O3    O     O_3   0.096952 0.846464 0.316384 -0.547867
O4    O     O_2   0.323100 0.561070 0.671250 -0.462374
O5    O     O_3   0.070470 0.559320 0.583840 -0.463999
O6    O     O_3   0.535090 0.363180 0.628460 -0.443911
O7    O     O_3   0.191963 0.732029 0.677272 -0.645336
O8    O     O_3   0.609990 0.369010 0.464390 -0.450869
O9    O     O_3   0.112090 0.307030 0.593210 -0.332589
O10   O     O_2   0.180932 0.120508 0.537306 -0.459256
O11   O     O_3   0.165766 0.126802 0.669305 -0.649972
O12   O     O_3   0.119240 0.440770 0.416170 -0.405087
O13   O     O_3   0.579720 0.631080 0.535620 -0.507651
O14   O     O_2   0.340230 0.234420 0.466230 -0.381478
O15   O     O_3   0.431929 0.210434 0.340207 -0.651057
O16   O     O_2   0.440151 0.458976 0.752365 -0.439026
O17   O     O_3   0.509598 0.270513 0.753900 -0.558324
O18   O     O_3   0.654630 0.636910 0.371550 -0.441009
O19   O     O_2   0.753660 0.557220 0.246522 -0.524707
O20   O     O_3   0.006639 0.267743 0.317687 -0.542350
O21   O     O_3   0.584113 0.709940 0.240642 -0.631557
O22   O     O_2   0.849480 0.765610 0.533810 -0.469057
O23   O     O_3   0.077620 0.693060 0.406790 -0.510264
O24   O     O_2   0.002349 0.883627 0.447141 -0.422374
P1    P     P_3+3 0.034960 0.407000 0.339750 1.100537
P2    P     P_3+3 0.674960 0.749840 0.554930 0.976080
P3    P     P_3+3 0.126771 0.828037 0.406186 1.037550
P4    P     P_3+3 0.154750 0.593090 0.660260 1.012486
P5    P     P_3+3 0.073026 0.165361 0.592657 1.126072
P6    P     P_3+3 0.605849 0.596032 0.278854 0.975940
P7    P     P_3+3 0.506427 0.232175 0.434056 1.008621
P8    P     P_3+3 0.565175 0.392003 0.723231 1.095197
Cl1   Cl    Cl    0.727361 0.865571 0.338854 -0.649283
S1    S     S_3+6 0.455131 0.173690 0.197249 -0.071020
O25   O     O_2   0.301682 0.096288 0.180801 -0.252476
O26   O     O_2   0.424594 0.280963 0.183066 -0.379450
O27   O     O_3   0.585882 0.131602 0.140817 -0.506102
H44   H     H_    0.640645 0.196529 0.125218 0.352636
Cl2   Cl    Cl    0.428035 0.972235 0.284562 -0.680750
Cl3   Cl    Cl    0.125189 0.291657 0.761553 -0.586515
S2    S     S_3+6 0.694516 0.158944 0.817668 -0.058721
O28   O     O_2   0.568208 0.151968 0.869377 -0.268938
O29   O     O_2   0.751012 0.053011 0.802910 -0.341127
O30   O     O_3   0.849242 0.251885 0.855563 -0.498533
H45   H     H_    0.879098 0.231568 0.902729 0.370963
Cl4   Cl    Cl    0.765314 0.229919 0.680982 -0.842370
S3    S     S_3+6 0.892453 0.257188 0.468541 -0.061601
O31   O     O_2   0.903180 0.364870 0.512955 -0.286782
O32   O     O_2   0.053858 0.232509 0.454053 -0.227516
O33   O     O_3   0.799576 0.248301 0.389477 -0.632702
H46   H     H_    0.774147 0.318891 0.388900 0.359090

loop_
_geom_bond_atom_site_label_1
_geom_bond_atom_site_label_2
_ccdc_geom_bond_type
C19   C24   A    
C6    H24   S    
O27   H44   S    
C39   C40   S    
O14   P7    D    
S1    O25   D    
C28   P3    S    
C7    S2    S    
C13   C17   S    
C35   H37   S    
Ba1   O1    S    
C16   C22   S    
C25   S3    S    
C4    H19   S    
Ba2   O6    S    
C33   C35   A    
C17   N2    A    
C9    H34   S    
Ba1   O23   S    
C3    C4    S    
O5    P4    S    
S1    O26   D    
Ba2   O13   S    
N3    N4    A    
C13   C14   S    
C27   C31   A    
Ba1   Ba2   S    
C23   H21   S    
O18   P6    S    
C36   H3    S    
C19   P4    S    
O13   P2    S    
C40   H14   S    
C27   H36   S    
C18   C22   A    
Ba2   O8    S    
Ba1   O5    S    
C21   C22   A    
C12   H38   S    
C7    C8    S    
C39   H10   S    
O24   P3    D    
C8    H29   S    
O6    P8    S    
C3    O15   S    
C6    H23   S    
O12   P1    S    
C12   H28   S    
O19   P6    D    
O4    P4    D    
S3    O33   S    
C40   H15   S    
C29   P2    S    
Ba2   P4    S    
C15   P1    S    
O9    P5    S    
Ba2   O4    S    
C25   C32   A    
C32   P7    S    
C24   H35   S    
C36   H4    S    
C5    O11   S    
C3    H17   S    
C18   H32   S    
C14   H31   S    
C4    H18   S    
O7    P4    S    
Ba2   O5    S    
S3    O32   D    
C17   N3    A    
Ba1   O8    S    
C37   C38   S    
N1    N2    A    
C14   C15   D    
S1    O27   S    
Ba2   O12   S    
C25   C33   A    
C7    O17   S    
S2    O29   D    
C8    H27   S    
C36   H2    S    
C27   C28   A    
C40   H13   S    
C10   P6    S    
C34   O7    S    
C29   C30   A    
O33   H46   S    
C12   O3    S    
C31   C32   A    
C2    Cl1   S    
C16   N1    A    
C30   C35   A    
C10   C11   S    
O3    P3    S    
C39   H11   S    
O20   P1    S    
Ba1   O18   S    
C7    Cl4   S    
C39   O2    S    
C11   H30   S    
C11   C13   D    
O30   H45   S    
S2    O30   S    
O11   P5    S    
Ba1   P1    S    
C1    C2    S    
Ba1   O12   S    
O23   P3    S    
C20   P8    S    
C37   H5    S    
C1    H20   S    
C2    O21   S    
C9    C15   D    
C26   H39   S    
C16   N4    A    
C26   C29   A    
C21   H33   S    
S3    O31   D    
O21   P6    S    
C9    C10   S    
C2    H1    S    
C8    H26   S    
C34   H43   S    
C38   H9    S    
C3    S1    S    
C30   C31   A    
O8    P7    S    
C34   C36   S    
S2    O28   D    
C4    Cl2   S    
Ba1   O22   S    
O10   P5    D    
C23   H40   S    
Ba2   O14   S    
C34   H42   S    
C38   H8    S    
O17   P8    S    
C26   C28   A    
C1    H12   S    
O2    P2    S    
O1    P1    D    
C12   C23   S    
C5    H22   S    
C5    Cl3   S    
C5    C6    S    
C1    H16   S    
C37   O20   S    
C18   C19   A    
Ba2   O9    S    
C6    H25   S    
C20   C24   A    
O16   P8    D    
C23   H41   S    
C20   C21   A    
C33   P5    S    
O22   P2    D    
Ba1   P2    S    
Ba1   O13   S    
C38   H7    S    
C37   H6    S    
O15   P7    S    
