data_mof_unit_65803.cif
_audit_creation_date              2012-12-10T17:52:49-0500
_audit_creation_method            fapswitch 2.2
_symmetry_space_group_name_H-M    P1
_symmetry_Int_Tables_number       1
_space_group_crystal_system       triclinic
_cell_length_a                    18.740918
_cell_length_b                    18.716238
_cell_length_c                    18.660943
_cell_angle_alpha                 109.413976
_cell_angle_beta                  109.375529
_cell_angle_gamma                 109.588643
_cell_volume                      5040.92266787

loop_
_atom_site_label
_atom_site_type_symbol
_atom_type_description
_atom_site_fract_x
_atom_site_fract_y
_atom_site_fract_z
_atom_type_partial_charge
C1    C     C_R   0.120369 0.120253 0.500071 0.849316
C2    C     C_R   0.264136 0.088557 0.759611 0.102125
C3    C     C_R   0.192540 0.007298 0.687252 -0.105753
C4    C     C_R   0.183587 0.928177 0.681125 -0.206581
C5    C     C_R   0.244575 0.928171 0.747068 -0.206620
C6    C     C_R   0.314718 0.007286 0.820078 -0.105718
C7    C     C_R   0.180483 0.176507 0.420378 -0.181636
C8    C     C_R   0.243766 0.241137 0.420355 -0.186332
C9    C     C_R   0.313991 0.313618 0.500192 -0.008287
C10   C     C_R   0.321004 0.322852 0.580020 -0.182650
C11   C     C_R   0.256272 0.259596 0.579962 -0.185894
C12   C     C_R   0.122749 0.002834 0.620257 0.869912
C13   C     C_R   0.186676 0.186374 0.500155 -0.005948
C14   C     C_R   0.742426 0.920084 0.241569 -0.185178
C15   C     C_R   0.677692 0.920106 0.178460 -0.185107
C16   C     C_R   0.686195 0.999844 0.186424 -0.010255
C17   C     C_R   0.758100 0.079540 0.257540 -0.184044
C18   C     C_R   0.821440 0.079517 0.322017 -0.183981
C19   C     C_R   0.813637 0.999799 0.313386 -0.010290
C20   C     C_R   0.821196 0.741729 0.499169 -0.184001
C21   C     C_R   0.757814 0.678386 0.500379 -0.185105
C22   C     C_R   0.686115 0.686314 0.499706 -0.009953
C23   C     C_R   0.879752 0.879778 0.500029 0.864102
C24   C     C_R   0.677759 0.757553 0.499103 -0.184146
C25   C     C_R   0.742505 0.822261 0.500610 -0.184747
C26   C     C_R   0.813559 0.813679 0.499994 -0.009424
C27   C     C_R   0.500091 0.879854 0.879833 0.864098
C28   C     C_R   0.380059 0.002822 0.882594 0.869872
C29   C     C_R   0.499823 0.120267 0.120184 0.849188
C30   C     C_R   0.620187 0.999970 0.120302 0.859778
C31   C     C_R   0.500075 0.620281 0.620410 0.858793
C32   C     C_R   0.379895 0.379842 0.500152 0.858208
C33   C     C_R   0.499868 0.379853 0.379773 0.858136
C34   C     C_R   0.879726 0.999889 0.379644 0.859818
C35   C     C_R   0.620133 0.620293 0.499965 0.858768
C36   C     C_R   0.579777 0.822313 0.821690 -0.184858
C37   C     C_R   0.579775 0.757569 0.758491 -0.184139
C38   C     C_R   0.500157 0.686332 0.686686 -0.009892
C39   C     C_R   0.420553 0.678447 0.678108 -0.185188
C40   C     C_R   0.420553 0.741825 0.742654 -0.183962
C41   C     C_R   0.500160 0.813764 0.813751 -0.009339
C42   C     C_R   0.503242 0.259622 0.179678 -0.185830
C43   C     C_R   0.501762 0.322869 0.242889 -0.182562
C44   C     C_R   0.499547 0.313626 0.313484 -0.008424
C45   C     C_R   0.277883 0.169436 0.764117 -0.175816
C46   C     C_R   0.497299 0.241131 0.320815 -0.186279
C47   C     C_R   0.495950 0.176507 0.256145 -0.181535
C48   C     C_R   0.499621 0.186385 0.186236 -0.006074
C49   C     C_R   0.346273 0.248402 0.838699 -0.138524
C50   C     C_R   0.401996 0.248391 0.909831 -0.138530
C51   C     C_R   0.391448 0.169416 0.905410 -0.175794
C52   C     C_R   0.324351 0.088549 0.829011 0.102139
H1    H     H_    0.128409 0.866127 0.625581 0.155649
H2    H     H_    0.260993 0.267024 0.641732 0.132715
H3    H     H_    0.736430 0.858392 0.235344 0.143728
H4    H     H_    0.622004 0.858431 0.122966 0.143725
H5    H     H_    0.764281 0.141250 0.263633 0.144401
H6    H     H_    0.876953 0.141211 0.377666 0.144418
H7    H     H_    0.876628 0.735546 0.499040 0.140714
H8    H     H_    0.763818 0.622804 0.500486 0.143796
H9    H     H_    0.622196 0.763593 0.498976 0.145326
H10   H     H_    0.736684 0.878015 0.500835 0.144881
H11   H     H_    0.641365 0.878061 0.877200 0.144878
H12   H     H_    0.236983 0.172693 0.710108 0.143131
H13   H     H_    0.641360 0.763575 0.764633 0.145333
H14   H     H_    0.358952 0.622869 0.622442 0.143800
H15   H     H_    0.358955 0.735673 0.736626 0.140727
H16   H     H_    0.505949 0.267069 0.125343 0.132690
H17   H     H_    0.503913 0.379480 0.237767 0.141352
H18   H     H_    0.495261 0.234167 0.375596 0.144335
H19   H     H_    0.493586 0.119835 0.261248 0.145959
H20   H     H_    0.355617 0.309783 0.841526 0.132734
H21   H     H_    0.435596 0.172653 0.962667 0.143121
H22   H     H_    0.237724 0.866119 0.740541 0.155630
H23   H     H_    0.126185 0.119840 0.358599 0.145973
H24   H     H_    0.238863 0.234190 0.358621 0.144356
H25   H     H_    0.375454 0.379459 0.641757 0.141377
O1    O     O_R   0.091590 0.143330 0.551700 -0.632005
O2    O     O_R   0.551760 0.960180 0.908450 -0.617203
O3    O     O_R   0.356660 0.948290 0.908410 -0.620033
O4    O     O_R   0.460090 0.051750 0.908420 -0.623110
O5    O     O_R   0.448250 0.039900 0.091630 -0.619582
O6    O     O_R   0.551680 0.143360 0.091630 -0.631944
O7    O     O_R   0.539910 0.948330 0.091670 -0.622495
O8    O     O_R   0.643340 0.051790 0.091670 -0.621950
O9    O     O_R   0.448280 0.591700 0.540000 -0.621998
O10   O     O_R   0.551730 0.591680 0.643420 -0.622872
O11   O     O_R   0.356670 0.408480 0.448390 -0.622132
O12   O     O_R   0.091620 0.039900 0.448280 -0.619623
O13   O     O_R   0.460120 0.408460 0.551810 -0.621745
O14   O     O_R   0.448270 0.408490 0.356760 -0.621709
O15   O     O_R   0.551720 0.408480 0.460170 -0.622103
O16   O     O_R   0.539880 0.591710 0.448370 -0.622853
O17   O     O_R   0.643330 0.591700 0.551790 -0.621994
O18   O     O_R   0.091610 0.051730 0.643330 -0.623128
O19   O     O_R   0.091640 0.948310 0.539920 -0.620024
O20   O     O_R   0.908380 0.960100 0.551720 -0.617187
O21   O     O_R   0.908410 0.856670 0.448300 -0.625422
O22   O     O_R   0.908360 0.051690 0.460080 -0.621976
O23   O     O_R   0.908390 0.948270 0.356670 -0.622503
O24   O     O_R   0.448330 0.856720 0.908450 -0.625449
Zn1   Zn    Zn3+2 0.999980 0.069060 0.569050 0.954294
Zn2   Zn    Zn3+2 0.000020 0.930940 0.430950 0.954294
Zn3   Zn    Zn3+2 0.430940 0.930960 0.000040 0.954289
Zn4   Zn    Zn3+2 0.569060 0.069120 0.000040 0.954324
Zn5   Zn    Zn3+2 0.430920 0.500100 0.431040 0.955252
Zn6   Zn    Zn3+2 0.569080 0.500080 0.569140 0.955254
H26   H     H_    0.454006 0.309763 0.968407 0.132727

loop_
_geom_bond_atom_site_label_1
_geom_bond_atom_site_label_2
_ccdc_geom_bond_type
C42   H16   S    
C24   H9    S    
C6    C28   S    
C4    H1    S    
O1    Zn1   S    
C7    C8    A    
C22   C35   S    
O3    Zn3   S    
C36   C37   A    
O13   Zn6   S    
C29   O6    A    
C27   O2    A    
C33   O14   A    
C38   C39   A    
C16   C30   S    
O21   Zn2   S    
C32   O11   A    
C8    H24   S    
O2    Zn4   S    
C18   C19   A    
C23   C26   S    
C5    H22   S    
C3    C12   S    
C9    C32   S    
C18   H6    S    
C32   O13   A    
C16   C17   A    
C40   H15   S    
C37   H13   S    
C34   O23   A    
C12   O18   A    
C36   H11   S    
C9    C10   A    
O20   Zn1   S    
O18   Zn1   S    
C14   H3    S    
C43   H17   S    
C31   O9    A    
C21   C22   A    
O12   Zn2   S    
C50   H26   S    
C1    O1    A    
O14   Zn5   S    
C36   C41   A    
O9    Zn5   S    
O8    Zn4   S    
C10   H25   S    
C44   C46   A    
C17   C18   A    
C35   O16   A    
C2    C45   A    
O4    Zn4   S    
O17   Zn6   S    
C31   O10   A    
C29   C48   S    
C51   C52   A    
C24   C25   A    
C21   H8    S    
C33   O15   A    
C39   C40   A    
C8    C9    A    
C7    H23   S    
C50   C51   A    
C25   C26   A    
C49   H20   S    
O23   Zn2   S    
O6    Zn4   S    
C30   O8    A    
C43   C44   A    
C37   C38   A    
O16   Zn5   S    
O11   Zn5   S    
C27   C41   S    
O15   Zn6   S    
C47   C48   A    
C45   C49   A    
C23   O21   A    
C34   O22   A    
C42   C48   A    
C20   H7    S    
C47   H19   S    
C11   H2    S    
C2    C52   A    
C40   C41   A    
C23   O20   A    
O24   Zn3   S    
O7    Zn3   S    
C39   H14   S    
C22   C24   A    
C1    C13   S    
C42   C43   A    
C3    C4    A    
C35   O17   A    
C46   C47   A    
C1    O12   A    
C28   O4    A    
C33   C44   S    
C14   C19   A    
C51   H21   S    
C4    C5    A    
C19   C34   S    
C45   H12   S    
C31   C38   S    
C15   H4    S    
C2    C3    A    
C29   O5    A    
C11   C13   A    
C5    C6    A    
C20   C26   A    
C27   O24   A    
C25   H10   S    
C30   O7    A    
C28   O3    A    
C46   H18   S    
C10   C11   A    
C7    C13   A    
O22   Zn1   S    
O10   Zn6   S    
C20   C21   A    
C49   C50   A    
O19   Zn2   S    
O5    Zn3   S    
C14   C15   A    
C12   O19   A    
C6    C52   A    
C15   C16   A    
C17   H5    S    
