data_mof_unit_64183.cif
_audit_creation_date              2012-12-10T18:28:08-0500
_audit_creation_method            fapswitch 2.2
_symmetry_space_group_name_H-M    P1
_symmetry_Int_Tables_number       1
_space_group_crystal_system       triclinic
_cell_length_a                    16.107316
_cell_length_b                    17.354688
_cell_length_c                    23.461234
_cell_angle_alpha                 92.089589
_cell_angle_beta                  92.190031
_cell_angle_gamma                 96.360356
_cell_volume                      6507.69440541

loop_
_atom_site_label
_atom_site_type_symbol
_atom_type_description
_atom_site_fract_x
_atom_site_fract_y
_atom_site_fract_z
_atom_type_partial_charge
C1    C     C_R   0.489339 0.349508 0.499712 0.900391
C2    C     C_R   0.510396 0.650229 0.498941 0.901164
C3    C     C_R   0.539962 0.574658 0.244567 0.256928
C4    C     C_R   0.489883 0.433411 0.759620 0.277266
C5    C     C_R   0.539381 0.571218 0.304215 0.183056
C6    C     C_R   0.489157 0.431558 0.699724 0.160215
C7    C     C_R   0.502223 0.503847 0.329111 -0.249488
C8    C     C_R   0.498298 0.501555 0.670950 -0.249995
C9    C     C_R   0.467684 0.439480 0.294401 0.159590
C10   C     C_R   0.505131 0.573194 0.701795 0.197632
C11   C     C_R   0.468947 0.442974 0.234809 0.271548
C12   C     C_R   0.506705 0.574897 0.761608 0.253265
C13   C     C_R   0.504509 0.510678 0.210037 0.102187
C14   C     C_R   0.499550 0.505059 0.790415 0.096986
C15   C     C_R   0.485539 0.264241 0.495802 -0.149275
C16   C     C_R   0.512293 0.734865 0.495862 -0.137096
C17   C     C_R   0.555138 0.227756 0.515840 0.276402
C18   C     C_R   0.448212 0.765565 0.463535 0.255633
C19   C     C_R   0.558322 0.149426 0.503350 -0.131246
C20   C     C_R   0.439966 0.844338 0.468108 -0.124221
C21   C     C_R   0.492062 0.105543 0.473364 0.040542
C22   C     C_R   0.496107 0.893787 0.502861 0.033809
C23   C     C_R   0.500499 0.500591 0.391346 0.937423
C24   C     C_R   0.499558 0.500064 0.608626 0.934747
C25   C     C_R   0.421157 0.139174 0.456315 -0.107755
C26   C     C_R   0.562109 0.865178 0.532256 -0.100925
C27   C     C_R   0.416545 0.217864 0.467766 0.261969
C28   C     C_R   0.571320 0.786417 0.528730 0.252525
C29   C     C_2   0.494368 0.022437 0.464537 0.164284
C30   C     C_2   0.486033 0.975981 0.509126 0.162480
C31   C     C_R   0.752943 0.454618 0.480568 0.375617
C32   C     C_R   0.243171 0.514289 0.537162 0.337261
C33   C     C_R   0.841235 0.457884 0.486936 0.339337
C34   C     C_R   0.155633 0.504855 0.533228 0.340550
C35   C     C_R   0.885967 0.529094 0.506990 -0.058570
C36   C     C_R   0.114895 0.493669 0.478814 -0.077841
C37   C     C_R   0.841629 0.585149 0.532978 -0.300907
C38   C     C_R   0.162126 0.469415 0.433687 -0.314800
C39   C     C_R   0.755049 0.572248 0.535376 0.070615
C40   C     C_R   0.247808 0.464587 0.442319 0.088345
C41   C     C_2   0.979477 0.544182 0.505091 0.433653
C42   C     C_2   0.024107 0.504102 0.468080 0.365088
C43   C     C_R   0.574623 0.500074 0.881089 0.686438
C44   C     C_R   0.434924 0.531510 0.119834 0.688287
C45   C     C_R   0.430212 0.519028 0.878807 0.650488
C46   C     C_R   0.575402 0.500214 0.121899 0.650697
C47   C     C_R   0.431586 0.528558 0.938693 -0.159132
C48   C     C_R   0.579034 0.506313 0.062346 -0.158176
C49   C     C_R   0.505345 0.516884 0.970311 -0.097896
C50   C     C_R   0.505523 0.518739 0.030727 -0.098824
C51   C     C_R   0.578302 0.501977 0.941487 -0.139691
C52   C     C_R   0.431860 0.531453 0.059499 -0.138072
C53   C     C_R   0.360862 0.548412 0.967569 0.420900
C54   C     C_R   0.653669 0.498689 0.033715 0.420605
C55   C     C_R   0.358829 0.544389 0.027038 0.228845
C56   C     C_R   0.651975 0.491044 0.974002 0.227171
Cu1   Cu    Cu3+1 0.415410 0.495980 0.497100 1.068750
Cu2   Cu    Cu3+1 0.584590 0.504020 0.502900 1.072762
H1    H     H_    0.368782 0.103725 0.434808 0.189812
H2    H     H_    0.606294 0.904367 0.558426 0.196932
H3    H     H_    0.389485 0.867169 0.444630 0.185984
H4    H     H_    0.611775 0.121879 0.518434 0.182127
H5    H     H_    0.282218 0.444193 0.407281 0.197216
H6    H     H_    0.722034 0.613574 0.557823 0.205307
H7    H     H_    0.873493 0.638137 0.552699 0.206931
H8    H     H_    0.133515 0.454211 0.391746 0.205540
N1    N     N_R   0.501302 0.507239 0.851707 -0.438849
N2    N     N_R   0.504989 0.514300 0.148996 -0.438136
N3    N     N_R   0.711660 0.510070 0.507250 -0.217382
N4    N     N_R   0.288340 0.489930 0.492750 -0.224110
O1    O     O_R   0.420280 0.382610 0.497280 -0.548660
O2    O     O_R   0.579720 0.617390 0.502720 -0.566224
O3    O     O_R   0.563150 0.389410 0.502170 -0.525899
O4    O     O_R   0.436850 0.610590 0.497830 -0.539326
O5    O     O_R   0.428550 0.496580 0.415430 -0.577445
O6    O     O_R   0.571450 0.503420 0.584570 -0.560159
O7    O     O_R   0.571420 0.503370 0.420330 -0.538299
O8    O     O_R   0.428580 0.496630 0.579670 -0.541576
O9    O     O_2   0.643176 0.492109 0.851288 -0.442048
O10   O     O_2   0.369368 0.548874 0.149836 -0.445982
O11   O     O_2   0.358443 0.520593 0.847479 -0.465563
O12   O     O_2   0.640912 0.479061 0.152806 -0.472588
O13   O     O_3   0.290770 0.568644 0.938000 -0.529755
C57   C     C_3   0.305990 0.646017 0.920062 0.135821
H9    H     H_    0.267098 0.650226 0.880394 0.212216
H10   H     H_    0.372090 0.662769 0.908829 0.143026
C58   C     C_3   0.280375 0.703843 0.965204 -0.394924
H11   H     H_    0.214385 0.687122 0.975969 0.270599
H12   H     H_    0.320923 0.702847 0.004488 0.239289
C59   C     C_3   0.288824 0.786230 0.943844 -0.790698
H13   H     H_    0.354639 0.804591 0.933535 0.272297
H14   H     H_    0.270222 0.826734 0.977536 0.274597
H15   H     H_    0.247598 0.789475 0.905154 0.266759
O14   O     O_3   0.728938 0.494582 0.063626 -0.528405
C60   C     C_3   0.762525 0.569643 0.084986 0.125477
H16   H     H_    0.799908 0.562167 0.124790 0.202954
H17   H     H_    0.713900 0.607623 0.097090 0.139495
C61   C     C_3   0.820356 0.610209 0.042254 -0.376576
H18   H     H_    0.868732 0.572214 0.030478 0.275457
H19   H     H_    0.783388 0.621320 0.003053 0.236929
C62   C     C_3   0.863417 0.687441 0.067304 -0.813472
H20   H     H_    0.816202 0.726795 0.078744 0.268750
H21   H     H_    0.904460 0.715557 0.035279 0.275419
H22   H     H_    0.902383 0.678011 0.105980 0.262105
Br1   Br    Br    0.693389 0.381982 0.425465 -0.487328
Br2   Br    Br    0.292099 0.575607 0.602204 -0.382209
O15   O     O_3   0.985379 0.473423 0.417167 -0.655888
C63   C     C_3   0.988675 0.530539 0.375352 -0.003892
H23   H     H_    0.012358 0.504572 0.336030 0.198500
H24   H     H_    0.032157 0.584033 0.386986 0.134308
C64   C     C_3   0.900809 0.552504 0.361693 -0.360901
H25   H     H_    0.857214 0.499043 0.351723 0.248562
H26   H     H_    0.878288 0.583475 0.399272 0.210376
C65   C     C_3   0.899984 0.605107 0.311019 -0.794973
H27   H     H_    0.942332 0.659455 0.320404 0.253336
H28   H     H_    0.835588 0.620313 0.302578 0.281035
H29   H     H_    0.920212 0.575020 0.272199 0.259344
O16   O     O_3   0.020131 0.603634 0.540506 -0.560384
C66   C     C_3   0.032695 0.673230 0.510514 0.016015
H30   H     H_    0.012657 0.720469 0.538212 0.194557
H31   H     H_    0.994696 0.672588 0.469585 0.109024
C67   C     C_3   0.125568 0.692865 0.499287 -0.322671
H32   H     H_    0.163288 0.691191 0.539806 0.274733
H33   H     H_    0.145527 0.649513 0.468280 0.212489
C68   C     C_3   0.142819 0.773097 0.474914 -0.809076
H34   H     H_    0.106776 0.775642 0.433829 0.255468
H35   H     H_    0.210497 0.785284 0.467118 0.279831
H36   H     H_    0.125295 0.818328 0.505484 0.262584
O17   O     O_3   0.111347 0.510922 0.582285 -0.540477
C69   C     C_3   0.108373 0.440590 0.611290 0.096555
H37   H     H_    0.102190 0.454831 0.657372 0.206614
H38   H     H_    0.166667 0.411613 0.608156 0.142328
C70   C     C_3   0.032030 0.384962 0.590058 -0.371327
H39   H     H_    0.974601 0.414269 0.594840 0.274271
H40   H     H_    0.037603 0.369013 0.544194 0.230567
C71   C     C_3   0.024127 0.310976 0.623501 -0.789406
H41   H     H_    0.080504 0.280164 0.618747 0.263426
H42   H     H_    0.968456 0.272024 0.606845 0.270643
H43   H     H_    0.016512 0.324934 0.669456 0.271448
O18   O     O_3   0.879282 0.390703 0.495897 -0.616850
C72   C     C_3   0.880970 0.341422 0.446699 0.136063
H44   H     H_    0.947475 0.335839 0.438268 0.190962
H45   H     H_    0.853808 0.363919 0.407180 0.179637
C73   C     C_3   0.840429 0.259962 0.458850 -0.346238
H46   H     H_    0.877838 0.235475 0.493164 0.228580
H47   H     H_    0.776548 0.262544 0.474225 0.281571
C74   C     C_3   0.835599 0.206085 0.405702 -0.804406
H48   H     H_    0.796571 0.228474 0.371345 0.284749
H49   H     H_    0.806797 0.147444 0.416132 0.272070
H50   H     H_    0.899211 0.201241 0.390229 0.257678
Br3   Br    Br    0.251219 0.552503 0.059444 -0.329780
Br4   Br    Br    0.752520 0.460742 0.941136 -0.303843
Br5   Br    Br    0.588129 0.666714 0.209263 -0.390328
Br6   Br    Br    0.476898 0.338709 0.800244 -0.286603
Br7   Br    Br    0.587929 0.659308 0.351488 -0.377868
Br8   Br    Br    0.473784 0.333619 0.657121 -0.346814
Br9   Br    Br    0.422886 0.345247 0.328293 -0.356516
Br10  Br    Br    0.509264 0.668680 0.662232 -0.329941
Br11  Br    Br    0.423626 0.355213 0.186308 -0.300023
Br12  Br    Br    0.519232 0.672306 0.804895 -0.378870
Br13  Br    Br    0.645742 0.278281 0.564432 -0.392796
Br14  Br    Br    0.370962 0.704396 0.410546 -0.438550
Br15  Br    Br    0.664092 0.755367 0.572099 -0.442248
Br16  Br    Br    0.313006 0.255219 0.444136 -0.416855
Br17  Br    Br    0.463212 0.014349 0.584490 -0.388541
Br18  Br    Br    0.519379 0.986043 0.389313 -0.398226

loop_
_geom_bond_atom_site_label_1
_geom_bond_atom_site_label_2
_ccdc_geom_bond_type
C16   C28   A    
C17   Br13  S    
C4    Br6   S    
C58   H11   S    
C62   H20   S    
C18   Br14  S    
C41   C42   D    
C53   C55   A    
C36   C42   S    
C60   H16   S    
C57   C58   S    
Cu2   O2    S    
C65   H27   S    
C59   H13   S    
C60   C61   S    
C11   Br11  S    
C47   C49   A    
C48   C54   A    
C39   H6    S    
C1    O1    A    
C40   H5    S    
C40   N4    A    
C35   C37   A    
C57   H10   S    
C73   C74   S    
C19   H4    S    
C43   O9    S    
C3    Br5   S    
C63   H23   S    
C7    C9    A    
C51   C56   A    
C20   H3    S    
O16   C66   S    
C74   H48   S    
C33   C35   A    
C46   O12   S    
C59   H14   S    
C64   H25   S    
C34   O17   S    
C49   C51   A    
C37   H7    S    
C45   N1    A    
C68   H36   S    
C50   C52   A    
O15   C63   S    
C31   C33   A    
C1    C15   S    
C41   O16   S    
C56   Br4   S    
C2    C16   S    
C42   O15   S    
C10   Br10  S    
C18   C20   A    
C3    C13   A    
C52   C55   A    
C47   C53   A    
C44   C52   A    
C45   C47   A    
C62   H21   S    
C32   Br2   S    
C31   Br1   S    
C71   H43   S    
C2    O2    A    
C46   C48   A    
C66   H31   S    
C54   C56   A    
Cu2   O6    S    
C38   H8    S    
C44   O10   S    
C74   H50   S    
C57   H9    S    
C71   H42   S    
C72   C73   S    
C23   O5    A    
C5    C7    A    
C24   O6    A    
C32   N4    A    
C3    C5    A    
C5    Br7   S    
C21   C29   S    
Cu1   O1    S    
C65   H28   S    
C32   C34   A    
C29   Br18  S    
C69   H38   S    
C46   N2    A    
C29   C30   D    
C27   Br16  S    
C70   C71   S    
C73   H47   S    
C15   C27   A    
O13   C57   S    
C9    Br9   S    
C14   N1    S    
C39   N3    A    
C64   H26   S    
C16   C18   A    
O18   C72   S    
C48   C50   A    
C9    C11   A    
C10   C12   A    
C4    C6    A    
Cu2   O7    S    
C12   C14   A    
C49   C50   A    
C62   H22   S    
C61   H19   S    
C58   H12   S    
C70   H39   S    
Cu1   N4    S    
C44   N2    A    
C69   C70   S    
C67   H33   S    
C59   H15   S    
C70   H40   S    
O17   C69   S    
C66   C67   S    
C24   O8    A    
C15   C17   A    
C21   C25   A    
C23   O7    A    
C22   C30   S    
C74   H49   S    
Cu1   O8    S    
C8    C10   A    
C45   O11   S    
C30   Br17  S    
C20   C22   A    
C73   H46   S    
C12   Br12  S    
C2    O4    A    
C6    C8    A    
C66   H30   S    
C60   H17   S    
Cu2   N3    S    
C55   Br3   S    
C25   C27   A    
C61   C62   S    
C25   H1    S    
C26   C28   A    
C63   C64   S    
C53   O13   S    
C1    O3    A    
Cu1   O5    S    
C67   C68   S    
C72   H45   S    
C69   H37   S    
C37   C39   A    
C72   H44   S    
C38   C40   A    
C11   C13   A    
C43   C51   A    
Cu1   Cu2   S    
C68   H34   S    
C7    C23   S    
C36   C38   A    
C8    C24   S    
C63   H24   S    
C64   C65   S    
C34   C36   A    
C4    C14   A    
O14   C60   S    
C35   C41   S    
C54   O14   S    
C65   H29   S    
C17   C19   A    
C31   N3    A    
Cu2   O3    S    
C43   N1    A    
C61   H18   S    
C22   C26   A    
C58   C59   S    
C68   H35   S    
C71   H41   S    
C33   O18   S    
C67   H32   S    
C26   H2    S    
C13   N2    S    
C6    Br8   S    
C28   Br15  S    
C19   C21   A    
Cu1   O4    S    
