data_mof_unit_29654.cif
_audit_creation_date              2012-12-10T17:42:10-0500
_audit_creation_method            fapswitch 2.2
_symmetry_space_group_name_H-M    P1
_symmetry_Int_Tables_number       1
_space_group_crystal_system       triclinic
_cell_length_a                    15.115465
_cell_length_b                    13.69218
_cell_length_c                    10.733844
_cell_angle_alpha                 90.039019
_cell_angle_beta                  89.598418
_cell_angle_gamma                 90.043749
_cell_volume                      2221.46000078

loop_
_atom_site_label
_atom_site_type_symbol
_atom_type_description
_atom_site_fract_x
_atom_site_fract_y
_atom_site_fract_z
_atom_type_partial_charge
C1    C     C_R   0.328331 0.500030 0.500824 0.891169
C2    C     C_3   0.586784 0.455443 0.927151 -0.371234
C3    C     C_R   0.813644 0.422274 0.447198 -0.253261
C4    C     C_R   0.767169 0.500170 0.500137 -0.088758
C5    C     C_R   0.812275 0.578368 0.554085 -0.245128
C6    C     C_R   0.904687 0.578698 0.558419 0.074860
C7    C     C_R   0.951939 0.500541 0.503139 0.051045
C8    C     C_R   0.905736 0.422538 0.446887 0.134971
C9    C     C_R   0.950724 0.655664 0.615881 0.245802
C10   C     C_R   0.043025 0.655606 0.614382 -0.269429
C11   C     C_R   0.091235 0.579048 0.558394 0.007610
C12   C     C_R   0.499890 0.500100 0.259661 0.758455
C13   C     C_R   0.045154 0.500304 0.503510 -0.036356
C14   C     C_R   0.091668 0.421423 0.448319 0.026351
C15   C     C_R   0.043927 0.346206 0.389317 -0.188779
C16   C     C_R   0.952058 0.346394 0.389870 -0.220746
C17   C     C_R   0.184475 0.579031 0.557725 0.159550
C18   C     C_R   0.230897 0.500211 0.502605 -0.169156
C19   C     C_R   0.184823 0.420666 0.450456 0.283758
C20   C     C_R   0.446551 0.793862 0.580423 0.011531
C21   C     C_R   0.445499 0.206177 0.579197 0.030184
C22   C     C_R   0.554331 0.792306 0.418925 0.026318
C23   C     C_R   0.554774 0.207730 0.419568 0.029904
C24   C     C_R   0.557426 0.895869 0.416162 -0.133343
C25   C     C_R   0.556548 0.104208 0.415086 -0.133700
C26   C     C_R   0.671126 0.500024 0.499521 0.811422
C27   C     C_R   0.501573 0.948181 0.498187 0.045686
C28   C     C_R   0.501131 0.051858 0.497652 0.042920
C29   C     C_R   0.445698 0.896686 0.581174 0.027462
C30   C     C_R   0.445020 0.103311 0.580379 0.027759
C31   C     C_R   0.613305 0.948375 0.333011 0.225150
C32   C     C_R   0.612710 0.051816 0.332298 0.226104
C33   C     C_R   0.389852 0.051132 0.662472 -0.207163
C34   C     C_R   0.390208 0.948767 0.662897 -0.209991
C35   C     C_R   0.499582 0.500120 0.740431 0.747725
C36   C     C_3   0.492765 0.606566 0.071549 -0.375365
C37   C     C_3   0.419816 0.441048 0.072989 -0.355197
C38   C     C_3   0.491563 0.606481 0.928982 -0.374195
C39   C     C_3   0.420562 0.439650 0.929327 -0.392662
C40   C     C_3   0.586401 0.454319 0.071042 -0.389073
C41   C     C_3   0.499722 0.500480 0.121859 0.154724
C42   C     C_3   0.499549 0.500468 0.878363 0.163900
Cu1   Cu    Cu3+1 0.499990 0.597420 0.500010 0.936104
Cu2   Cu    Cu3+1 0.499990 0.402580 0.500010 0.948798
H1    H     H_    0.550112 0.650604 0.103994 0.165639
H2    H     H_    0.422400 0.364683 0.108272 0.181587
H3    H     H_    0.075923 0.715833 0.659836 0.153034
H4    H     H_    0.076555 0.286909 0.340912 0.154869
H5    H     H_    0.917147 0.287085 0.344704 0.138243
H6    H     H_    0.404669 0.753446 0.644027 0.142176
H7    H     H_    0.402682 0.246631 0.641896 0.118539
H8    H     H_    0.594610 0.749169 0.356308 0.135591
H9    H     H_    0.597218 0.250881 0.359843 0.130146
H10   H     H_    0.346411 0.089546 0.726501 0.132661
H11   H     H_    0.346956 0.910263 0.727119 0.130708
H12   H     H_    0.431418 0.642100 0.107412 0.170738
H13   H     H_    0.356891 0.473934 0.107411 0.163682
H14   H     H_    0.428975 0.640385 0.896307 0.163125
H15   H     H_    0.357068 0.469388 0.894562 0.144484
H16   H     H_    0.547379 0.652092 0.893671 0.173512
H17   H     H_    0.425502 0.362760 0.896247 0.170523
H18   H     H_    0.644633 0.495578 0.106112 0.151051
H19   H     H_    0.592669 0.377695 0.104461 0.162923
H20   H     H_    0.644394 0.498578 0.892635 0.150570
H21   H     H_    0.594700 0.379510 0.891713 0.172028
H22   H     H_    0.778044 0.362419 0.404159 0.141361
H23   H     H_    0.774726 0.638177 0.594078 0.190402
N1    N     N_R   0.499930 0.743810 0.499950 -0.183648
N2    N     N_R   0.499930 0.256190 0.499950 -0.181003
O1    O     O_R   0.370250 0.582280 0.500040 -0.560987
O2    O     O_R   0.370250 0.417720 0.500040 -0.539990
O3    O     O_R   0.499970 0.582270 0.317700 -0.598145
O4    O     O_R   0.499970 0.417730 0.317700 -0.587282
O5    O     O_R   0.629730 0.582260 0.499980 -0.591313
O6    O     O_R   0.629730 0.417740 0.499980 -0.588175
O7    O     O_R   0.500000 0.582270 0.682320 -0.591079
O8    O     O_R   0.500000 0.417730 0.682320 -0.596275
N3    N     N_2   0.232474 0.656613 0.614963 -0.406602
H24   H     H_    0.212655 0.726110 0.591175 0.245931
C43   C     C_3   0.248430 0.643257 0.746523 -0.711187
H25   H     H_    0.184978 0.638531 0.798993 0.227098
H26   H     H_    0.286908 0.705935 0.783113 0.204191
H27   H     H_    0.287057 0.575574 0.761370 0.219718
O9    O     O_3   0.232458 0.344899 0.397929 -0.721103
H28   H     H_    0.205513 0.282767 0.426395 0.315539
N4    N     N_2   0.671240 0.898897 0.248897 -0.406035
H29   H     H_    0.704995 0.840636 0.286312 0.235624
C44   C     C_3   0.633377 0.878673 0.128246 -0.674009
H30   H     H_    0.575767 0.828801 0.137988 0.202469
H31   H     H_    0.683796 0.843455 0.067444 0.219658
H32   H     H_    0.611819 0.947575 0.083112 0.248851
N5    N     N_2   0.669172 0.101438 0.246343 -0.405746
H33   H     H_    0.640354 0.159047 0.200117 0.229367
C45   C     C_3   0.756315 0.123279 0.293673 -0.679038
H34   H     H_    0.797013 0.157381 0.218962 0.218294
H35   H     H_    0.789727 0.055196 0.324150 0.249188
H36   H     H_    0.751661 0.174808 0.373456 0.203873
N6    N     N_2   0.904773 0.733843 0.675306 -0.438938
H37   H     H_    0.936256 0.800430 0.666906 0.250889
C46   C     C_3   0.878970 0.713654 0.802777 -0.712714
H38   H     H_    0.938604 0.704544 0.861660 0.227480
H39   H     H_    0.837970 0.646390 0.808133 0.232455
H40   H     H_    0.839202 0.775500 0.839750 0.229330

loop_
_geom_bond_atom_site_label_1
_geom_bond_atom_site_label_2
_ccdc_geom_bond_type
C9    N6    S    
C27   C29   A    
C23   N2    A    
C24   C27   A    
C5    H23   S    
C2    H21   S    
C6    C9    A    
C7    C8    A    
C25   C28   A    
C1    C18   S    
Cu1   O3    S    
C40   H19   S    
N5    H33   S    
Cu2   O8    S    
C38   C42   S    
C5    C6    A    
N3    C43   S    
C15   C16   A    
C33   H10   S    
C40   H18   S    
Cu2   O2    S    
C17   C18   A    
C18   C19   A    
C35   C42   S    
C17   N3    S    
C20   H6    S    
C38   H14   S    
Cu1   N1    S    
C9    C10   A    
C25   C32   A    
C12   O3    A    
C34   H11   S    
C8    C16   A    
C31   N4    S    
C12   O4    A    
C36   C41   S    
Cu2   O4    S    
C15   H4    S    
C43   H27   S    
C46   H39   S    
C2    H20   S    
C23   H9    S    
C39   C42   S    
C20   C29   A    
C39   H17   S    
C35   O7    A    
Cu2   N2    S    
O9    H28   S    
C43   H26   S    
C3    C8    A    
N3    H24   S    
C43   H25   S    
C45   H36   S    
C29   C34   A    
C35   O8    A    
C46   H40   S    
C21   N2    A    
Cu1   O5    S    
Cu2   O6    S    
Cu1   Cu2   S    
C12   C41   S    
C36   H12   S    
C31   C32   A    
C44   H32   S    
C39   H15   S    
N5    C45   S    
C26   O6    A    
C36   H1    S    
C1    O2    A    
C16   H5    S    
C45   H35   S    
C22   N1    A    
C38   H16   S    
C40   C41   S    
C44   H31   S    
Cu1   O1    S    
N6    C46   S    
C22   C24   A    
C3    H22   S    
C3    C4    A    
C21   H7    S    
C22   H8    S    
Cu1   O7    S    
C11   C17   A    
C30   C33   A    
N4    H29   S    
C14   C19   A    
C20   N1    A    
C4    C5    A    
C4    C26   S    
C6    C7    A    
C21   C30   A    
C1    O1    A    
C36   C38   S    
C24   C31   A    
C37   C39   S    
C11   C13   A    
C32   N5    S    
C2    C42   S    
C28   C30   A    
C46   H38   S    
C26   O5    A    
C33   C34   A    
N4    C44   S    
C23   C25   A    
C37   C41   S    
C45   H34   S    
C10   C11   A    
C2    C40   S    
C7    C13   A    
C44   H30   S    
N6    H37   S    
C10   H3    S    
C14   C15   A    
C37   H2    S    
C13   C14   A    
C37   H13   S    
C19   O9    S    
C27   C28   A    
