data_mof_unit_51218.cif
_audit_creation_date              2012-12-10T21:12:18-0500
_audit_creation_method            fapswitch 2.2
_symmetry_space_group_name_H-M    P1
_symmetry_Int_Tables_number       1
_space_group_crystal_system       triclinic
_cell_length_a                    13.079776
_cell_length_b                    16.749617
_cell_length_c                    17.537928
_cell_angle_alpha                 89.785702
_cell_angle_beta                  89.85643
_cell_angle_gamma                 69.951077
_cell_volume                      3609.36439656

loop_
_atom_site_label
_atom_site_type_symbol
_atom_type_description
_atom_site_fract_x
_atom_site_fract_y
_atom_site_fract_z
_atom_type_partial_charge
C1    C     C_R   0.499380 0.500005 0.646919 0.869811
C2    C     C_R   0.984633 0.459067 0.470158 -0.020028
C3    C     C_R   0.874412 0.477768 0.450946 -0.029170
C4    C     C_R   0.029414 0.524390 0.464629 0.048834
C5    C     C_R   0.972941 0.601215 0.425976 -0.027500
C6    C     C_R   0.870382 0.612788 0.395757 -0.370762
C7    C     C_R   0.821852 0.550318 0.404666 0.480500
C8    C     C_R   0.127883 0.515916 0.499407 -0.237418
C9    C     C_R   0.124075 0.651147 0.448898 -0.301480
C10   C     C_R   0.821648 0.422739 0.479531 -0.185338
C11   C     C_R   0.530107 0.429290 0.149120 -0.213089
C12   C     C_R   0.704326 0.453454 0.493144 0.956261
C13   C     C_R   0.545214 0.425930 0.227794 -0.025169
C14   C     C_R   0.495363 0.500667 0.270811 -0.085761
C15   C     C_R   0.432912 0.576515 0.234728 -0.228206
C16   C     C_R   0.419627 0.578891 0.156416 -0.166199
C17   C     C_R   0.468100 0.505352 0.114273 0.142724
C18   C     C_1   0.460687 0.508667 0.034199 -0.064968
C19   C     C_1   0.460038 0.509645 0.966547 -0.072784
C20   C     C_R   0.468220 0.435468 0.847566 -0.175767
C21   C     C_R   0.480985 0.432029 0.769048 -0.196892
C22   C     C_R   0.491336 0.501899 0.729538 -0.046128
C23   C     C_R   0.500564 0.499848 0.353297 0.884033
C24   C     C_R   0.489252 0.575003 0.769343 -0.198238
C25   C     C_R   0.476456 0.578208 0.847884 -0.174609
C26   C     C_R   0.465680 0.508573 0.886382 0.169794
C27   C     C_R   0.542258 0.153394 0.557102 -0.336665
C28   C     C_R   0.543996 0.237349 0.558588 0.615095
C29   C     C_R   0.455024 0.266112 0.439135 -0.061743
C30   C     C_R   0.453173 0.182483 0.435391 -0.291499
C31   C     C_R   0.497276 0.124841 0.494917 0.100071
C32   C     C_1   0.496052 0.037328 0.493107 -0.027693
C33   C     C_1   0.496243 0.964118 0.493111 -0.022895
C34   C     C_R   0.294952 0.546810 0.500140 0.895865
C35   C     C_R   0.560401 0.818004 0.549281 -0.400326
C36   C     C_R   0.561888 0.732123 0.551339 0.665638
C37   C     C_R   0.438901 0.762682 0.446682 -0.101217
C38   C     C_R   0.436836 0.847135 0.443122 -0.278302
C39   C     C_R   0.497926 0.875772 0.494852 0.117345
C40   C     C_R   0.021670 0.664304 0.417088 0.530007
C41   C     C_R   0.178443 0.575289 0.487256 -0.143057
C42   C     C_R   0.883473 0.340677 0.504272 -0.333701
C43   C     C_R   0.996311 0.315407 0.506955 0.551971
C44   C     C_R   0.046300 0.375407 0.493926 -0.263889
H1    H     H_    0.163353 0.697775 0.439799 0.165729
H2    H     H_    0.392890 0.633610 0.267315 0.143986
H3    H     H_    0.372216 0.637889 0.128738 0.139604
H4    H     H_    0.461220 0.381135 0.878012 0.135862
H5    H     H_    0.482053 0.375135 0.739456 0.197102
H6    H     H_    0.497151 0.629589 0.739944 0.177366
H7    H     H_    0.475902 0.634397 0.878589 0.133751
H8    H     H_    0.575500 0.111034 0.604618 0.151463
H9    H     H_    0.419954 0.309839 0.392992 0.158389
H10   H     H_    0.827300 0.670861 0.365604 0.186940
H11   H     H_    0.417218 0.163195 0.386373 0.145411
H12   H     H_    0.606196 0.841512 0.588950 0.147722
H13   H     H_    0.391229 0.741307 0.406510 0.135902
H14   H     H_    0.387474 0.889830 0.400337 0.147919
H15   H     H_    0.168924 0.461670 0.535007 0.166321
H16   H     H_    0.844586 0.296488 0.522637 0.153339
H17   H     H_    0.133751 0.354042 0.499754 0.153280
H18   H     H_    0.568566 0.373160 0.114808 0.138725
N1    N     N_R   0.499970 0.292770 0.499970 -0.123493
N2    N     N_R   0.499980 0.707230 0.499990 -0.107042
O1    O     O_R   0.500000 0.433430 0.610870 -0.581472
O2    O     O_R   0.500010 0.566520 0.610900 -0.579737
O3    O     O_R   0.653610 0.400420 0.499960 -0.638993
O4    O     O_R   0.653620 0.533500 0.499990 -0.534760
O5    O     O_R   0.499990 0.433480 0.389100 -0.620541
O6    O     O_R   0.500000 0.566570 0.389130 -0.607354
O7    O     O_R   0.346380 0.466500 0.500010 -0.618130
O8    O     O_R   0.346390 0.599580 0.500040 -0.626798
Zn1   Zn    Zn3+2 0.500000 0.411140 0.499980 0.965014
Zn2   Zn    Zn3+2 0.500000 0.588860 0.500020 0.996681
C45   C     C_R   0.614117 0.344490 0.262844 0.132284
C46   C     C_R   0.585349 0.271405 0.255412 -0.165076
C47   C     C_R   0.648318 0.195129 0.290127 -0.130962
C48   C     C_R   0.740853 0.191023 0.331875 -0.121420
C49   C     C_R   0.770944 0.263052 0.338598 -0.136457
C50   C     C_R   0.707911 0.339582 0.304394 -0.118103
H19   H     H_    0.513239 0.273908 0.223853 0.122196
H20   H     H_    0.625049 0.139292 0.284965 0.131420
H21   H     H_    0.789380 0.131995 0.358820 0.135639
H22   H     H_    0.843206 0.259549 0.370224 0.131798
H23   H     H_    0.732037 0.394849 0.310558 0.116236
O9    O     O_3   0.584117 0.264950 0.622009 -0.650352
C51   C     C_3   0.698728 0.240513 0.617280 0.098756
H24   H     H_    0.719917 0.299037 0.622359 0.176740
H25   H     H_    0.734739 0.208931 0.562573 0.101649
C52   C     C_3   0.750499 0.182068 0.684201 -0.389566
H26   H     H_    0.717882 0.214839 0.738641 0.233944
H27   H     H_    0.729563 0.123263 0.680917 0.217402
C53   C     C_3   0.874079 0.157991 0.683589 -0.918405
H28   H     H_    0.908522 0.122313 0.630892 0.262246
H29   H     H_    0.909173 0.117005 0.733598 0.263252
H30   H     H_    0.897192 0.215847 0.686532 0.276106
O10   O     O_3   0.618749 0.671498 0.605082 -0.630361
C54   C     C_3   0.705662 0.687296 0.642363 0.021641
H31   H     H_    0.733782 0.638921 0.688349 0.174997
H32   H     H_    0.679395 0.748941 0.672840 0.125071
C55   C     C_3   0.802467 0.675416 0.588541 -0.345992
H33   H     H_    0.829259 0.609918 0.565323 0.239941
H34   H     H_    0.778567 0.720876 0.540113 0.225983
C56   C     C_3   0.897688 0.688485 0.630209 -0.925598
H35   H     H_    0.873047 0.753906 0.653619 0.260683
H36   H     H_    0.966275 0.679405 0.589894 0.278219
H37   H     H_    0.925917 0.641745 0.677437 0.260346
O11   O     O_3   0.970393 0.738902 0.377412 -0.654387
C57   C     C_3   0.992220 0.725437 0.298365 0.063177
H38   H     H_    0.921682 0.770003 0.267203 0.169024
H39   H     H_    0.999213 0.660234 0.279236 0.121359
C58   C     C_3   0.094787 0.744800 0.275936 -0.357328
H40   H     H_    0.087702 0.809196 0.296448 0.233290
H41   H     H_    0.167491 0.697642 0.302659 0.205596
C59   C     C_3   0.111442 0.740934 0.189714 -0.962816
H42   H     H_    0.121203 0.676387 0.168306 0.267034
H43   H     H_    0.186092 0.755305 0.175489 0.259266
H44   H     H_    0.040979 0.788398 0.160898 0.264893
O12   O     O_3   0.057645 0.234073 0.529694 -0.645681
C60   C     C_3   0.080605 0.179093 0.465846 0.078552
H45   H     H_    0.169727 0.143920 0.464948 0.167379
H46   H     H_    0.059942 0.212152 0.409437 0.111701
C61   C     C_3   0.021521 0.114946 0.474329 -0.346367
H47   H     H_    0.048641 0.077787 0.527688 0.234113
H48   H     H_    0.932377 0.149119 0.478105 0.204739
C62   C     C_3   0.044828 0.053894 0.406947 -0.974929
H49   H     H_    0.016357 0.089511 0.353021 0.261760
H50   H     H_    0.001118 0.008150 0.415027 0.271778
H51   H     H_    0.133456 0.017768 0.402726 0.265006
O13   O     O_3   0.723074 0.559292 0.369721 -0.635866
C63   C     C_3   0.721294 0.581327 0.291383 0.061952
H52   H     H_    0.694772 0.535354 0.258641 0.156302
H53   H     H_    0.802212 0.576443 0.267215 0.116043
C64   C     C_3   0.638270 0.670433 0.278095 -0.306764
H54   H     H_    0.557124 0.672765 0.298798 0.238978
H55   H     H_    0.661237 0.718377 0.310619 0.209494
C65   C     C_3   0.630089 0.694212 0.193725 -0.983260
H56   H     H_    0.709595 0.695469 0.172461 0.261422
H57   H     H_    0.567918 0.758261 0.185794 0.263554
H58   H     H_    0.605692 0.647738 0.159931 0.277088

loop_
_geom_bond_atom_site_label_1
_geom_bond_atom_site_label_2
_ccdc_geom_bond_type
C51   H24   S    
C29   N1    A    
C9    H1    S    
C53   H28   S    
C10   C42   A    
C23   O5    A    
C2    C4    A    
C35   C36   A    
C4    C8    A    
C11   H18   S    
C64   C65   S    
C56   H36   S    
O10   C54   S    
C61   H47   S    
C47   C48   A    
C60   H45   S    
C12   O4    A    
C50   H23   S    
C29   H9    S    
C37   C38   A    
C3    C7    A    
C57   H39   S    
C8    H15   S    
C5    C6    A    
C61   H48   S    
O4    Zn2   S    
C59   H42   S    
O2    Zn2   S    
O1    Zn1   S    
O11   C57   S    
C18   C19   T    
C19   C26   S    
C56   H35   S    
C7    O13   S    
C38   H14   S    
C48   H21   S    
C13   C45   S    
C2    C44   A    
C16   C17   A    
C59   H43   S    
O6    Zn2   S    
C1    O1    A    
C24   C25   A    
O5    Zn1   S    
C36   O10   S    
O3    Zn1   S    
C45   C50   A    
C60   C61   S    
C40   O11   S    
C63   C64   S    
C1    C22   S    
C53   H29   S    
C13   C14   A    
C49   H22   S    
C23   O6    A    
C34   C41   S    
C6    H10   S    
C16   H3    S    
C58   H41   S    
C58   H40   S    
C12   O3    A    
C60   H46   S    
C17   C18   S    
C24   H6    S    
C65   H58   S    
C27   C31   A    
C55   H33   S    
C46   C47   A    
O8    Zn2   S    
C57   C58   S    
C42   H16   S    
O7    Zn1   S    
C48   C49   A    
C61   C62   S    
C64   H55   S    
N1    Zn1   S    
C62   H51   S    
C25   C26   A    
C9    C40   A    
C14   C23   S    
C35   C39   A    
C45   C46   A    
C25   H7    S    
C29   C30   A    
C65   H57   S    
C52   H27   S    
C31   C32   S    
C30   C31   A    
C59   H44   S    
C1    O2    A    
C33   C39   S    
C8    C41   A    
C20   H4    S    
C10   C12   S    
C21   H5    S    
C55   C56   S    
C54   H32   S    
C51   H25   S    
C43   C44   A    
C28   O9    S    
C22   C24   A    
C5    C40   A    
C42   C43   A    
C63   H52   S    
C34   O8    A    
C37   N2    A    
C27   H8    S    
C52   C53   S    
C65   H56   S    
C11   C17   A    
C62   H50   S    
C35   H12   S    
O9    C51   S    
C4    C5    A    
C63   H53   S    
C46   H19   S    
O12   C60   S    
C6    C7    A    
C44   H17   S    
C53   H30   S    
C54   C55   S    
C30   H11   S    
C64   H54   S    
C9    C41   A    
C32   C33   T    
C2    C3    A    
C3    C10   A    
C36   N2    A    
C57   H38   S    
C11   C13   A    
C52   H26   S    
C38   C39   A    
C20   C26   A    
C47   H20   S    
C62   H49   S    
O13   C63   S    
C58   C59   S    
C49   C50   A    
C28   N1    A    
C20   C21   A    
C55   H34   S    
C54   H31   S    
C51   C52   S    
C27   C28   A    
N2    Zn2   S    
C14   C15   A    
C15   H2    S    
C21   C22   A    
C34   O7    A    
C56   H37   S    
C37   H13   S    
C15   C16   A    
C43   O12   S    
