data_mof_unit_36008.cif
_audit_creation_date              2012-12-11T16:20:10-0500
_audit_creation_method            fapswitch 2.2
_symmetry_space_group_name_H-M    P1
_symmetry_Int_Tables_number       1
_space_group_crystal_system       triclinic
_cell_length_a                    13.519182
_cell_length_b                    14.031214
_cell_length_c                    30.037507
_cell_angle_alpha                 97.451333
_cell_angle_beta                  90.221302
_cell_angle_gamma                 118.838014
_cell_volume                      4934.58764951

loop_
_atom_site_label
_atom_site_type_symbol
_atom_type_description
_atom_site_fract_x
_atom_site_fract_y
_atom_site_fract_z
_atom_type_partial_charge
C1    C     C_R   0.721579 0.099466 0.568583 0.540156
C2    C     C_1   0.307347 0.583742 0.749689 0.027120
C3    C     C_3   0.065117 0.164454 0.618693 -0.330311
C4    C     C_3   0.762891 0.889246 0.684350 -0.028178
C5    C     C_3   0.824836 0.829007 0.665284 -0.327087
C6    C     C_2   0.355324 0.853821 0.197228 0.321503
C7    C     C_2   0.148661 0.666455 0.290651 0.199417
C8    C     C_2   0.521445 0.895126 0.294955 0.224774
C9    C     C_2   0.530166 0.839591 0.201731 0.244022
C10   C     C_2   0.339919 0.483421 0.205020 0.220692
C11   C     C_2   0.149426 0.985332 0.160188 0.228103
C12   C     C_2   0.451198 0.336972 0.418794 0.236854
C13   C     C_1   0.311956 0.592668 0.710283 -0.020494
C14   C     C_2   0.545848 0.315726 0.184354 0.266055
C15   C     C_2   0.866223 0.007622 0.392820 0.241636
C16   C     C_3   0.875408 0.962885 0.089910 -0.005046
C17   C     C_3   0.789829 0.845791 0.096062 -0.363366
C18   C     C_2   0.489162 0.573154 0.803739 0.196286
C19   C     C_R   0.383241 0.787382 0.551064 0.539829
C20   C     C_R   0.287965 0.575114 0.890869 0.008120
C21   C     C_3   0.405297 0.108761 0.725341 0.165156
C22   C     C_3   0.203996 0.078849 0.711143 -0.075109
C23   C     C_3   0.191324 0.089632 0.763372 -0.077733
C24   C     C_1   0.296323 0.198677 0.877500 0.006940
C25   C     C_3   0.331404 0.148231 0.701549 0.045550
C26   C     C_3   0.390600 0.116968 0.776842 -0.165979
C27   C     C_R   0.322547 0.616643 0.664882 0.019371
C28   C     C_3   0.310917 0.164814 0.789164 0.036209
C29   C     C_3   0.362294 0.279592 0.773579 -0.259210
C30   C     C_3   0.372721 0.269699 0.722138 -0.279051
C31   C     C_R   0.397711 0.118399 0.569421 0.545024
C32   C     C_1   0.303662 0.179579 0.837976 -0.016260
C33   C     C_1   0.347150 0.142506 0.652946 -0.004309
C34   C     C_1   0.366152 0.134466 0.613952 0.019874
C35   C     C_3   0.760235 0.227045 0.726504 0.123572
C36   C     C_3   0.958773 0.249962 0.716190 0.182995
C37   C     C_3   0.975804 0.261642 0.768479 -0.183329
C38   C     C_R   0.232387 0.616461 0.641736 -0.134584
C39   C     C_1   0.903886 0.208638 0.877815 -0.003437
C40   C     C_3   0.829891 0.176426 0.701354 0.086239
C41   C     C_3   0.776404 0.235156 0.779095 0.165935
C42   C     C_3   0.861544 0.194123 0.789564 -0.005982
C43   C     C_R   0.721249 0.096218 0.442989 0.578329
C44   C     C_3   0.811871 0.072539 0.767593 -0.243357
C45   C     C_3   0.787123 0.060264 0.716085 0.160697
C46   C     C_1   0.880975 0.201556 0.838384 -0.023842
C47   C     C_1   0.805033 0.159584 0.652517 0.015589
C48   C     C_1   0.773751 0.135718 0.613252 -0.015531
C49   C     C_R   0.250506 0.667539 0.603280 -0.110300
C50   C     C_3   0.407577 0.811465 0.270410 -0.078336
C51   C     C_3   0.226798 0.627191 0.269429 -0.079163
C52   C     C_3   0.219796 0.617792 0.217227 -0.225096
C53   C     C_1   0.310363 0.609902 0.110363 0.026052
C54   C     C_3   0.353177 0.698218 0.288851 -0.013133
C55   C     C_R   0.382270 0.784676 0.424924 0.551164
C56   C     C_3   0.409631 0.793507 0.217051 0.007183
C57   C     C_3   0.340763 0.665213 0.199757 -0.041884
C58   C     C_3   0.401667 0.606877 0.219613 -0.086186
C59   C     C_3   0.416476 0.634652 0.271892 -0.264993
C60   C     C_R   0.215604 0.587700 0.818917 -0.150999
C61   C     C_1   0.329076 0.640383 0.150218 -0.034515
C62   C     C_1   0.359666 0.715325 0.338414 -0.053348
C63   C     C_1   0.367455 0.739519 0.378576 0.008023
C64   C     C_R   0.359737 0.129347 0.399197 -0.012262
C65   C     C_R   0.400666 0.234373 0.385642 0.011949
C66   C     C_R   0.392262 0.240671 0.339568 -0.088961
C67   C     C_R   0.395934 0.114793 0.442983 0.525270
C68   C     C_R   0.341812 0.144783 0.308031 0.009008
C69   C     C_R   0.292294 0.041873 0.321885 -0.068506
C70   C     C_R   0.300654 0.034011 0.367118 -0.112163
C71   C     C_R   0.207230 0.584660 0.865045 -0.121093
C72   C     C_R   0.245223 0.084642 0.146013 0.018802
C73   C     C_R   0.233108 0.108912 0.103361 -0.166862
C74   C     C_R   0.422083 0.265822 0.113783 -0.049647
C75   C     C_R   0.436687 0.244091 0.156832 0.033075
C76   C     C_R   0.344833 0.157387 0.173983 0.038910
C77   C     C_1   0.346290 0.153466 0.221397 0.073111
C78   C     C_1   0.344732 0.150852 0.261069 0.041042
C79   C     C_R   0.359153 0.718798 0.587367 0.024686
C80   C     C_R   0.318211 0.202789 0.088195 -0.010129
C81   C     C_R   0.780738 0.136172 0.402546 0.045034
C82   C     C_R   0.380571 0.574503 0.869797 -0.159741
C83   C     C_R   0.831180 0.082288 0.375922 0.009462
C84   C     C_R   0.850258 0.100939 0.331226 -0.135229
C85   C     C_R   0.826111 0.176097 0.314177 0.043001
C86   C     C_R   0.789746 0.238434 0.341842 -0.086521
C87   C     C_R   0.767627 0.219097 0.385704 -0.119869
C88   C     C_R   0.887305 0.300749 0.166774 -0.124583
C89   C     C_R   0.912805 0.309242 0.122178 -0.167364
C90   C     C_R   0.844182 0.111571 0.106635 0.278199
C91   C     C_R   0.447386 0.711747 0.609076 -0.140480
C92   C     C_R   0.816223 0.104031 0.151387 -0.064077
C93   C     C_R   0.390155 0.577367 0.823330 0.024219
C94   C     C_R   0.842918 0.198800 0.181525 -0.001949
C95   C     C_1   0.835851 0.192327 0.228333 -0.005032
C96   C     C_1   0.832429 0.185549 0.267600 -0.002201
C97   C     C_R   0.896244 0.215980 0.092236 0.028963
C98   C     C_R   0.283827 0.232608 0.922786 0.542178
C99   C     C_R   0.263336 0.542214 0.936270 0.545978
C100  C     C_R   0.946838 0.222917 0.923094 0.545077
C101  C     C_R   0.292905 0.242257 0.048925 0.553355
C102  C     C_R   0.275351 0.558807 0.064741 0.556052
C103  C     C_R   0.429310 0.661747 0.647780 -0.117632
C104  C     C_R   0.304629 0.581453 0.797542 0.040460
C105  C     C_R   0.952963 0.232260 0.049984 0.566058
C106  C     C_3   0.455946 0.969526 0.718175 -0.028616
C107  C     C_3   0.396519 0.858991 0.734726 -0.364084
C108  C     C_2   0.150335 0.961368 0.686881 0.245111
C109  C     C_2   0.119468 0.980092 0.779945 0.194313
C110  C     C_3   0.720825 0.355548 0.816885 -0.015417
C111  C     C_3   0.763627 0.472317 0.840822 -0.366144
C112  C     C_3   0.854234 0.421845 0.720950 0.030465
C113  C     C_3   0.903821 0.470779 0.678754 -0.397512
C114  C     C_3   0.071816 0.252022 0.656250 -0.021714
Cr1   Cr    Cr6+3 0.583400 0.162540 0.509180 1.034089
Cr2   Cr    Cr6+3 0.584070 0.916690 0.495550 1.072334
Cr3   Cr    Cr6+3 0.332550 0.920810 0.495240 1.055343
Cr4   Cr    Cr6+3 0.086700 0.177000 0.983690 1.040126
Cr5   Cr    Cr6+3 0.336880 0.419130 0.994740 1.035722
Cr6   Cr    Cr6+3 0.084850 0.422220 0.995960 1.029492
H1    H     H_    0.134166 0.584047 0.879966 0.148075
H2    H     H_    0.308371 0.318144 0.782533 0.139478
H3    H     H_    0.989776 0.334263 0.708422 0.073868
H4    H     H_    0.014787 0.349841 0.783551 0.115751
H5    H     H_    0.036733 0.233787 0.777293 0.136684
H6    H     H_    0.693115 0.013864 0.708752 0.038311
H7    H     H_    0.732186 0.019677 0.782800 0.074459
H8    H     H_    0.149958 0.583289 0.655064 0.099887
H9    H     H_    0.671054 0.162249 0.718106 0.076869
H10   H     H_    0.693996 0.174485 0.790798 0.057006
H11   H     H_    0.872528 0.042730 0.774437 0.164601
H12   H     H_    0.157722 0.116739 0.697105 0.171431
H13   H     H_    0.350774 0.846726 0.279204 0.206571
H14   H     H_    0.195149 0.542590 0.277723 0.082236
H15   H     H_    0.175779 0.660254 0.205348 0.168074
H16   H     H_    0.165861 0.529940 0.202363 0.098141
H17   H     H_    0.508130 0.684663 0.282923 0.110495
H18   H     H_    0.180741 0.671090 0.587227 0.142294
H19   H     H_    0.384837 0.558607 0.287760 0.133954
H20   H     H_    0.487242 0.637905 0.206816 0.154600
H21   H     H_    0.154153 0.057391 0.082897 0.105945
H22   H     H_    0.251946 0.967538 0.297442 0.199211
H23   H     H_    0.142315 0.134151 0.770382 0.094584
H24   H     H_    0.268234 0.952596 0.376343 0.158095
H25   H     H_    0.531991 0.750201 0.597669 0.126453
H26   H     H_    0.489373 0.336186 0.101345 0.186743
H27   H     H_    0.426857 0.319951 0.328029 0.154198
H28   H     H_    0.953410 0.390289 0.112147 0.149280
H29   H     H_    0.907723 0.374416 0.190215 0.138518
H30   H     H_    0.772604 0.297958 0.328807 0.127592
H31   H     H_    0.731999 0.264090 0.405200 0.147985
H32   H     H_    0.779383 0.025134 0.163215 0.155498
H33   H     H_    0.882880 0.056197 0.309521 0.099401
H34   H     H_    0.462581 0.322433 0.715280 0.150384
H35   H     H_    0.443201 0.566543 0.889246 0.116498
H36   H     H_    0.500249 0.664196 0.665843 0.133709
H37   H     H_    0.357407 0.035275 0.787879 0.196488
H38   H     H_    0.521064 0.028341 0.745286 0.079303
H39   H     H_    0.499149 0.962066 0.687605 0.149462
H40   H     H_    0.456661 0.826911 0.737519 0.113363
H41   H     H_    0.365196 0.867440 0.768311 0.152801
H42   H     H_    0.323145 0.800521 0.710887 0.183080
H43   H     H_    0.163369 0.899853 0.700355 0.170284
H44   H     H_    0.031184 0.930782 0.767358 0.105618
H45   H     H_    0.321946 0.301316 0.706347 0.139673
H46   H     H_    0.674013 0.298157 0.841069 0.127238
H47   H     H_    0.662082 0.340639 0.787494 0.147107
H48   H     H_    0.810592 0.532598 0.817846 0.148828
H49   H     H_    0.690845 0.483031 0.851891 0.094373
H50   H     H_    0.820867 0.488506 0.870808 0.166278
H51   H     H_    0.921522 0.425825 0.743293 0.152779
H52   H     H_    0.823987 0.475356 0.739480 0.164312
H53   H     H_    0.838216 0.474559 0.657845 0.175247
H54   H     H_    0.975421 0.555484 0.688411 0.092822
H55   H     H_    0.934597 0.419806 0.658500 0.134289
H56   H     H_    0.447599 0.335351 0.791232 0.128014
H57   H     H_    0.162004 0.314303 0.665484 0.131579
H58   H     H_    0.029526 0.293744 0.641868 0.107885
H59   H     H_    0.977506 0.094068 0.613219 0.205750
H60   H     H_    0.089072 0.200071 0.586955 0.102806
H61   H     H_    0.124192 0.134460 0.626799 0.168003
H62   H     H_    0.692892 0.871149 0.659316 0.123561
H63   H     H_    0.726813 0.857483 0.715970 0.129632
H64   H     H_    0.892616 0.842485 0.690337 0.173711
H65   H     H_    0.764553 0.739400 0.657548 0.096425
H66   H     H_    0.862649 0.859486 0.633847 0.203472
H67   H     H_    0.495489 0.165246 0.719722 0.117916
H68   H     H_    0.287151 0.812072 0.170771 0.117953
H69   H     H_    0.104137 0.631114 0.319341 0.117647
H70   H     H_    0.590730 0.876991 0.296150 0.091455
H71   H     H_    0.591796 0.824953 0.218404 0.066842
H72   H     H_    0.259279 0.431885 0.217928 0.102491
H73   H     H_    0.070932 0.939679 0.138906 0.080357
H74   H     H_    0.443663 0.333357 0.454539 0.127117
H75   H     H_    0.559281 0.299008 0.217454 0.112962
H76   H     H_    0.872134 0.945277 0.369290 0.105044
H77   H     H_    0.933391 0.004753 0.121146 0.092108
H78   H     H_    0.475050 0.170519 0.795389 0.040873
H79   H     H_    0.928920 0.958558 0.062610 0.156407
H80   H     H_    0.735885 0.801055 0.064305 0.173359
H81   H     H_    0.835011 0.801790 0.105064 0.107749
H82   H     H_    0.735047 0.846603 0.123364 0.178778
H83   H     H_    0.550836 0.568860 0.825460 0.091944
H84   H     H_    0.150591 0.592369 0.799581 0.114025
O1    O     O_R   0.494060 0.188820 0.559230 -0.510843
O2    O     O_R   0.170530 0.527770 0.952070 -0.512660
O3    O     O_R   0.987720 0.318450 0.945940 -0.493702
O4    O     O_R   0.678470 0.153390 0.554100 -0.492639
O5    O     O_R   0.976400 0.159230 0.032040 -0.477687
O6    O     O_R   0.193740 0.188470 0.029020 -0.507244
O7    O     O_R   0.364860 0.335530 0.039220 -0.504556
O8    O     O_R   0.330170 0.515340 0.044800 -0.478882
O9    O     O_R   0.177230 0.536000 0.050040 -0.515622
O10   O     O_R   0.993930 0.326080 0.036750 -0.511805
O11   O     O_3   0.169480 0.339450 0.991460 -0.254908
O12   O     O_R   0.480140 0.824500 0.445020 -0.485882
O13   O     O_R   0.697870 0.003940 0.549410 -0.502387
O14   O     O_R   0.480980 0.827230 0.535590 -0.504859
O15   O     O_R   0.309390 0.811640 0.537920 -0.504305
O16   O     O_R   0.341810 0.023400 0.546180 -0.477187
O17   O     O_R   0.493150 0.185870 0.461540 -0.521658
O18   O     O_R   0.677630 0.150660 0.463530 -0.515900
O19   O     O_R   0.696960 0.000990 0.451710 -0.454412
O20   O     O_3   0.374205 0.999311 0.706398 -0.566721
O21   O     O_2   0.092549 0.934893 0.651493 -0.540902
O22   O     O_2   0.157405 0.946103 0.807114 -0.521394
O23   O     O_R   0.308480 0.808690 0.440220 -0.514785
O24   O     O_3   0.813888 0.342534 0.802831 -0.561840
O25   O     O_3   0.759586 0.316181 0.708535 -0.566314
O26   O     O_3   0.022592 0.203161 0.694795 -0.529297
O27   O     O_3   0.839050 0.003696 0.692494 -0.500652
O28   O     O_2   0.391072 0.951887 0.209786 -0.455314
O29   O     O_2   0.137243 0.739305 0.277180 -0.514756
O30   O     O_2   0.535859 0.983574 0.314174 -0.488776
O31   O     O_2   0.559133 0.891455 0.170081 -0.493802
O32   O     O_2   0.380751 0.440474 0.178820 -0.504611
O33   O     O_2   0.157056 0.951264 0.194711 -0.475952
O34   O     O_R   0.340970 0.020670 0.455610 -0.495476
O35   O     O_2   0.500424 0.427219 0.406539 -0.512119
O36   O     O_2   0.622774 0.394109 0.170242 -0.494680
O37   O     O_2   0.895338 0.018893 0.432533 -0.482176
O38   O     O_3   0.817820 0.017519 0.076414 -0.527359
O39   O     O_2   0.503692 0.574057 0.763688 -0.532339
O40   O     O_3   0.500010 0.000010 0.499990 -0.255954
O41   O     O_R   0.969690 0.151000 0.934080 -0.502947
O42   O     O_R   0.187530 0.180840 0.938210 -0.487225
O43   O     O_R   0.358160 0.327300 0.941250 -0.522209
O44   O     O_R   0.323950 0.507710 0.953980 -0.502767

loop_
_geom_bond_atom_site_label_1
_geom_bond_atom_site_label_2
_ccdc_geom_bond_type
C18   O39   D    
C40   C47   S    
C66   C68   A    
C14   H75   S    
Cr2   O40   S    
C44   H7    S    
Cr5   O11   S    
C21   O20   S    
C20   C82   A    
C9    O31   D    
C110  H46   S    
C88   H29   S    
Cr1   O18   S    
C95   C96   T    
C87   H31   S    
C5    H65   S    
C72   C76   A    
C7    O29   D    
C107  H40   S    
C57   C58   S    
Cr4   O41   S    
C38   C49   A    
C73   H21   S    
C77   C78   T    
C101  O7    A    
Cr6   O11   S    
C28   C32   S    
Cr5   O8    S    
C29   C30   S    
C42   C44   S    
C17   H80   S    
Cr4   O5    S    
C24   C98   S    
C28   C29   S    
C10   C58   S    
C98   O42   A    
C89   H28   S    
C6    O28   D    
C69   C70   A    
C86   H30   S    
C41   H10   S    
C4    H62   S    
C51   H14   S    
C112  H51   S    
C108  O21   D    
C59   H17   S    
C27   C38   A    
Cr6   O10   S    
C106  H39   S    
C6    H68   S    
C17   H81   S    
C105  O5    A    
C56   C57   S    
C26   H37   S    
C42   C46   S    
C55   O23   A    
C37   C42   S    
C67   O17   A    
C2    C13   T    
C3    H59   S    
C110  C111  S    
Cr5   O43   S    
C100  O41   A    
C45   H6    S    
C53   C61   T    
C60   H84   S    
C12   O35   D    
C106  O20   S    
C107  H41   S    
C8    H70   S    
C16   C17   S    
C114  H58   S    
C22   C25   S    
C55   C63   S    
C92   H32   S    
C20   C71   A    
C18   H83   S    
C64   C70   A    
C35   H9    S    
C5    H64   S    
C79   C91   A    
Cr2   O12   S    
C113  H55   S    
C97   C105  S    
C41   C42   S    
C41   O24   S    
C44   H11   S    
Cr3   O16   S    
C99   O44   A    
C82   C93   A    
C74   C80   A    
Cr1   O4    S    
C23   H23   S    
C17   H82   S    
C12   H74   S    
C5    H66   S    
C26   H78   S    
C93   C104  A    
C106  H38   S    
C112  C113  S    
C81   C83   A    
C21   C26   S    
Cr1   O17   S    
C21   H67   S    
C37   H5    S    
C54   C59   S    
Cr5   O7    S    
C68   C78   S    
C40   C45   S    
C23   C109  S    
C108  H43   S    
C88   C94   A    
C74   C75   A    
C99   O2    A    
C51   C52   S    
C64   C67   S    
C36   C40   S    
C43   O18   A    
C76   C77   S    
C113  H54   S    
C6    C56   S    
C55   O12   A    
C19   O14   A    
C86   C87   A    
C68   C69   A    
C15   C83   S    
C54   C62   S    
C60   C71   A    
C69   H22   S    
C85   C86   A    
C109  H44   S    
C10   H72   S    
C112  O25   S    
C49   C79   A    
C89   C97   A    
C35   O25   S    
C43   O19   A    
Cr5   O44   S    
C4    O27   S    
C62   C63   T    
C37   H4    S    
C84   H33   S    
C102  O9    A    
C90   C92   A    
C47   C48   T    
C107  H42   S    
C59   H19   S    
C53   C102  S    
C18   C93   S    
C114  H57   S    
C29   H2    S    
C36   H3    S    
C92   C94   A    
C33   C34   T    
C31   C34   S    
C9    C56   S    
C50   C54   S    
C23   C28   S    
C84   C85   A    
C19   C79   S    
C3    H61   S    
C110  H47   S    
C66   H27   S    
Cr4   O11   S    
C16   H79   S    
C39   C46   T    
C15   H76   S    
C49   H18   S    
C36   O26   S    
Cr3   O34   S    
C30   H34   S    
C90   O38   S    
C43   C81   S    
C9    H71   S    
C83   C84   A    
C19   O15   A    
C82   H35   S    
C29   H56   S    
Cr2   O14   S    
C8    C50   S    
C91   H25   S    
C44   C45   S    
C1    O4    A    
C113  H53   S    
C31   O16   A    
C58   H20   S    
C25   C30   S    
C2    C104  S    
C21   C25   S    
Cr3   O23   S    
C75   C76   A    
C105  O10   A    
C90   C97   A    
C22   H12   S    
C11   C72   S    
Cr6   O3    S    
C70   H24   S    
C74   H26   S    
C13   C27   S    
C11   H73   S    
C30   H45   S    
C91   C103  A    
C72   C73   A    
C3    C114  S    
C114  O26   S    
C38   H8    S    
C109  O22   D    
Cr4   O42   S    
C1    C48   S    
C57   C61   S    
C50   H13   S    
C101  O6    A    
C11   O33   D    
C12   C65   S    
C67   O34   A    
C26   C28   S    
C80   C101  S    
Cr4   O6    S    
C51   C54   S    
Cr6   O2    S    
C64   C65   A    
C111  H50   S    
Cr2   O19   S    
Cr1   O1    S    
C35   C40   S    
C58   C59   S    
C7    C51   S    
C98   O43   A    
C110  O24   S    
C14   C75   S    
C14   O36   D    
C81   C87   A    
C102  O8    A    
C39   C100  S    
C112  H52   S    
C20   C99   S    
C22   C108  S    
C27   C103  A    
C85   C96   S    
C73   C80   A    
Cr3   O15   S    
C4    H63   S    
C94   C95   S    
C35   C41   S    
C50   C56   S    
C10   O32   D    
C52   C57   S    
C3    H60   S    
Cr1   O40   S    
Cr2   O13   S    
Cr3   O40   S    
C71   H1    S    
C103  H36   S    
C4    C5    S    
C52   H16   S    
C88   C89   A    
C36   C37   S    
C65   C66   A    
C106  C107  S    
C52   H15   S    
C22   C23   S    
C7    H69   S    
C1    O13   A    
C111  H48   S    
C45   O27   S    
C111  H49   S    
C100  O3    A    
C60   C104  A    
C31   O1    A    
C16   O38   S    
C16   H77   S    
C25   C33   S    
C15   O37   D    
Cr6   O9    S    
C24   C32   T    
C8    O30   D    
