data_mof_unit_58783.cif
_audit_creation_date              2012-12-11T15:19:57-0500
_audit_creation_method            fapswitch 2.2
_symmetry_space_group_name_H-M    P1
_symmetry_Int_Tables_number       1
_space_group_crystal_system       triclinic
_cell_length_a                    16.638046
_cell_length_b                    16.688055
_cell_length_c                    42.837373
_cell_angle_alpha                 90.253297
_cell_angle_beta                  89.768554
_cell_angle_gamma                 120.183003
_cell_volume                      10281.4052894

loop_
_atom_site_label
_atom_site_type_symbol
_atom_type_description
_atom_site_fract_x
_atom_site_fract_y
_atom_site_fract_z
_atom_type_partial_charge
C1    C     C_R   0.582393 0.426963 0.794320 0.573159
C2    C     C_R   0.427039 0.582591 0.205741 0.580733
C3    C     C_R   0.980467 0.557595 0.432981 0.475003
C4    C     C_R   0.566049 0.946828 0.063137 0.458433
C5    C     C_R   0.467694 0.412400 0.430050 0.461379
C6    C     C_R   0.618587 0.107517 0.560146 0.527495
C7    C     C_R   0.900235 0.512680 0.938633 0.522454
C8    C     C_R   0.498378 0.386094 0.560905 0.512656
C9    C     C_R   0.602908 0.018492 0.933668 0.502529
C10   C     C_R   0.980699 0.573491 0.565498 0.469999
C11   C     C_R   0.471188 0.389798 0.937028 0.472283
C12   C     C_R   0.111921 0.566679 0.060466 0.513374
C13   C     C_R   0.417085 0.843930 0.294302 0.584126
C14   C     C_R   0.424040 0.962900 0.434990 0.520999
C15   C     C_R   0.536484 0.571526 0.065779 0.527340
C16   C     C_R   0.040915 0.454517 0.435905 0.496650
C17   C     C_R   0.419638 0.935706 0.063791 0.487252
C18   C     C_R   0.425217 0.528419 0.438635 0.528804
C19   C     C_R   0.469153 0.970740 0.565112 0.492479
C20   C     C_R   0.062126 0.570676 0.929857 0.542957
C21   C     C_R   0.444921 0.493789 0.568808 0.543020
C22   C     C_R   0.443028 0.977212 0.931758 0.512529
C23   C     C_R   0.001532 0.441766 0.566750 0.532807
C24   C     C_R   0.155307 0.572476 0.205774 0.576814
C25   C     C_R   0.566230 0.551678 0.934792 0.514177
C26   C     C_R   0.105629 0.575961 0.027820 0.021385
C27   C     C_R   0.431982 0.975928 0.467534 0.023934
C28   C     C_R   0.553021 0.567768 0.033604 0.025740
C29   C     C_R   0.026644 0.445659 0.468565 0.041699
C30   C     C_R   0.419303 0.938863 0.030384 0.022296
C31   C     C_R   0.421666 0.515036 0.471249 0.017584
C32   C     C_R   0.453590 0.970084 0.532582 0.034973
C33   C     C_R   0.077973 0.569632 0.962301 0.010366
C34   C     C_R   0.441606 0.505211 0.536334 0.025816
C35   C     C_R   0.036658 0.466766 0.128071 0.027692
C36   C     C_R   0.434763 0.968964 0.964698 0.018877
C37   C     C_R   0.020795 0.450017 0.534448 -0.035081
C38   C     C_R   0.559259 0.559926 0.967609 0.011615
C39   C     C_R   0.018178 0.557267 0.015653 -0.061345
C40   C     C_R   0.521234 0.028176 0.480770 -0.056054
C41   C     C_R   0.503194 0.481492 0.018146 -0.060201
C42   C     C_R   0.003049 0.507093 0.483804 -0.047608
C43   C     C_R   0.504462 0.965783 0.014641 -0.067809
C44   C     C_R   0.448390 0.452698 0.483268 -0.065968
C45   C     C_R   0.530624 0.031512 0.513614 -0.063713
C46   C     C_R   0.461454 0.012491 0.361159 0.008529
C47   C     C_R   0.004830 0.554455 0.982976 -0.071499
C48   C     C_R   0.456691 0.446506 0.515978 -0.061199
C49   C     C_R   0.512507 0.980515 0.981952 -0.050949
C50   C     C_R   0.000390 0.509348 0.516827 -0.065335
C51   C     C_R   0.506093 0.477879 0.985115 -0.086893
C52   C     C_R   0.859126 0.529585 0.023676 -0.013630
C53   C     C_R   0.686260 0.144226 0.475203 0.006508
C54   C     C_R   0.402679 0.312524 0.019863 0.011250
C55   C     C_R   0.958473 0.627083 0.481531 0.022360
C56   C     C_R   0.668113 0.006545 0.016985 0.038941
C57   C     C_R   0.547692 0.536560 0.137518 0.003315
C58   C     C_R   0.484289 0.328181 0.475142 0.005594
C59   C     C_R   0.695460 0.149890 0.508085 0.005461
C60   C     C_R   0.846939 0.527962 0.991096 0.030316
C61   C     C_R   0.493044 0.322302 0.507740 0.023256
C62   C     C_R   0.677456 0.023825 0.984544 0.027187
C63   C     C_R   0.959140 0.631550 0.514524 0.029846
C64   C     C_R   0.396755 0.311112 0.986826 0.020410
C65   C     C_R   0.181604 0.598408 0.006889 0.241536
C66   C     C_R   0.353185 0.936297 0.487207 0.266761
C67   C     C_R   0.614595 0.647860 0.016406 0.233178
C68   C     C_R   0.994970 0.459630 0.363586 0.009396
C69   C     C_R   0.043072 0.383661 0.486607 0.250342
C70   C     C_R   0.339517 0.921862 0.012460 0.258471
C71   C     C_R   0.397514 0.565953 0.492189 0.241976
C72   C     C_R   0.363454 0.917824 0.518608 0.257834
C73   C     C_R   0.163336 0.582516 0.974402 0.224762
C74   C     C_R   0.422245 0.572184 0.523758 0.227267
C75   C     C_R   0.351699 0.949707 0.980718 0.231519
C76   C     C_R   0.053397 0.396207 0.519224 0.182038
C77   C     C_R   0.608038 0.646585 0.983543 0.254278
C78   C     C_2   0.765699 0.531983 0.978501 0.328302
C79   C     C_R   0.449744 0.990792 0.132134 0.011229
C80   C     C_2   0.790586 0.204934 0.521561 0.366154
C81   C     C_2   0.315443 0.231810 0.970922 0.364003
C82   C     C_2   0.936327 0.697688 0.530047 0.392339
C83   C     C_2   0.771162 0.061604 0.970049 0.377281
C84   C     C_2   0.506012 0.246259 0.519912 0.367101
C85   C     C_2   0.768721 0.204437 0.455737 0.310504
C86   C     C_2   0.786993 0.529093 0.044523 0.333346
C87   C     C_2   0.490897 0.259796 0.454434 0.373656
C88   C     C_2   0.753135 0.036741 0.036265 0.392018
C89   C     C_2   0.937957 0.690889 0.463554 0.378304
C90   C     C_R   0.531012 0.558494 0.371264 0.009668
C91   C     C_2   0.351318 0.223443 0.037113 0.394120
C92   C     C_2   0.005749 0.380327 0.109536 0.407029
C93   C     C_2   0.438337 0.084863 0.369815 0.367750
C94   C     C_2   0.642390 0.559760 0.127290 0.384046
C95   C     C_2   0.913427 0.371067 0.373937 0.387128
C96   C     C_2   0.426135 0.057690 0.118120 0.417341
C97   C     C_2   0.616947 0.600704 0.390084 0.372635
C98   C     C_2   0.408738 0.082613 0.606769 0.381636
C99   C     C_2   0.952378 0.358226 0.894847 0.382633
C100  C     C_2   0.653550 0.593859 0.604779 0.344193
C101  C     C_R   0.475625 0.069156 0.625929 0.009482
C102  C     C_2   0.459111 0.878707 0.865712 0.382360
C103  C     C_2   0.119344 0.575326 0.632445 0.366493
C104  C     C_2   0.537568 0.628352 0.873890 0.414445
C105  C     C_R   0.844055 0.417062 0.706039 0.601178
C106  C     C_R   0.949992 0.428523 0.873915 0.012864
C107  C     C_R   0.581260 0.521041 0.625467 0.010686
C108  C     C_R   0.506064 0.980441 0.860089 0.016024
C109  C     C_R   0.017449 0.517946 0.638761 0.017197
C110  C     C_R   0.538607 0.543549 0.864603 -0.009480
C111  C     C_R   0.056907 0.468749 0.160372 0.183946
C112  C     C_R   0.446925 0.977683 0.330186 0.168746
C113  C     C_R   0.532339 0.556734 0.168526 0.173824
C114  C     C_R   0.024540 0.476251 0.331856 0.228326
C115  C     C_R   0.423874 0.959459 0.163552 0.180601
C116  C     C_R   0.573174 0.156443 0.794141 0.604388
C117  C     C_R   0.530587 0.584659 0.339750 0.206450
C118  C     C_R   0.471938 0.074378 0.658706 0.169760
C119  C     C_R   0.933348 0.408537 0.841594 0.170045
C120  C     C_R   0.597824 0.524987 0.657987 0.164450
C121  C     C_R   0.515869 0.015320 0.829132 0.182227
C122  C     C_R   0.984129 0.495648 0.670063 0.180939
C123  C     C_R   0.564070 0.534152 0.833480 0.171036
C124  C     C_R   0.105580 0.632558 0.161947 -0.167994
C125  C     C_R   0.489332 0.864191 0.346040 -0.155159
C126  C     C_R   0.370197 0.499483 0.155813 -0.152095
C127  C     C_R   0.582694 0.427068 0.705685 0.569242
C128  C     C_R   0.156185 0.625065 0.347095 -0.175489
C129  C     C_R   0.531370 0.901560 0.162115 -0.165559
C130  C     C_R   0.364462 0.471223 0.337680 -0.160369
C131  C     C_R   0.625475 0.092648 0.662220 -0.138431
C132  C     C_R   0.904136 0.536528 0.836185 -0.162302
C133  C     C_R   0.464268 0.369970 0.663597 -0.150045
C134  C     C_R   0.594653 0.172620 0.850098 -0.152061
C135  C     C_R   0.825030 0.421542 0.650552 -0.160635
C136  C     C_R   0.474459 0.367769 0.839538 -0.139663
C137  C     C_R   0.077495 0.629447 0.131274 0.198400
C138  C     C_R   0.844495 0.417525 0.794315 0.577994
C139  C     C_R   0.511642 0.902843 0.375897 0.221208
C140  C     C_R   0.382924 0.474760 0.125849 0.272072
C141  C     C_R   0.126562 0.611302 0.377907 0.232073
C142  C     C_R   0.564026 0.943761 0.133209 0.232050
C143  C     C_R   0.366065 0.443618 0.368092 0.260215
C144  C     C_R   0.619032 0.063505 0.631178 0.215497
C145  C     C_R   0.935856 0.566398 0.866418 0.208421
C146  C     C_R   0.437566 0.372553 0.632976 0.202314
C147  C     C_R   0.585199 0.139847 0.880420 0.232104
C148  C     C_R   0.856091 0.440107 0.619955 0.216884
C149  C     C_R   0.572490 0.155146 0.705752 0.584587
C150  C     C_R   0.443785 0.379189 0.868625 0.298511
C151  C     C_R   0.050303 0.548740 0.113338 0.184410
C152  C     C_R   0.493965 0.974617 0.384064 0.187847
C153  C     C_R   0.472973 0.497394 0.115875 0.182065
C154  C     C_R   0.045847 0.528094 0.386497 0.138075
C155  C     C_R   0.505356 0.963486 0.114830 0.168638
C156  C     C_R   0.447846 0.491436 0.385634 0.173142
C157  C     C_R   0.547825 0.059153 0.611949 0.172058
C158  C     C_R   0.954565 0.510220 0.886039 0.188168
C159  C     C_R   0.499260 0.444546 0.613140 0.190095
C160  C     C_R   0.427299 0.582810 0.294341 0.574172
C161  C     C_R   0.540626 0.043356 0.885730 0.181450
C162  C     C_R   0.952383 0.487467 0.613743 0.187653
C163  C     C_R   0.496407 0.464514 0.884561 0.174073
C164  C     C_R   0.898345 0.455815 0.823736 -0.033027
C165  C     C_R   0.554327 0.102536 0.675984 -0.037149
C166  C     C_R   0.542272 0.444466 0.822950 -0.054763
C167  C     C_R   0.887028 0.446742 0.675352 -0.018516
C168  C     C_R   0.559917 0.112296 0.824677 -0.024048
C169  C     C_R   0.546541 0.443255 0.676051 -0.042969
C170  C     C_R   0.453546 0.898040 0.323503 -0.040823
C171  C     C_R   0.417578 0.844974 0.205709 0.578455
C172  C     C_R   0.102028 0.555567 0.176252 -0.040180
C173  C     C_R   0.443442 0.545133 0.323727 -0.053796
C174  C     C_R   0.456268 0.902178 0.176819 -0.042761
C175  C     C_R   0.108412 0.558136 0.324292 -0.043028
C176  C     C_R   0.444244 0.544601 0.176690 -0.050838
C177  C     C_R   0.943238 0.539746 0.036089 0.033816
C178  C     C_R   0.599552 0.080559 0.461245 0.059043
C179  C     C_R   0.454858 0.398626 0.035843 0.026364
C180  C     C_R   0.979981 0.564465 0.465995 0.047867
C181  C     C_R   0.580296 0.972738 0.031564 0.031206
C182  C     C_R   0.155918 0.573050 0.294093 0.588409
C183  C     C_R   0.466471 0.396625 0.462637 0.012909
C184  C     C_R   0.616604 0.095635 0.527398 0.039933
C185  C     C_R   0.916781 0.532731 0.970827 0.060058
C186  C     C_R   0.483254 0.384259 0.528277 0.031973
C187  C     C_R   0.598532 0.007234 0.966567 0.032209
C188  C     C_R   0.979697 0.572312 0.532364 0.042746
C189  C     C_R   0.457483 0.391985 0.969559 0.011831
C190  C     C_R   0.955105 0.533163 0.068468 0.518135
C191  C     C_R   0.587382 0.066313 0.428383 0.526980
C192  C     C_R   0.458764 0.406173 0.068994 0.523639
Cr1   Cr    Cr6+3 0.530290 0.262330 0.750000 1.135888
Cr2   Cr    Cr6+3 0.732040 0.469710 0.750000 1.168761
Cr3   Cr    Cr6+3 0.737670 0.267960 0.750000 1.161629
Cr4   Cr    Cr6+3 0.262330 0.530290 0.250000 1.146335
Cr5   Cr    Cr6+3 0.469710 0.732040 0.250000 1.155752
Cr6   Cr    Cr6+3 0.267960 0.737670 0.250000 1.142333
H1    H     H_    0.881475 0.576007 0.822536 0.188732
H2    H     H_    0.570527 0.875737 0.174397 0.168354
H3    H     H_    0.220099 0.687878 0.340984 0.149842
H4    H     H_    0.301834 0.486379 0.162605 0.193828
H5    H     H_    0.329686 0.642876 0.911478 0.414915
H6    H     H_    0.224071 0.705921 0.563802 0.395533
H7    H     H_    0.592599 0.799927 0.925943 0.395304
H8    H     H_    0.217599 0.494163 0.559627 0.381159
H9    H     H_    0.281787 0.059278 0.922663 0.394204
H10   H     H_    0.538989 0.739124 0.585039 0.382685
H11   H     H_    0.222506 0.019035 0.442302 0.382437
H12   H     H_    0.686387 0.107411 0.675702 0.191521
H13   H     H_    0.387019 0.739596 0.057830 0.372565
H14   H     H_    0.251360 0.565668 0.435785 0.412064
H15   H     H_    0.136353 0.898458 0.054262 0.405718
H16   H     H_    0.973810 0.193422 0.429710 0.392199
H17   H     H_    0.795894 0.756334 0.075988 0.388356
H18   H     H_    0.695558 0.482624 0.985922 0.142710
H19   H     H_    0.837295 0.275256 0.513855 0.136339
H20   H     H_    0.316377 0.217513 0.946441 0.213860
H21   H     H_    0.880481 0.672867 0.547079 0.171318
H22   H     H_    0.799191 0.122629 0.955335 0.178897
H23   H     H_    0.441265 0.299153 0.829195 0.188523
H24   H     H_    0.568617 0.261656 0.532532 0.186168
H25   H     H_    0.795511 0.173509 0.439539 0.209863
H26   H     H_    0.807196 0.582025 0.062379 0.210344
H27   H     H_    0.436675 0.220759 0.437466 0.207006
H28   H     H_    0.759147 0.989335 0.051909 0.230105
H29   H     H_    0.986566 0.736222 0.445985 0.202348
H30   H     H_    0.306148 0.216238 0.056534 0.186100
H31   H     H_    0.792698 0.613048 0.877257 0.349199
H32   H     H_    0.607362 0.910709 0.592709 0.352977
H33   H     H_    0.243380 0.154003 0.886355 0.380922
H34   H     H_    0.750905 0.385471 0.655274 0.144024
H35   H     H_    0.788007 0.541925 0.595853 0.332036
H36   H     H_    0.507383 0.187403 0.937331 0.398261
H37   H     H_    0.264523 0.370414 0.619880 0.383501
H38   H     H_    0.699473 0.939805 0.384383 0.368377
H39   H     H_    0.232695 0.790213 0.117483 0.352364
H40   H     H_    0.227395 0.237513 0.414859 0.388206
H41   H     H_    0.707865 0.894155 0.137285 0.352790
H42   H     H_    0.198027 0.813659 0.378381 0.347546
H43   H     H_    0.253901 0.400837 0.052258 0.387670
H44   H     H_    0.909189 0.219525 0.175546 0.410208
H45   H     H_    0.629427 0.246770 0.846088 0.144919
H46   H     H_    0.469186 0.181284 0.289272 0.396854
H47   H     H_    0.734686 0.566002 0.206394 0.397785
H48   H     H_    0.807046 0.308699 0.293468 0.399813
H49   H     H_    0.345859 0.121148 0.187943 0.394414
H50   H     H_    0.785217 0.726656 0.327320 0.395716
H51   H     H_    0.219420 0.933250 0.667714 0.402578
H52   H     H_    0.064223 0.286585 0.833001 0.405641
H53   H     H_    0.721646 0.778322 0.665881 0.405504
H54   H     H_    0.475529 0.812299 0.783992 0.396837
H55   H     H_    0.168437 0.660730 0.721063 0.400303
H56   H     H_    0.420847 0.309729 0.677740 0.210439
H57   H     H_    0.607151 0.755968 0.800080 0.404560
H58   H     H_    0.025421 0.330320 0.116698 0.204020
H59   H     H_    0.383583 0.088896 0.357543 0.172171
H60   H     H_    0.703137 0.619024 0.137248 0.174994
H61   H     H_    0.870398 0.370905 0.393073 0.156165
H62   H     H_    0.360234 0.053402 0.123239 0.202546
H63   H     H_    0.669025 0.580981 0.385962 0.176300
H64   H     H_    0.343612 0.070944 0.616464 0.220797
H65   H     H_    0.931294 0.289461 0.886060 0.189662
H66   H     H_    0.720970 0.643674 0.614134 0.176000
H67   H     H_    0.497447 0.805245 0.340496 0.187098
H68   H     H_    0.405517 0.830506 0.850012 0.191969
H69   H     H_    0.166709 0.618874 0.650481 0.197444
H70   H     H_    0.597451 0.696257 0.869578 0.198146
H71   H     H_    0.133902 0.697888 0.174377 0.199895
H72   H     H_    0.298766 0.437524 0.325419 0.197350
N1    N     N_R   0.039274 0.550619 0.079996 -0.355465
N2    N     N_R   0.527970 0.010122 0.917506 -0.343211
N3    N     N_R   0.982809 0.503686 0.581665 -0.344568
N4    N     N_R   0.506905 0.469714 0.919137 -0.351343
N5    N     N_R   0.501874 0.003329 0.416322 -0.356617
N6    N     N_R   0.490774 0.491283 0.083042 -0.340028
N7    N     N_R   0.019057 0.510699 0.418951 -0.399346
N8    N     N_R   0.498700 0.952301 0.080300 -0.375321
N9    N     N_R   0.445571 0.475880 0.418832 -0.363103
N10   N     N_R   0.547003 0.043637 0.578535 -0.372793
N11   N     N_R   0.972915 0.533063 0.918725 -0.358432
N12   N     N_R   0.478751 0.439957 0.580307 -0.345957
O1    O     O_R   0.509640 0.171340 0.784000 -0.465470
O2    O     O_R   0.171340 0.509640 0.216000 -0.420445
O3    O     O_2   0.964670 0.736080 0.853106 -0.207793
O4    O     O_3   0.837344 0.644033 0.894532 -0.379841
O5    O     O_2   0.723724 0.987000 0.642940 -0.232204
O6    O     O_2   0.790675 0.123670 0.609562 -0.109156
O7    O     O_3   0.665102 0.966742 0.585842 -0.435106
O8    O     O_2   0.295128 0.333545 0.905910 -0.223665
O9    O     O_2   0.267146 0.294925 0.850390 -0.223600
O10   O     O_3   0.311497 0.195530 0.884476 -0.504574
O11   O     O_2   0.797959 0.367897 0.562421 -0.245746
O12   O     O_2   0.678140 0.332858 0.601905 -0.222525
O13   O     O_R   0.490360 0.661700 0.284000 -0.411270
O14   O     O_3   0.764382 0.497851 0.578115 -0.489437
O15   O     O_2   0.726361 0.238522 0.919344 -0.227047
O16   O     O_2   0.641726 0.313311 0.900787 -0.240575
O17   O     O_3   0.564225 0.186136 0.943130 -0.490479
O18   O     O_2   0.339484 0.225510 0.595680 -0.177167
O19   O     O_2   0.270048 0.223628 0.646254 -0.206204
O20   O     O_3   0.270277 0.332451 0.603140 -0.394042
O21   O     O_2   0.516451 0.846227 0.434362 -0.172050
O22   O     O_2   0.545640 0.766509 0.391680 -0.196850
O23   O     O_3   0.674830 0.933620 0.405869 -0.446714
O24   O     O_R   0.338300 0.828660 0.216000 -0.426167
O25   O     O_2   0.049908 0.722871 0.083873 -0.236938
O26   O     O_2   0.024557 0.754682 0.137539 -0.187643
O27   O     O_3   0.193865 0.819603 0.119183 -0.417411
O28   O     O_2   0.229922 0.396541 0.408947 -0.182759
O29   O     O_2   0.188138 0.307139 0.360335 -0.222772
O30   O     O_3   0.282608 0.275235 0.401583 -0.483152
O31   O     O_2   0.715309 0.084814 0.105779 -0.170277
O32   O     O_2   0.727057 0.056458 0.160958 -0.231490
O33   O     O_3   0.731049 0.942231 0.120827 -0.425291
O34   O     O_2   0.178899 0.671999 0.437861 -0.198983
O35   O     O_R   0.539230 0.345420 0.781810 -0.511426
O36   O     O_2   0.296622 0.737898 0.396904 -0.254960
O37   O     O_3   0.170857 0.786581 0.398972 -0.422245
O38   O     O_2   0.244077 0.314510 0.104871 -0.228800
O39   O     O_2   0.211905 0.441199 0.111973 -0.282455
O40   O     O_3   0.309345 0.446790 0.064005 -0.478414
O41   O     O_2   0.092714 0.337237 0.179742 -0.246678
O42   O     O_2   0.996455 0.372351 0.214373 -0.169290
O43   O     O_3   0.920254 0.276586 0.164760 -0.467662
O44   O     O_2   0.483308 0.032017 0.270685 -0.208221
O45   O     O_2   0.332717 0.000249 0.291936 -0.229944
O46   O     O_R   0.806190 0.460770 0.718190 -0.479938
O47   O     O_3   0.481648 0.153589 0.307708 -0.495241
O48   O     O_2   0.679990 0.691854 0.198326 -0.247054
O49   O     O_2   0.574566 0.554789 0.229112 -0.205460
O50   O     O_3   0.685395 0.540077 0.190283 -0.487092
O51   O     O_2   0.972061 0.453297 0.271339 -0.236301
O52   O     O_2   0.976432 0.324810 0.297222 -0.172223
O53   O     O_3   0.840509 0.354206 0.310322 -0.457783
O54   O     O_2   0.257697 0.937856 0.178824 -0.225471
O55   O     O_2   0.374265 0.995848 0.220363 -0.159472
O56   O     O_3   0.391868 0.109313 0.177300 -0.500094
O57   O     O_R   0.654580 0.193810 0.781810 -0.472543
O58   O     O_2   0.637221 0.640382 0.287882 -0.180605
O59   O     O_2   0.644226 0.760950 0.322593 -0.241835
O60   O     O_3   0.731703 0.675853 0.338481 -0.512915
O61   O     O_2   0.363835 0.999279 0.709744 -0.177022
O62   O     O_2   0.343139 0.113144 0.679996 -0.251165
O63   O     O_3   0.277869 0.947481 0.656917 -0.486691
O64   O     O_2   0.884239 0.235796 0.823239 -0.256545
O65   O     O_2   0.998855 0.363325 0.790660 -0.169294
O66   O     O_3   0.054047 0.333925 0.843379 -0.474241
O67   O     O_2   0.640891 0.636860 0.708511 -0.168885
O68   O     O_R   0.539230 0.345420 0.718190 -0.507889
O69   O     O_2   0.770316 0.649010 0.677039 -0.262038
O70   O     O_3   0.674337 0.720588 0.655524 -0.496411
O71   O     O_2   0.370950 0.888790 0.796091 -0.232450
O72   O     O_2   0.511980 0.987116 0.765966 -0.231637
O73   O     O_3   0.509511 0.859166 0.800435 -0.508857
O74   O     O_2   0.016555 0.486999 0.732421 -0.214125
O75   O     O_2   0.133943 0.499887 0.695161 -0.233079
O76   O     O_3   0.118902 0.645283 0.705468 -0.502627
O77   O     O_2   0.714813 0.682432 0.810188 -0.229435
O78   O     O_2   0.585791 0.595213 0.773861 -0.193538
O79   O     O_R   0.806190 0.460770 0.781810 -0.511888
O80   O     O_3   0.569516 0.701646 0.813618 -0.504439
O81   O     O_2   0.957410 0.363070 0.086329 -0.416616
O82   O     O_2   0.480636 0.141413 0.390335 -0.426597
O83   O     O_2   0.653690 0.512374 0.107943 -0.398527
O84   O     O_2   0.896622 0.297072 0.362545 -0.364837
O85   O     O_2   0.479882 0.117367 0.100118 -0.400577
O86   O     O_2   0.628739 0.655672 0.410908 -0.376123
O87   O     O_2   0.428091 0.112998 0.580275 -0.421632
O88   O     O_2   0.974408 0.373772 0.922269 -0.452004
O89   O     O_2   0.641488 0.597907 0.576905 -0.437845
O90   O     O_R   0.654580 0.193810 0.718190 -0.506419
O91   O     O_2   0.480411 0.847162 0.887771 -0.443213
O92   O     O_2   0.152564 0.575104 0.607046 -0.457110
O93   O     O_2   0.468880 0.622467 0.886493 -0.415559
O94   O     O_R   0.345420 0.539230 0.281810 -0.514056
O95   O     O_R   0.661700 0.490360 0.716000 -0.409113
O96   O     O_R   0.460770 0.806190 0.218190 -0.507030
O97   O     O_R   0.193810 0.654580 0.281810 -0.500949
O98   O     O_R   0.345420 0.539230 0.218190 -0.499120
O99   O     O_R   0.460770 0.806190 0.281810 -0.490973
O100  O     O_R   0.193810 0.654580 0.218190 -0.509914
O101  O     O_3   0.666667 0.333333 0.750000 -0.312961
O102  O     O_3   0.333333 0.666667 0.250000 -0.305765
O103  O     O_2   0.890457 0.510200 0.086663 -0.432442
O104  O     O_2   0.652260 0.108219 0.410368 -0.453832
O105  O     O_2   0.432288 0.337891 0.085444 -0.443107
O106  O     O_R   0.828660 0.338300 0.784000 -0.412660
O107  O     O_2   0.949120 0.594850 0.416489 -0.485012
O108  O     O_2   0.607572 0.911282 0.074321 -0.437135
O109  O     O_2   0.490772 0.371870 0.411482 -0.467769
O110  O     O_2   0.682259 0.176196 0.572331 -0.377379
O111  O     O_2   0.821130 0.474899 0.928305 -0.408453
O112  O     O_2   0.529722 0.340661 0.572286 -0.428985
O113  O     O_2   0.672672 0.034878 0.919057 -0.472486
O114  O     O_2   0.977716 0.634807 0.580185 -0.493599
O115  O     O_2   0.460064 0.318265 0.925298 -0.473665
O116  O     O_2   0.179839 0.567887 0.071593 -0.391211
O117  O     O_R   0.509640 0.171340 0.716000 -0.420090
O118  O     O_2   0.348431 0.911852 0.423244 -0.375791
O119  O     O_2   0.559608 0.645878 0.078327 -0.427610
O120  O     O_2   0.077514 0.416445 0.422533 -0.368695
O121  O     O_2   0.349336 0.917232 0.078109 -0.430537
O122  O     O_2   0.415164 0.590222 0.427696 -0.392419
O123  O     O_2   0.412356 0.909802 0.581966 -0.396361
O124  O     O_2   0.126921 0.605538 0.911441 -0.387303
O125  O     O_2   0.417055 0.530707 0.587115 -0.415137
O126  O     O_2   0.374593 0.952729 0.915444 -0.415550
O127  O     O_2   0.996662 0.376939 0.581471 -0.356928
O128  O     O_R   0.661700 0.490360 0.784000 -0.430184
O129  O     O_2   0.631829 0.613941 0.920937 -0.423981
O130  O     O_2   0.296247 0.531728 0.967637 -0.184841
O131  O     O_2   0.183717 0.488611 0.926065 -0.187109
O132  O     O_3   0.311998 0.662198 0.930986 -0.400435
O133  O     O_2   0.236111 0.880888 0.563702 -0.165587
O134  O     O_2   0.181766 0.778687 0.517993 -0.218670
O135  O     O_3   0.285485 0.756957 0.556955 -0.386436
O136  O     O_2   0.649718 0.825727 0.985737 -0.232144
O137  O     O_2   0.738712 0.787013 0.949135 -0.120656
O138  O     O_3   0.567890 0.738094 0.935615 -0.447955
O139  O     O_R   0.828660 0.338300 0.716000 -0.457666
O140  O     O_2   0.061555 0.264705 0.553229 -0.071248
O141  O     O_2   0.194653 0.358027 0.519168 -0.218091
O142  O     O_3   0.178966 0.433187 0.569685 -0.415027
O143  O     O_2   0.201710 0.894452 0.944018 -0.153843
O144  O     O_2   0.219617 0.000455 0.986648 -0.127302
O145  O     O_3   0.327362 0.068496 0.939079 -0.523102
O146  O     O_2   0.465629 0.753044 0.523822 -0.182430
O147  O     O_2   0.369994 0.654918 0.566888 -0.193979
O148  O     O_3   0.546199 0.708742 0.566184 -0.434709
O149  O     O_2   0.182638 0.848372 0.461109 -0.162894
O150  O     O_R   0.171340 0.509640 0.284000 -0.444764
O151  O     O_2   0.208716 0.959803 0.502854 -0.153980
O152  O     O_3   0.281974 0.024062 0.448756 -0.507109
O153  O     O_2   0.327625 0.583010 0.026118 -0.183412
O154  O     O_2   0.363529 0.718876 0.994672 -0.222491
O155  O     O_3   0.321478 0.718374 0.052407 -0.455520
O156  O     O_2   0.264117 0.606525 0.508579 -0.239196
O157  O     O_2   0.371281 0.698970 0.466941 -0.134239
O158  O     O_3   0.243545 0.528874 0.454779 -0.456334
O159  O     O_2   0.152211 0.814922 0.002692 -0.220260
O160  O     O_2   0.211579 0.784753 0.049776 -0.193106
O161  O     O_R   0.490360 0.661700 0.216000 -0.437961
O162  O     O_3   0.202567 0.934878 0.048002 -0.391034
O163  O     O_2   0.131666 0.301447 0.460905 -0.156193
O164  O     O_2   0.995792 0.204063 0.493320 -0.192411
O165  O     O_3   0.967873 0.245541 0.438176 -0.496276
O166  O     O_2   0.793286 0.788797 0.013135 -0.169993
O167  O     O_2   0.686857 0.809849 0.047387 -0.188052
O168  O     O_3   0.745767 0.700518 0.065559 -0.526735
O169  O     O_2   0.777462 0.592594 0.960096 -0.374383
O170  O     O_2   0.818766 0.170291 0.540478 -0.331516
O171  O     O_2   0.242214 0.184452 0.984769 -0.405284
O172  O     O_R   0.338300 0.828660 0.284000 -0.444759
O173  O     O_2   0.980761 0.780404 0.524142 -0.359865
O174  O     O_2   0.817445 0.024568 0.974463 -0.367657
O175  O     O_2   0.446542 0.165542 0.515383 -0.442938
O176  O     O_2   0.805507 0.288701 0.457270 -0.505877
O177  O     O_2   0.705595 0.468162 0.042581 -0.455074
O178  O     O_2   0.557410 0.247870 0.455964 -0.453815
O179  O     O_2   0.817650 0.116509 0.034852 -0.410277
O180  O     O_2   0.866059 0.692135 0.468033 -0.420554
O181  O     O_2   0.358802 0.156961 0.029383 -0.395234
O182  O     O_2   0.013990 0.715630 0.904695 -0.153982
S1    S     S_3+6 0.239659 0.562932 0.949672 0.164543
S2    S     S_3+6 0.223330 0.860010 0.028090 0.155339
S3    S     S_3+6 0.036120 0.281582 0.469973 0.131828
S4    S     S_3+6 0.712705 0.741189 0.035340 0.118431
S5    S     S_3+6 0.941362 0.669694 0.879791 0.130572
S6    S     S_3+6 0.702683 0.035622 0.617556 0.126689
S7    S     S_3+6 0.325816 0.301104 0.877909 0.085830
S8    S     S_3+6 0.771618 0.405840 0.589954 0.060151
S9    S     S_3+6 0.631786 0.222724 0.911100 0.065592
S10   S     S_3+6 0.327306 0.284331 0.619692 0.109635
S11   S     S_3+6 0.560183 0.858446 0.402730 0.125689
S12   S     S_3+6 0.262768 0.833110 0.539412 0.169835
S13   S     S_3+6 0.083459 0.731807 0.116852 0.104909
S14   S     S_3+6 0.262414 0.354171 0.384697 0.090362
S15   S     S_3+6 0.687122 0.010699 0.130096 0.112212
S16   S     S_3+6 0.195725 0.701643 0.404308 0.084427
S17   S     S_3+6 0.283606 0.417244 0.101634 0.071901
S18   S     S_3+6 0.017850 0.362521 0.180937 0.076608
S19   S     S_3+6 0.434268 0.040350 0.298965 0.064963
S20   S     S_3+6 0.619362 0.588120 0.197697 0.062917
S21   S     S_3+6 0.953908 0.400855 0.301425 0.118936
S22   S     S_3+6 0.359272 0.998817 0.186011 0.074002
S23   S     S_3+6 0.644673 0.753374 0.963612 0.159090
S24   S     S_3+6 0.637040 0.667515 0.321347 0.083292
S25   S     S_3+6 0.362761 0.034714 0.677620 0.068700
S26   S     S_3+6 0.966319 0.332719 0.823547 0.069281
S27   S     S_3+6 0.673467 0.634223 0.675952 0.059361
S28   S     S_3+6 0.475384 0.937899 0.796520 0.053213
S29   S     S_3+6 0.063695 0.529190 0.701968 0.054967
S30   S     S_3+6 0.610802 0.629543 0.806863 0.067452
S31   S     S_3+6 0.122878 0.359927 0.540046 0.179916
S32   S     S_3+6 0.270783 0.976653 0.962812 0.152954
S33   S     S_3+6 0.449016 0.674948 0.545171 0.142530
S34   S     S_3+6 0.252158 0.939655 0.475324 0.157678
S35   S     S_3+6 0.301016 0.654941 0.019751 0.131717
S36   S     S_3+6 0.318772 0.603798 0.481003 0.147695

loop_
_geom_bond_atom_site_label_1
_geom_bond_atom_site_label_2
_ccdc_geom_bond_type
C62   C83   S    
C46   C112  A    
C29   C42   A    
C4    N8    Am   
C32   C45   A    
C5    N9    Am   
C121  S28   S    
C6    N10   Am   
C67   S4    S    
C150  S7    S    
C126  H4    S    
C150  C163  A    
C190  O103  D    
C16   O120  D    
C53   C178  A    
Cr1   O35   S    
C155  N8    S    
C130  H72   S    
C162  N3    S    
C141  C154  A    
O28   S14   D    
C103  O92   D    
C22   N2    Am   
C142  S15   S    
C149  O117  A    
C4    O108  D    
C111  C172  A    
C55   C180  A    
C5    O109  D    
C111  S18   S    
C66   C72   A    
C100  H66   S    
C42   C180  A    
C115  S22   S    
C95   O84   D    
C1    O35   A    
C91   O181  D    
C182  O97   A    
C103  H69   S    
C17   N8    Am   
C97   H63   S    
C58   C61   A    
C19   N10   Am   
C99   H65   S    
C82   O173  D    
C17   C30   A    
C9    O113  D    
C19   C32   A    
Cr1   O101  S    
H5    O132  S    
C20   O124  D    
H38   O23   S    
C29   C69   A    
C21   O125  D    
C68   C95   S    
C90   C117  A    
C124  C137  A    
O44   S19   D    
C156  N9    S    
H55   O76   S    
C129  C142  A    
C141  S16   S    
O140  S31   D    
C23   C37   A    
O21   S11   D    
Cr2   O46   S    
H17   O168  S    
C6    C184  A    
C58   C183  A    
O164  S3    D    
C25   N4    Am   
C134  C147  A    
C110  C123  A    
C25   O129  D    
Cr4   O102  S    
C124  C172  A    
C88   O179  D    
O32   S15   D    
C114  S21   S    
C65   S35   S    
C140  S17   S    
O33   S15   S    
C93   H59   S    
C20   C33   A    
C33   C73   A    
C17   O121  D    
C9    N2    Am   
C18   O122  D    
C135  H34   S    
C81   O171  D    
C33   C47   A    
C56   C62   A    
C30   C43   A    
C34   C48   A    
C20   N11   Am   
C10   N3    Am   
C137  S13   S    
C107  C120  A    
C39   C47   A    
C117  C173  A    
C121  C168  A    
O144  S32   D    
C128  C175  A    
C122  C167  A    
C125  H67   S    
O45   S19   D    
O37   S16   S    
O12   S8    D    
Cr4   O2    S    
C61   C84   S    
O156  S36   D    
C59   C80   S    
O7    S6    S    
C115  C174  A    
C22   C36   A    
O8    S7    D    
C148  C162  A    
C52   C86   S    
C79   C96   S    
C27   C66   A    
C106  C158  A    
C192  N6    Am   
H42   O37   S    
C104  C110  S    
C37   C50   A    
C23   N3    Am   
C171  O96   A    
H16   O165  S    
C43   C181  A    
H11   O152  S    
C76   S31   S    
Cr1   O117  S    
C79   C155  A    
C18   N9    Am   
C182  O150  A    
C112  S19   S    
C116  C168  S    
C98   O87   D    
C53   C85   S    
C18   C31   A    
C41   C51   A    
C44   C48   A    
C45   C184  A    
C3    O107  D    
C163  N4    S    
Cr5   O13   S    
C145  C158  A    
C79   C115  A    
C91   H30   S    
H43   O40   S    
C139  C152  A    
C92   O81   D    
C89   O180  D    
C67   C77   A    
C12   N1    Am   
O16   S9    D    
C50   C188  A    
O5    S6    D    
O67   S27   D    
O78   S30   D    
O65   S26   D    
O64   S26   D    
Cr5   O96   S    
O138  S23   S    
C145  S5    S    
C101  C118  A    
O49   S20   D    
O137  S23   D    
C120  C169  A    
C56   C88   S    
C159  N12   S    
C69   C76   A    
Cr2   O128  S    
C52   C177  A    
C52   C60   A    
C88   H28   S    
C82   H21   S    
C127  O95   A    
C55   C63   A    
C10   C188  A    
C117  S24   S    
Cr3   O57   S    
H37   O20   S    
C4    C181  A    
H41   O33   S    
O136  S23   D    
C7    N11   Am   
C31   C71   A    
Cr1   O1    S    
O17   S9    S    
O59   S24   D    
O69   S27   D    
O58   S24   D    
O34   S16   D    
C191  N5    Am   
C105  O139  A    
O142  S31   S    
C78   O169  D    
C161  N2    S    
C94   O83   D    
C63   C82   S    
O39   S17   D    
C149  C165  S    
O163  S3    D    
C80   H19   S    
O47   S19   S    
C57   C113  A    
C38   C51   A    
C8    C186  A    
H44   O43   S    
C12   C26   A    
C3    C180  A    
C36   C75   A    
C25   C38   A    
C8    N12   Am   
C98   H64   S    
O3    S5    D    
C27   C40   A    
H46   O47   S    
Cr5   O99   S    
O74   S29   D    
C44   C183  A    
C42   C50   A    
O146  S33   D    
C57   C94   S    
C149  O90   A    
C134  C168  A    
O157  S36   D    
C90   C156  A    
C8    O112  D    
O31   S15   D    
C99   C106  S    
C6    O110  D    
C177  C190  A    
C90   C97   S    
C74   S33   S    
H51   O63   S    
C41   C179  A    
C154  N7    S    
O54   S22   D    
C116  O1    A    
C119  C164  A    
H31   O4    S    
Cr3   O90   S    
C69   S3    S    
C127  C169  S    
C108  C161  A    
C143  S14   S    
O61   S25   D    
H35   O14   S    
Cr4   O150  S    
C120  S27   S    
C84   H24   S    
O4    S5    S    
C75   S32   S    
C94   H60   S    
C100  O89   D    
C54   C64   A    
C1    C166  S    
O40   S17   S    
O66   S26   S    
O151  S34   D    
O29   S14   D    
C24   C172  S    
C22   O126  D    
C64   C81   S    
C13   O172  A    
C131  C144  A    
Cr2   O79   S    
O168  S4    S    
O147  S33   D    
O26   S13   D    
O72   S28   D    
C131  C165  A    
O133  S12   D    
C191  O104  D    
C70   C75   A    
C15   O119  D    
C135  C167  A    
Cr6   O24   S    
C113  S20   S    
C66   S34   S    
C144  C157  A    
H50   O60   S    
O153  S35   D    
O22   S11   D    
C171  O24   A    
C60   C185  A    
C147  S9    S    
C106  C119  A    
O50   S20   S    
C108  C121  A    
H15   O162  S    
C64   C189  A    
C35   C111  A    
C32   C72   A    
Cr4   O94   S    
O62   S25   D    
C85   O176  D    
O23   S11   S    
C109  C162  A    
O10   S7    S    
O42   S18   D    
C26   C39   A    
C56   C181  A    
O27   S13   S    
C28   C41   A    
C54   C179  A    
C160  C173  S    
O63   S25   S    
C133  C169  A    
O166  S4    D    
H57   O80   S    
O48   S20   D    
C119  S26   S    
O148  S33   S    
C30   C70   A    
C123  C166  A    
O162  S2    S    
C112  C170  A    
O76   S29   S    
O143  S32   D    
O36   S16   D    
C14   C27   A    
C47   C185  A    
H53   O70   S    
O11   S8    D    
C51   C189  A    
C140  C153  A    
O6    S6    D    
C35   C92   S    
O141  S31   D    
C101  C157  A    
C58   C87   S    
Cr3   O139  S    
C1    O128  A    
C35   C151  A    
O38   S17   D    
C39   C177  A    
C7    C185  A    
C130  C173  A    
C40   C45   A    
C171  C174  S    
O18   S10   D    
C147  C161  A    
C160  O13   A    
C21   C34   A    
O41   S18   D    
C57   C153  A    
Cr6   O97   S    
C105  O46   A    
C11   C189  A    
C21   N12   Am   
C132  C164  A    
C11   N4    Am   
C16   N7    Am   
C107  C159  A    
C49   C187  A    
C96   H62   S    
C60   C78   S    
O14   S8    S    
O158  S36   S    
C125  C170  A    
C85   H25   S    
H52   O66   S    
C34   C74   A    
C113  C176  A    
C92   H58   S    
C114  C175  A    
C37   C76   A    
C129  C174  A    
C122  S29   S    
C132  C145  A    
H39   O27   S    
C2    O161  A    
C118  C165  A    
O130  S1    D    
C152  N5    S    
C133  H56   S    
C71   C74   A    
O15   S9    D    
C110  C163  A    
C38   C77   A    
C98   C101  S    
O51   S21   D    
C103  C109  S    
C123  S30   S    
C13   O99   A    
H48   O53   S    
C83   O174  D    
Cr2   O95   S    
C54   C91   S    
C55   C89   S    
C24   O100  A    
O73   S28   S    
C15   C28   A    
O134  S12   D    
C136  C166  A    
O25   S13   D    
C148  S8    S    
O70   S27   S    
C116  O57   A    
C128  C141  A    
C15   N6    Am   
C80   O170  D    
C14   O118  D    
C77   S23   S    
C3    N7    Am   
Cr5   O102  S    
H9    O145  S    
C7    O111  D    
C97   O86   D    
C133  C146  A    
C127  O68   A    
C5    C183  A    
C36   C49   A    
O165  S3    S    
C62   C187  A    
O149  S34   D    
C46   C152  A    
O131  S1    D    
O182  S5    D    
O20   S10   S    
H36   O17   S    
Cr5   O161  S    
C190  N1    Am   
O43   S18   S    
H54   O73   S    
H7    O138  S    
C53   C59   A    
Cr6   O172  S    
C125  C139  A    
O52   S21   D    
C95   H61   S    
C11   O115  D    
C126  C140  A    
H6    O135  S    
C102  O91   D    
C10   O114  D    
C68   C154  A    
C23   O127  D    
C70   S2    S    
C109  C122  A    
O145  S32   S    
C87   O178  D    
H14   O158  S    
C65   C73   A    
Cr1   O68   S    
C138  O79   A    
C2    C176  S    
C14   N5    Am   
C158  N11   S    
C136  H23   S    
C24   O2    A    
H49   O56   S    
C102  C108  S    
C2    O98   A    
C142  C155  A    
H47   O50   S    
C192  O105  D    
Cr4   O98   S    
O132  S1    S    
O56   S22   S    
H40   O30   S    
C144  S6    S    
O19   S10   D    
C118  S25   S    
C86   H26   S    
C131  H12   S    
H32   O7    S    
C19   O123  D    
C124  H71   S    
C31   C44   A    
C179  C192  A    
O75   S29   D    
C146  S10   S    
C139  S11   S    
C28   C67   A    
Cr2   O101  S    
C78   H18   S    
C43   C49   A    
O167  S4    D    
C146  C159  A    
C87   H27   S    
C16   C29   A    
C89   H29   S    
O71   S28   D    
C86   O177  D    
C132  H1    S    
C105  C167  S    
C84   O175  D    
C48   C186  A    
H8    O142  S    
Cr6   O100  S    
C99   O88   D    
H33   O10   S    
H10   O148  S    
C130  C143  A    
C160  O94   A    
C175  C182  S    
C40   C178  A    
C73   S1    S    
C13   C170  S    
C71   S36   S    
C135  C148  A    
O55   S22   D    
O160  S2    D    
C93   O82   D    
O80   S30   S    
C138  O106  A    
C178  C191  A    
C126  C176  A    
O154  S35   D    
C100  C107  S    
C26   C65   A    
C104  H70   S    
C9    C187  A    
C136  C150  A    
Cr3   O101  S    
Cr6   O102  S    
Cr3   O106  S    
C104  O93   D    
O60   S24   S    
C157  N10   S    
O30   S14   S    
C83   H22   S    
C151  N1    S    
C143  C156  A    
C46   C93   S    
O77   S30   D    
C81   H20   S    
C61   C186  A    
C153  N6    S    
C128  H3    S    
C59   C184  A    
C72   S12   S    
C96   O85   D    
C134  H45   S    
C129  H2    S    
O155  S35   S    
H13   O155  S    
C63   C188  A    
C102  H68   S    
O135  S12   S    
O159  S2    D    
C137  C151  A    
C138  C164  S    
O152  S34   S    
O9    S7    D    
O53   S21   S    
C68   C114  A    
C12   O116  D    
