data_mof_unit_27743.cif
_audit_creation_date              2012-12-11T16:32:33-0500
_audit_creation_method            fapswitch 2.2
_symmetry_space_group_name_H-M    P1
_symmetry_Int_Tables_number       1
_space_group_crystal_system       triclinic
_cell_length_a                    6.939769
_cell_length_b                    14.384037
_cell_length_c                    15.946488
_cell_angle_alpha                 89.964705
_cell_angle_beta                  89.845835
_cell_angle_gamma                 90.035976
_cell_volume                      1591.80225623

loop_
_atom_site_label
_atom_site_type_symbol
_atom_type_description
_atom_site_fract_x
_atom_site_fract_y
_atom_site_fract_z
_atom_type_partial_charge
O1    O     O_R   0.361630 0.167340 0.164570 -0.528442
O2    O     O_R   0.638370 0.832660 0.835430 -0.528442
O3    O     O_R   0.690860 0.157560 0.338690 -0.539708
O4    O     O_R   0.309140 0.842440 0.661310 -0.539709
O5    O     O_R   0.861260 0.336420 0.339380 -0.549056
O6    O     O_R   0.138740 0.663580 0.660620 -0.549056
C1    C     C_R   0.521807 0.134781 0.368101 0.781511
C2    C     C_R   0.478193 0.865219 0.631899 0.781511
O7    O     O_R   0.691330 0.156310 0.165190 -0.535176
O8    O     O_R   0.308670 0.843690 0.834810 -0.535177
O9    O     O_R   0.861730 0.335160 0.164640 -0.547338
O10   O     O_R   0.138270 0.664840 0.835360 -0.547338
C3    C     C_R   0.522545 0.133229 0.137143 0.822115
C4    C     C_R   0.477455 0.866771 0.862857 0.822114
O11   O     O_R   0.361150 0.168600 0.339320 -0.532519
O12   O     O_R   0.638850 0.831400 0.660680 -0.532519
O13   O     O_3   0.527950 0.310560 0.252000 -0.373386
O14   O     O_3   0.472050 0.689440 0.748000 -0.373386
V1    V     V_3+5 0.802770 0.240990 0.251980 1.481883
V2    V     V_3+5 0.197230 0.759010 0.748020 1.481883
O15   O     O_R   0.191450 0.346190 0.165260 -0.536998
O16   O     O_R   0.808550 0.653810 0.834740 -0.536998
C5    C     C_R   0.022813 0.367928 0.136605 0.688098
C6    C     C_R   0.977187 0.632072 0.863395 0.688098
O17   O     O_R   0.190980 0.347440 0.338770 -0.529210
O18   O     O_R   0.809020 0.652560 0.661230 -0.529210
C7    C     C_R   0.021870 0.369730 0.367396 0.730914
C8    C     C_R   0.978130 0.630270 0.632604 0.730914
V3    V     V_3+5 0.302780 0.262760 0.251980 1.507891
V4    V     V_3+5 0.697220 0.737240 0.748020 1.507890
O19   O     O_3   0.027730 0.193200 0.251960 -0.364474
O20   O     O_3   0.972270 0.806800 0.748040 -0.364475
C9    C     C_3   0.820868 0.478941 0.473778 -0.183208
C10   C     C_3   0.179132 0.521059 0.526222 -0.183208
C11   C     C_3   0.900477 0.463179 0.562977 0.433916
C12   C     C_3   0.099522 0.536821 0.437023 0.433916
H1    H     H_    0.672915 0.461262 0.452721 0.167743
H2    H     H_    0.327085 0.538738 0.547279 0.167743
C13   C     C_3   0.989495 0.560846 0.562473 -0.128079
C14   C     C_3   0.010505 0.439154 0.437527 -0.128080
C15   C     C_3   0.911215 0.577865 0.473254 -0.228331
C16   C     C_3   0.088785 0.422134 0.526746 -0.228331
H3    H     H_    0.839244 0.642243 0.451119 0.147513
H4    H     H_    0.160756 0.357756 0.548881 0.147513
H5    H     H_    0.143247 0.323811 0.754102 0.171697
H6    H     H_    0.856753 0.676189 0.245898 0.171697
C17   C     C_R   0.905138 0.687840 0.034336 -0.259166
C18   C     C_R   0.094862 0.312160 0.965664 -0.259166
C19   C     C_R   0.872121 0.716896 0.116506 0.646699
C20   C     C_R   0.127879 0.283104 0.883494 0.646699
C21   C     C_R   0.882430 0.653427 0.182133 -0.154312
C22   C     C_R   0.117570 0.346573 0.817867 -0.154312
C23   C     C_R   0.927434 0.560677 0.166137 -0.195962
C24   C     C_R   0.072566 0.439323 0.833863 -0.195961
C25   C     C_R   0.963344 0.529393 0.083427 0.053460
C26   C     C_R   0.036656 0.470607 0.916573 0.053460
C27   C     C_R   0.951052 0.594046 0.016243 -0.030661
C28   C     C_R   0.048948 0.405954 0.983757 -0.030661
C29   C     C_R   0.012829 0.435577 0.067051 -0.110895
C30   C     C_R   0.987171 0.564423 0.932948 -0.110895
H7    H     H_    0.896017 0.739795 0.985392 0.137627
H8    H     H_    0.103983 0.260205 0.014608 0.137628
H9    H     H_    0.935068 0.514079 0.219318 0.154593
H10   H     H_    0.064932 0.485921 0.780682 0.154593
C31   C     C_3   0.390850 0.972271 0.435354 -0.070185
C32   C     C_3   0.609150 0.027728 0.564646 -0.070186
C33   C     C_3   0.563606 0.917485 0.472179 -0.152589
C34   C     C_3   0.436394 0.082515 0.527821 -0.152589
H11   H     H_    0.616252 0.849305 0.448956 0.125993
H12   H     H_    0.383748 0.150695 0.551044 0.125993
H13   H     H_    0.299015 0.948788 0.382590 0.163675
H14   H     H_    0.700985 0.051212 0.617410 0.163675
C35   C     C_3   0.489205 0.937343 0.561649 -0.022650
C36   C     C_3   0.510795 0.062657 0.438351 -0.022650
C37   C     C_3   0.316356 0.991518 0.525450 -0.139649
C38   C     C_3   0.683644 0.008481 0.474550 -0.139649
H15   H     H_    0.164182 0.984815 0.546269 0.120462
H16   H     H_    0.835818 0.015185 0.453731 0.120462
H17   H     H_    0.348152 0.819556 0.243420 0.149764
H18   H     H_    0.651848 0.180444 0.756580 0.149764
C39   C     C_R   0.602703 0.187511 0.967667 -0.143062
C40   C     C_R   0.397297 0.812489 0.032333 -0.143062
C41   C     C_R   0.638908 0.217749 0.886319 -0.144651
C42   C     C_R   0.361092 0.782250 0.113681 -0.144651
C43   C     C_R   0.624930 0.156104 0.819813 -0.066323
C44   C     C_R   0.375070 0.843896 0.180187 -0.066323
C45   C     C_R   0.574583 0.063518 0.833797 0.609933
C46   C     C_R   0.425417 0.936482 0.166203 0.609933
C47   C     C_R   0.538377 0.029990 0.916349 0.003562
C48   C     C_R   0.461623 0.970010 0.083651 0.003562
C49   C     C_R   0.552008 0.093854 0.984523 0.013491
C50   C     C_R   0.447992 0.906146 0.015477 0.013491
C51   C     C_R   0.486949 0.935743 0.932200 -0.150691
C52   C     C_R   0.513051 0.064257 0.067799 -0.150691
H19   H     H_    0.614249 0.238800 0.016992 0.103694
H20   H     H_    0.385751 0.761200 0.983008 0.103694
H21   H     H_    0.676787 0.289675 0.874771 0.152838
H22   H     H_    0.323213 0.710325 0.125228 0.152838
Cl1   Cl    Cl    0.765062 0.413299 0.646709 -0.720684
Cl2   Cl    Cl    0.234938 0.586701 0.353291 -0.720684
F1    F     F_    0.558776 0.008479 0.765334 -0.739043
F2    F     F_    0.441224 0.991521 0.234666 -0.739043
F3    F     F_    0.832278 0.807424 0.132594 -0.692619
F4    F     F_    0.167722 0.192576 0.867406 -0.692619

loop_
_geom_bond_atom_site_label_1
_geom_bond_atom_site_label_2
_ccdc_geom_bond_type
C32   C34   S    
C20   F4    S    
C48   C52   A    
C25   C29   A    
O13   V3    S    
C10   C16   S    
O4    C2    A    
V1    O19   S    
C17   C19   A    
C34   C37   S    
C5    C29   S    
O9    V1    S    
C36   C38   S    
C42   C44   A    
O3    C1    A    
C39   H19   S    
C44   C46   A    
O12   V4    S    
C40   C50   A    
C11   C16   S    
O7    C3    A    
C50   C51   A    
C9    C11   S    
O5    C7    A    
C48   C50   A    
O7    V1    S    
O6    C8    A    
C32   H14   S    
C19   C21   A    
C20   C22   A    
O3    V1    S    
O14   V4    S    
C47   C49   A    
C4    C51   S    
C10   C12   S    
C23   C25   A    
C2    O12   A    
C45   F1    S    
C15   H3    S    
C12   C15   S    
C16   H4    S    
C11   Cl1   S    
C39   C41   A    
C22   C24   A    
O11   V3    S    
C1    C36   S    
C43   C45   A    
O17   V3    S    
C24   C26   A    
C9    C14   S    
C40   H20   S    
C10   C13   S    
C12   C14   S    
C13   C15   S    
O8    C4    A    
O8    V2    S    
C27   C30   A    
C1    O11   A    
H5    C22   S    
C31   C33   S    
C28   C29   A    
C31   H13   S    
C32   C35   S    
O15   V3    S    
H6    C21   S    
C9    H1    S    
C31   C36   S    
C26   C30   A    
C21   C23   A    
C39   C49   A    
C11   C13   S    
C17   H7    S    
H18   C43   S    
C17   C27   A    
C18   H8    S    
C7    C14   S    
C6    C30   S    
C32   C38   S    
O10   V2    S    
O1    V3    S    
C12   Cl2   S    
C18   C20   A    
C37   H15   S    
C33   C35   S    
C41   C43   A    
C46   C48   A    
O18   V4    S    
C40   C42   A    
O15   C5    A    
O16   C6    A    
O1    C3    A    
C35   C37   S    
V2    O20   S    
O16   V4    S    
C10   H2    S    
C38   H16   S    
C14   C16   S    
C31   C37   S    
C19   F3    S    
C46   F2    S    
C18   C28   A    
O5    V1    S    
O17   C7    A    
O6    V2    S    
O10   C6    A    
O18   C8    A    
C8    C13   S    
C3    C52   S    
O2    V4    S    
C9    C15   S    
C25   C27   A    
C42   H22   S    
V3    O19   S    
C49   C52   A    
V4    O20   S    
C23   H9    S    
C24   H10   S    
O9    C5    A    
C2    C35   S    
O13   V1    S    
C26   C28   A    
O14   V2    S    
C47   C51   A    
O2    C4    A    
O4    V2    S    
C34   H12   S    
C41   H21   S    
C45   C47   A    
C33   C38   S    
C33   H11   S    
C34   C36   S    
H17   C44   S    
