data_mof_unit_51138.cif
_audit_creation_date              2012-12-11T17:43:20-0500
_audit_creation_method            fapswitch 2.2
_symmetry_space_group_name_H-M    P1
_symmetry_Int_Tables_number       1
_space_group_crystal_system       triclinic
_cell_length_a                    14.997432
_cell_length_b                    14.962055
_cell_length_c                    17.073122
_cell_angle_alpha                 108.943866
_cell_angle_beta                  106.431245
_cell_angle_gamma                 108.592127
_cell_volume                      3099.12154496

loop_
_atom_site_label
_atom_site_type_symbol
_atom_type_description
_atom_site_fract_x
_atom_site_fract_y
_atom_site_fract_z
_atom_type_partial_charge
C1    C     C_R   0.086074 0.294558 0.086905 0.387501
C2    C     C_R   0.909095 0.724675 0.971904 0.454503
C3    C     C_R   0.025961 0.558343 0.736992 0.125649
C4    C     C_R   0.967751 0.537366 0.270515 0.092839
C5    C     C_R   0.757687 0.195651 0.726385 0.056864
C6    C     C_R   0.334983 0.782234 0.256099 0.049609
C7    C     C_R   0.286847 0.457649 0.967512 0.027462
C8    C     C_R   0.638469 0.427731 0.938938 0.025035
C9    C     C_R   0.902540 0.937171 0.061829 -0.163795
C10   C     C_R   0.090761 0.111244 0.124487 -0.193541
C11   C     C_R   0.995276 0.927311 0.080550 0.074694
C12   C     C_R   0.997310 0.116221 0.087183 0.098289
C13   C     C_R   0.090162 0.021230 0.131553 -0.000937
C14   C     C_R   0.903273 0.033656 0.069591 0.012835
C15   C     C_R   0.709363 0.970357 0.994565 -0.165136
C16   C     C_R   0.169331 0.987947 0.262879 -0.125286
C17   C     C_R   0.630885 0.077995 0.055641 -0.105949
C18   C     C_R   0.356255 0.068517 0.350889 -0.101013
C19   C     C_R   0.485717 0.584610 0.266888 -0.116054
C20   C     C_R   0.470244 0.265654 0.636006 -0.104841
C21   C     C_R   0.472089 0.557358 0.176649 -0.143585
C22   C     C_R   0.464513 0.289176 0.719962 -0.151706
C23   C     C_R   0.935217 0.511309 0.744302 -0.045351
C24   C     C_R   0.061865 0.549881 0.264423 -0.025374
C25   C     C_R   0.447097 0.453588 0.117080 0.053793
C26   C     C_R   0.465169 0.385297 0.769310 0.047810
C27   C     C_R   0.437230 0.376451 0.149908 0.150081
C28   C     C_R   0.472857 0.459415 0.733407 0.150201
C29   C     C_R   0.450978 0.405808 0.241181 -0.089863
C30   C     C_R   0.478415 0.433994 0.648537 -0.120706
C31   C     C_R   0.474874 0.509084 0.299052 -0.042477
C32   C     C_R   0.476770 0.337745 0.600190 -0.114849
C33   C     C_R   0.525476 0.421292 0.012425 -0.233867
C34   C     C_R   0.373541 0.415199 0.869217 -0.225169
C35   C     C_R   0.536799 0.412588 0.932569 0.074343
C36   C     C_R   0.367159 0.432057 0.952719 0.053443
C37   C     C_R   0.459249 0.405651 0.858288 0.018414
C38   C     C_R   0.442111 0.430621 0.023980 0.031180
C39   C     C_R   0.621159 0.985745 0.990175 -0.112237
C40   C     C_R   0.255631 0.005596 0.335863 -0.079266
C41   C     C_R   0.949881 0.567628 0.353114 0.029426
C42   C     C_R   0.029136 0.582548 0.661813 0.007733
C43   C     C_R   0.110075 0.699400 0.605386 -0.116350
C44   C     C_R   0.852062 0.487379 0.422330 -0.131136
C45   C     C_R   0.775557 0.202020 0.812875 -0.126219
C46   C     C_R   0.279891 0.784943 0.177316 -0.127351
C47   C     C_R   0.109006 0.676097 0.677765 -0.266742
C48   C     C_R   0.855627 0.499794 0.347089 -0.250261
C49   C     C_R   0.947577 0.514004 0.573821 0.385957
C50   C     C_R   0.030864 0.644934 0.439943 0.389782
C51   C     C_R   0.941453 0.545110 0.505055 0.016490
C52   C     C_R   0.027448 0.632625 0.517483 0.002036
C53   C     C_R   0.715042 0.099064 0.640764 0.116868
C54   C     C_R   0.443137 0.855321 0.323960 0.127427
C55   C     C_R   0.593040 0.026793 0.394748 -0.217989
C56   C     C_R   0.606322 0.909795 0.556510 -0.207582
C57   C     C_R   0.501393 0.946160 0.319071 -0.184662
C58   C     C_R   0.675608 0.999412 0.639046 -0.157225
C59   C     C_R   0.485074 0.839657 0.399946 -0.286859
C60   C     C_R   0.699070 0.105439 0.558064 -0.259539
C61   C     C_R   0.574796 0.920199 0.476109 0.188055
C62   C     C_R   0.625730 0.016954 0.475533 0.175270
C63   C     C_R   0.728792 0.154906 0.126051 -0.114677
C64   C     C_R   0.370945 0.111697 0.291584 -0.128992
C65   C     C_R   0.817149 0.139786 0.131026 -0.113187
C66   C     C_R   0.284887 0.093944 0.218248 -0.168793
C67   C     C_R   0.260852 0.533302 0.951167 -0.130648
C68   C     C_R   0.698623 0.398699 0.991439 -0.151075
C69   C     C_R   0.808490 0.047796 0.064723 0.095039
C70   C     C_R   0.182917 0.032670 0.203576 0.120511
C71   C     C_R   0.780393 0.297020 0.735128 -0.119348
C72   C     C_R   0.272672 0.689296 0.253248 -0.076273
C73   C     C_R   0.244098 0.431498 0.022670 -0.095803
C74   C     C_R   0.701432 0.493964 0.916129 -0.059330
C75   C     C_R   0.108536 0.591699 0.818884 -0.154397
C76   C     C_R   0.888619 0.467581 0.183851 -0.152909
C77   C     C_R   0.915178 0.203900 0.001821 -0.208010
C78   C     C_R   0.082198 0.806356 0.052234 -0.202833
C79   C     C_R   0.999617 0.200855 0.059388 -0.036104
C80   C     C_R   0.993993 0.822699 0.039281 -0.039529
H1    H     H_    0.700471 0.899093 0.942427 0.152583
H2    H     H_    0.091855 0.941169 0.253784 0.127763
H3    H     H_    0.485562 0.530741 0.369207 0.113310
H4    H     H_    0.481440 0.319405 0.535136 0.124634
H5    H     H_    0.506202 0.664867 0.312314 0.121263
H6    H     H_    0.469705 0.191397 0.598678 0.121886
H7    H     H_    0.482257 0.617559 0.153279 0.128379
H8    H     H_    0.459383 0.232122 0.746698 0.128411
H9    H     H_    0.443236 0.348617 0.267883 0.110135
H10   H     H_    0.485677 0.489771 0.620321 0.121856
H11   H     H_    0.586999 0.430364 0.070951 0.125241
H12   H     H_    0.312906 0.411417 0.813729 0.138199
H13   H     H_    0.787713 0.445186 0.282808 0.130248
H14   H     H_    0.171305 0.730435 0.745786 0.141265
H15   H     H_    0.175778 0.768960 0.618815 0.188866
H16   H     H_    0.781133 0.427314 0.413430 0.179397
H17   H     H_    0.857652 0.494862 0.701279 0.136331
H18   H     H_    0.139592 0.595369 0.319365 0.154299
H19   H     H_    0.545206 0.926387 0.935735 0.117608
H20   H     H_    0.244444 0.971580 0.381512 0.154458
H21   H     H_    0.733762 0.180709 0.557854 0.176694
H22   H     H_    0.443562 0.769554 0.404899 0.124978
H23   H     H_    0.690532 0.990875 0.701276 0.122019
H24   H     H_    0.473009 0.958942 0.260028 0.125757
H25   H     H_    0.632705 0.099986 0.392741 0.159627
H26   H     H_    0.569781 0.834854 0.557051 0.134026
H27   H     H_    0.562536 0.089858 0.051822 0.104119
H28   H     H_    0.422839 0.083637 0.408460 0.120259
H29   H     H_    0.736284 0.226330 0.176781 0.112760
H30   H     H_    0.449083 0.159615 0.302832 0.111047
H31   H     H_    0.892460 0.200174 0.186141 0.136496
H32   H     H_    0.297973 0.128436 0.173433 0.117751
H33   H     H_    0.765894 0.138674 0.831711 0.098710
H34   H     H_    0.310464 0.837887 0.150600 0.092154
H35   H     H_    0.284496 0.572929 0.912471 0.108622
H36   H     H_    0.671946 0.337793 0.012164 0.096580
H37   H     H_    0.773757 0.321728 0.681969 0.135466
H38   H     H_    0.295063 0.652118 0.294744 0.118526
H39   H     H_    0.246961 0.373973 0.046884 0.132791
H40   H     H_    0.674480 0.517755 0.864709 0.167683
H41   H     H_    0.189326 0.644930 0.841974 0.100226
H42   H     H_    0.806055 0.440705 0.162174 0.101430
H43   H     H_    0.833935 0.150222 0.974504 0.140161
H44   H     H_    0.162689 0.863565 0.092827 0.140769
H45   H     H_    0.830459 0.870998 0.042961 0.174799
H46   H     H_    0.164949 0.176298 0.148522 0.181067
N1    N     N_R   0.055660 0.348550 0.045620 -0.071579
N2    N     N_R   0.944340 0.651450 0.954380 -0.078963
N3    N     N_R   0.960830 0.507850 0.823700 -0.053561
N4    N     N_R   0.039170 0.492150 0.176300 -0.039445
N5    N     N_R   0.811290 0.303410 0.871650 -0.041077
N6    N     N_R   0.188710 0.696590 0.128350 -0.044480
N7    N     N_R   0.205200 0.552990 0.997670 -0.046424
N8    N     N_R   0.794800 0.447010 0.002330 -0.043000
N9    N     N_R   0.814800 0.361830 0.823700 -0.045295
N10   N     N_R   0.185200 0.638170 0.176300 -0.041912
N11   N     N_R   0.201680 0.494570 0.045620 -0.033258
N12   N     N_R   0.798320 0.505430 0.954380 -0.048301
N13   N     N_R   0.068420 0.560530 0.871650 -0.044082
N14   N     N_R   0.931580 0.439470 0.128350 -0.046026
N15   N     N_R   0.948070 0.295860 0.997670 -0.059890
N16   N     N_R   0.051930 0.704140 0.002330 -0.064390
Ni1   Ni    Ni4+2 0.119340 0.493420 0.109960 0.279149
Ni2   Ni    Ni4+2 0.880660 0.506580 0.890040 0.246291
Ni3   Ni    Ni4+2 0.872590 0.372590 0.000000 0.211416
Ni4   Ni    Ni4+2 0.127410 0.627410 0.000000 0.204312
Cl1   Cl    Cl    0.197095 0.364608 0.193025 -0.757367
Cl2   Cl    Cl    0.790502 0.707188 0.896220 -0.783173
C81   C     C_3   0.413793 0.263802 0.090525 -0.475133
C82   C     C_3   0.300622 0.199080 0.016952 -0.221836
C83   C     C_3   0.274672 0.083065 0.964514 -0.915788
H47   H     H_    0.326657 0.076408 0.930079 0.262010
H48   H     H_    0.283858 0.046885 0.011849 0.252911
H49   H     H_    0.192618 0.038561 0.911504 0.260151
H50   H     H_    0.246780 0.203399 0.049633 0.203383
H51   H     H_    0.287534 0.231535 0.967156 0.201402
H52   H     H_    0.468089 0.263899 0.057885 0.189281
H53   H     H_    0.427773 0.223654 0.133952 0.180483
C84   C     C_3   0.482563 0.568084 0.785681 -0.445812
C85   C     C_3   0.384468 0.577483 0.739503 -0.234106
C86   C     C_3   0.394641 0.686926 0.792684 -0.940454
H54   H     H_    0.404756 0.701588 0.863459 0.254820
H55   H     H_    0.462436 0.749051 0.795895 0.265371
H56   H     H_    0.323114 0.691730 0.757446 0.255346
H57   H     H_    0.371683 0.564216 0.668458 0.206713
H58   H     H_    0.315138 0.516678 0.735698 0.200132
H59   H     H_    0.497591 0.586817 0.857994 0.208707
H60   H     H_    0.551299 0.628675 0.788393 0.235324
Cl3   Cl    Cl    0.135211 0.752788 0.450235 -0.728169
Cl4   Cl    Cl    0.863567 0.381243 0.544104 -0.758643

loop_
_geom_bond_atom_site_label_1
_geom_bond_atom_site_label_2
_ccdc_geom_bond_type
C21   H7    S    
N13   Ni4   S    
N7    N11   A    
C73   H39   S    
C27   C29   A    
C34   C37   A    
C7    C36   S    
N16   Ni4   S    
C3    C23   A    
C30   H10   S    
N4    N14   A    
C63   C65   A    
C86   H54   S    
C7    C73   A    
N3    Ni2   S    
C6    C72   A    
C74   N12   A    
C8    C74   A    
C55   H25   S    
C44   H16   S    
C5    C53   S    
C67   N7    A    
N10   Ni1   S    
N5    N9    A    
C17   H27   S    
C71   N9    A    
C49   Cl4   S    
C4    C24   A    
C78   C80   A    
C43   C52   A    
C72   N10   A    
C13   C70   S    
C2    Cl2   S    
C12   C79   S    
C3    C42   S    
C31   H3    S    
C84   H60   S    
C23   N3    A    
C60   C62   A    
N1    N15   A    
C83   H49   S    
N8    Ni3   S    
C67   H35   S    
C65   H31   S    
C18   C40   A    
C64   H30   S    
C41   C48   A    
C84   H59   S    
C49   C51   A    
C20   H6    S    
C50   C52   A    
C83   H47   S    
C22   H8    S    
C3    C75   A    
C81   H53   S    
N15   Ni3   S    
C18   H28   S    
C76   N14   A    
N11   Ni1   S    
C19   C31   A    
C27   C81   S    
C82   H51   S    
C4    C41   S    
C6    C54   S    
C15   C69   A    
C29   H9    S    
C86   H55   S    
C53   C60   A    
C34   H12   S    
C54   C59   A    
C77   C79   A    
C32   H4    S    
C59   C61   A    
C48   H13   S    
C46   H34   S    
C51   C52   A    
C16   C70   A    
C15   H1    S    
C71   H37   S    
N2    N16   A    
C5    C45   A    
C10   C13   A    
C28   C84   S    
C9    H45   S    
C8    C35   S    
C64   C66   A    
C63   H29   S    
C9    C14   A    
N8    N12   A    
C77   H43   S    
C24   N4    A    
C25   C38   S    
C43   H15   S    
C9    C11   A    
C39   H19   S    
C84   C85   S    
N3    N13   A    
N6    N10   A    
C15   C39   A    
C16   H2    S    
N1    Ni1   S    
C85   H57   S    
C46   N6    A    
N4    Ni1   S    
N2    Ni2   S    
C56   H26   S    
C10   C12   A    
C16   C40   A    
C44   C51   A    
N9    Ni2   S    
C23   H17   S    
C68   H36   S    
C8    C68   A    
C85   H58   S    
C82   H50   S    
C55   C57   A    
C1    C79   A    
C14   C69   S    
C24   H18   S    
C1    Cl1   S    
C60   H21   S    
C41   C50   A    
C86   H56   S    
C78   H44   S    
C20   C32   A    
C57   H24   S    
C21   C25   A    
C6    C46   A    
C35   C37   A    
C75   H41   S    
C59   H22   S    
C1    N1    A    
C20   C22   A    
C43   C47   A    
C19   H5    S    
C78   N16   A    
N14   Ni3   S    
C40   H20   S    
C53   C58   A    
C26   C37   S    
C45   N5    A    
C58   H23   S    
C25   C27   A    
C74   H40   S    
C26   C28   A    
C33   C38   A    
C82   C83   S    
N6    Ni4   S    
C85   C86   S    
C68   N8    A    
C12   C14   A    
C76   H42   S    
C5    C71   A    
N12   Ni2   S    
C81   C82   S    
C17   C63   A    
C36   C38   A    
C30   C32   A    
C11   C13   A    
C18   C64   A    
C66   C70   A    
C73   N11   A    
C65   C69   A    
C28   C30   A    
C33   C35   A    
C47   H14   S    
C56   C58   A    
N5    Ni3   S    
C50   Cl3   S    
C34   C36   A    
C42   C47   A    
C83   H48   S    
C61   C62   A    
C77   N15   A    
C4    C76   A    
C2    C80   A    
C11   C80   S    
C42   C49   A    
C7    C67   A    
C17   C39   A    
C45   H33   S    
C55   C62   A    
C29   C31   A    
C22   C26   A    
C72   H38   S    
C56   C61   A    
C75   N13   A    
N7    Ni4   S    
C66   H32   S    
C10   H46   S    
C81   H52   S    
C54   C57   A    
C44   C48   A    
C19   C21   A    
C33   H11   S    
C2    N2    A    
