data_mof_unit_49883.cif
_audit_creation_date              2012-12-10T19:44:35-0500
_audit_creation_method            fapswitch 2.2
_symmetry_space_group_name_H-M    P1
_symmetry_Int_Tables_number       1
_space_group_crystal_system       triclinic
_cell_length_a                    8.601017
_cell_length_b                    14.900215
_cell_length_c                    14.157062
_cell_angle_alpha                 89.989509
_cell_angle_beta                  98.957357
_cell_angle_gamma                 90.081703
_cell_volume                      1792.19817746

loop_
_atom_site_label
_atom_site_type_symbol
_atom_type_description
_atom_site_fract_x
_atom_site_fract_y
_atom_site_fract_z
_atom_type_partial_charge
C1    C     C_R   0.502374 0.327529 0.500277 0.882578
C2    C     C_R   0.502179 0.672439 0.500196 0.878698
C3    C     C_R   0.399200 0.444705 0.094714 0.382536
C4    C     C_R   0.472192 0.580620 0.892624 0.384625
C5    C     C_R   0.401913 0.444395 0.194461 -0.139298
C6    C     C_R   0.473937 0.578068 0.792736 -0.164909
C7    C     C_R   0.599811 0.555959 0.215080 -0.165456
C8    C     C_R   0.528956 0.422796 0.798783 -0.165170
C9    C     C_R   0.607169 0.556388 0.115807 0.395820
C10   C     C_R   0.534084 0.421951 0.898864 0.380250
C11   C     C_R   0.503189 0.501342 0.053834 -0.031903
C12   C     C_R   0.504606 0.501550 0.947208 -0.023977
C13   C     C_R   0.200846 0.500090 0.474913 0.974149
C14   C     C_R   0.799145 0.500079 0.525074 0.971393
C15   C     C_2   0.035634 0.500364 0.461430 -0.385504
C16   C     C_2   0.964337 0.500111 0.538518 -0.374447
C17   C     C_R   0.629141 0.098983 0.584275 0.186987
C18   C     C_R   0.633700 0.901091 0.443826 0.184968
C19   C     C_R   0.606646 0.190972 0.582753 -0.212648
C20   C     C_R   0.610847 0.809087 0.440281 -0.213613
C21   C     C_R   0.520219 0.231717 0.502154 -0.066590
C22   C     C_R   0.519780 0.768220 0.501977 -0.063749
C23   C     C_R   0.457458 0.181182 0.422225 -0.177375
C24   C     C_R   0.452616 0.818539 0.568291 -0.181225
C25   C     C_R   0.476692 0.089221 0.424099 -0.143579
C26   C     C_R   0.471940 0.910518 0.570645 -0.141255
C27   C     C_R   0.561918 0.048200 0.504831 0.066697
C28   C     C_R   0.561833 0.951718 0.508557 0.066628
H1    H     H_    0.973164 0.500745 0.388419 0.170847
H2    H     H_    0.026806 0.499794 0.611518 0.179765
H3    H     H_    0.658557 0.230701 0.643727 0.164192
H4    H     H_    0.666203 0.769395 0.390684 0.168508
H5    H     H_    0.390964 0.212561 0.359599 0.160411
H6    H     H_    0.382726 0.786950 0.616464 0.147988
H7    H     H_    0.422499 0.049621 0.363557 0.167893
H8    H     H_    0.414319 0.949976 0.619393 0.167366
H9    H     H_    0.324329 0.399846 0.225626 0.160612
H10   H     H_    0.455708 0.639015 0.751308 0.160599
H11   H     H_    0.674337 0.600350 0.262804 0.152778
H12   H     H_    0.549747 0.361240 0.762388 0.170910
N1    N     N_R   0.500000 0.499980 0.252470 -0.127009
N2    N     N_R   0.500000 0.500020 0.747530 -0.124504
O1    O     O_R   0.500010 0.369070 0.579480 -0.627252
O2    O     O_R   0.499990 0.630930 0.420520 -0.616481
O3    O     O_R   0.500010 0.369060 0.420520 -0.614702
O4    O     O_R   0.499990 0.630940 0.579480 -0.626600
O5    O     O_R   0.271750 0.500000 0.560890 -0.606378
O6    O     O_R   0.728250 0.500000 0.439110 -0.616075
O7    O     O_R   0.271750 0.499990 0.401930 -0.627041
O8    O     O_R   0.728250 0.500010 0.598070 -0.617207
Zn1   Zn    Zn3+2 0.500000 0.500010 0.606140 0.946579
Zn2   Zn    Zn3+2 0.500000 0.499990 0.393860 0.947310
I1    I     I_    0.766522 0.041414 0.706927 -0.371761
I2    I     I_    0.778947 0.958985 0.351682 -0.366663
O9    O     O_3   0.301775 0.385211 0.038638 -0.551941
C29   C     C_3   0.164169 0.430344 0.996279 0.083612
H13   H     H_    0.185778 0.501274 0.976936 0.117280
H14   H     H_    0.076792 0.429396 0.046353 0.134869
C30   C     C_3   0.095349 0.382124 0.904596 -0.796540
H15   H     H_    0.067695 0.311399 0.920396 0.264418
H16   H     H_    0.986043 0.416462 0.871067 0.184906
H17   H     H_    0.181084 0.383046 0.853494 0.264553
O10   O     O_3   0.450524 0.660659 0.938741 -0.554348
C31   C     C_3   0.301683 0.697462 0.903123 0.074490
H18   H     H_    0.206363 0.646418 0.900891 0.118994
H19   H     H_    0.300477 0.725974 0.830453 0.141661
C32   C     C_3   0.267404 0.773377 0.968612 -0.738658
H20   H     H_    0.148582 0.801313 0.943303 0.212525
H21   H     H_    0.356182 0.827573 0.968549 0.268647
H22   H     H_    0.271791 0.748118 0.042775 0.252676
O11   O     O_3   0.710107 0.612632 0.077870 -0.550986
C33   C     C_3   0.866962 0.592920 0.118449 0.102616
H23   H     H_    0.889307 0.519177 0.121991 0.102156
H24   H     H_    0.894890 0.622124 0.191390 0.146169
C34   C     C_3   0.977528 0.634738 0.056912 -0.819580
H25   H     H_    0.101350 0.619573 0.087958 0.195782
H26   H     H_    0.952714 0.607111 0.983228 0.243034
H27   H     H_    0.961341 0.708669 0.053902 0.277943
O12   O     O_3   0.561281 0.342397 0.948787 -0.550116
C35   C     C_3   0.724749 0.326402 0.965814 0.066630
H28   H     H_    0.790839 0.386031 0.998597 0.124414
H29   H     H_    0.767010 0.308380 0.897877 0.147800
C36   C     C_3   0.758928 0.248337 0.035026 -0.724806
H30   H     H_    0.887534 0.235199 0.048931 0.207987
H31   H     H_    0.697249 0.187037 0.004125 0.271560
H32   H     H_    0.718250 0.264665 0.103737 0.253535

loop_
_geom_bond_atom_site_label_1
_geom_bond_atom_site_label_2
_ccdc_geom_bond_type
O9    C29   S    
C1    C21   S    
C5    H9    S    
C19   H3    S    
C2    O4    A    
C4    O10   S    
C19   C21   A    
C8    N2    A    
C35   C36   S    
C16   H2    S    
C15   C16   D    
C29   H13   S    
C3    O9    S    
C1    O1    A    
C2    O2    A    
C23   H5    S    
C2    C22   S    
C6    H10   S    
C4    C12   A    
N1    Zn2   S    
C18   C20   A    
N2    Zn1   S    
O2    Zn2   S    
C23   C25   A    
C30   H15   S    
C33   C34   S    
C15   H1    S    
C30   H16   S    
C32   H20   S    
C17   C27   A    
C31   C32   S    
C18   C28   A    
C33   H24   S    
C13   O5    A    
C33   H23   S    
O5    Zn1   S    
O3    Zn2   S    
O4    Zn1   S    
C24   H6    S    
O12   C35   S    
C32   H21   S    
C31   H19   S    
C34   H25   S    
C9    C11   A    
C36   H30   S    
C11   C12   S    
O7    Zn2   S    
O8    Zn1   S    
C34   H26   S    
C10   C12   A    
C25   H7    S    
C13   O7    A    
C35   H29   S    
C36   H31   S    
C20   C22   A    
C13   C15   S    
C14   C16   S    
C4    C6    A    
C17   I1    S    
C20   H4    S    
C26   H8    S    
C7    C9    A    
C5    N1    A    
C30   H17   S    
C9    O11   S    
C24   C26   A    
C35   H28   S    
C3    C5    A    
C14   O6    A    
C10   O12   S    
C25   C27   A    
C26   C28   A    
C29   C30   S    
C32   H22   S    
C31   H18   S    
C21   C23   A    
O11   C33   S    
C1    O3    A    
O1    Zn1   S    
C14   O8    A    
C17   C19   A    
C29   H14   S    
C22   C24   A    
C7    N1    A    
C34   H27   S    
C3    C11   A    
C18   I2    S    
O10   C31   S    
O6    Zn2   S    
C36   H32   S    
C8    C10   A    
C6    N2    A    
C27   C28   S    
C7    H11   S    
C8    H12   S    
