data_mof_unit_35621.cif
_audit_creation_date              2012-10-26T20:44:07-0400
_audit_creation_method            fapswitch 2.2
_symmetry_space_group_name_H-M    P1
_symmetry_Int_Tables_number       1
_space_group_crystal_system       triclinic
_cell_length_a                    10.792474
_cell_length_b                    9.483994
_cell_length_c                    19.56554
_cell_angle_alpha                 90.459454
_cell_angle_beta                  90.716802
_cell_angle_gamma                 90.053036
_cell_volume                      2002.4235334

loop_
_atom_site_label
_atom_site_type_symbol
_atom_type_description
_atom_site_fract_x
_atom_site_fract_y
_atom_site_fract_z
_atom_type_partial_charge
C1    C     C_R   0.871524 0.498189 0.500479 0.030626
C2    C     C_R   0.737525 0.499732 0.499894 0.548620
C3    C     C_R   0.501497 0.499392 0.367211 0.535737
C4    C     C_R   0.498508 0.500607 0.632789 0.535742
C5    C     C_R   0.063257 0.470353 0.438202 -0.008809
C6    C     C_R   0.936743 0.529622 0.561793 -0.008803
C7    C     C_R   0.933043 0.465039 0.439174 -0.014410
C8    C     C_R   0.066957 0.534932 0.560821 -0.014411
C9    C     C_R   0.449501 0.381997 0.745142 -0.038814
C10   C     C_R   0.550448 0.618030 0.254857 -0.038812
C11   C     C_R   0.461745 0.377237 0.252738 -0.032045
C12   C     C_R   0.128477 0.501807 0.499514 0.030628
C13   C     C_R   0.538307 0.622743 0.747259 -0.032045
C14   C     C_R   0.454162 0.381093 0.817248 -0.006583
C15   C     C_R   0.545718 0.618970 0.182753 -0.006606
C16   C     C_R   0.465106 0.378528 0.180661 -0.005695
C17   C     C_R   0.534958 0.621452 0.819335 -0.005676
C18   C     C_R   0.495649 0.500435 0.853683 -0.033312
C19   C     C_R   0.504311 0.499592 0.146315 -0.033318
C20   C     C_R   0.416271 0.073760 0.461021 0.007633
C21   C     C_R   0.583729 0.926239 0.538979 0.007632
C22   C     C_R   0.583571 0.075289 0.539097 0.008587
C23   C     C_R   0.386878 0.512619 0.964745 -0.080677
C24   C     C_R   0.416429 0.924711 0.460903 0.008595
C25   C     C_R   0.495499 0.501902 0.709272 0.006202
C26   C     C_R   0.504507 0.498096 0.290728 0.006202
C27   C     C_3   0.131194 0.447770 0.371522 -0.392761
C28   C     C_3   0.868809 0.552164 0.628479 -0.392747
C29   C     C_3   0.857118 0.424910 0.375829 -0.379674
C30   C     C_3   0.142885 0.575008 0.624170 -0.379653
C31   C     C_3   0.393821 0.255564 0.707292 -0.366175
C32   C     C_3   0.606149 0.744455 0.292699 -0.366183
C33   C     C_3   0.411978 0.247032 0.288257 -0.377111
C34   C     C_R   0.613072 0.487420 0.035253 -0.080696
C35   C     C_3   0.588100 0.752935 0.711740 -0.377120
C36   C     C_1   0.419501 0.255970 0.854928 0.199219
C37   C     C_1   0.580204 0.744175 0.145084 0.199214
C38   C     C_1   0.430478 0.254419 0.140711 0.200394
C39   C     C_1   0.569695 0.745516 0.859281 0.200385
C40   C     C_R   0.389136 0.513467 0.035861 -0.081232
C41   C     C_R   0.610813 0.486577 0.964137 -0.081223
C42   C     C_R   0.502236 0.500905 0.071129 0.036078
C43   C     C_R   0.497714 0.499132 0.928869 0.036086
C44   C     C_R   0.262475 0.500268 0.500100 0.548621
Cu1   Cu    Cu3+1 0.500000 0.640660 0.500000 0.910706
Cu2   Cu    Cu3+1 0.500000 0.359340 0.500000 0.910689
H1    H     H_    0.349006 0.129476 0.430049 0.105922
H2    H     H_    0.118024 0.337448 0.353497 0.123874
H3    H     H_    0.095297 0.521939 0.332399 0.131030
H4    H     H_    0.768111 0.531673 0.624706 0.137777
H5    H     H_    0.904702 0.477953 0.667590 0.131025
H6    H     H_    0.881993 0.662481 0.646526 0.123876
H7    H     H_    0.800055 0.330408 0.386530 0.155014
H8    H     H_    0.794949 0.513180 0.361764 0.124695
H9    H     H_    0.912337 0.398740 0.330279 0.125179
H10   H     H_    0.199917 0.669548 0.613490 0.155002
H11   H     H_    0.087670 0.601081 0.669738 0.125181
H12   H     H_    0.650994 0.870523 0.569951 0.105925
H13   H     H_    0.205089 0.486744 0.638197 0.124703
H14   H     H_    0.468527 0.192131 0.683612 0.153194
H15   H     H_    0.340664 0.183938 0.740421 0.131837
H16   H     H_    0.326425 0.290639 0.667764 0.145064
H17   H     H_    0.531459 0.807939 0.316355 0.153165
H18   H     H_    0.673515 0.709382 0.332240 0.145093
H19   H     H_    0.659363 0.816013 0.259564 0.131808
H20   H     H_    0.339065 0.277223 0.324802 0.129455
H21   H     H_    0.367442 0.169005 0.253474 0.131795
H22   H     H_    0.488775 0.191364 0.314912 0.155480
H23   H     H_    0.650288 0.132285 0.570457 0.113146
H24   H     H_    0.661002 0.722725 0.675192 0.129449
H25   H     H_    0.511310 0.808620 0.685085 0.155479
H26   H     H_    0.632647 0.830956 0.746522 0.131810
H27   H     H_    0.349712 0.867715 0.429543 0.113148
H28   H     H_    0.299314 0.522803 0.937593 0.115180
H29   H     H_    0.700638 0.477233 0.062405 0.115170
H30   H     H_    0.303241 0.523748 0.063501 0.114808
H31   H     H_    0.696707 0.476300 0.936497 0.114814
H32   H     H_    0.231891 0.468269 0.375290 0.137771
N1    N     N_R   0.500000 0.852070 0.500000 -0.224406
N2    N     N_R   0.500000 0.147930 0.500000 -0.224408
N3    N     N_1   0.392064 0.156430 0.885078 -0.258111
N4    N     N_1   0.607490 0.843787 0.114942 -0.257991
N5    N     N_1   0.403070 0.155754 0.108742 -0.256114
N6    N     N_1   0.597189 0.844144 0.891248 -0.256253
O1    O     O_R   0.319640 0.618740 0.500000 -0.504270
O2    O     O_R   0.680360 0.381260 0.500000 -0.504279
O3    O     O_R   0.680360 0.618740 0.500000 -0.503054
O4    O     O_R   0.319640 0.381260 0.500000 -0.503052
O5    O     O_R   0.500020 0.618830 0.400190 -0.506161
O6    O     O_R   0.499980 0.381170 0.599810 -0.506177
O7    O     O_R   0.499980 0.618830 0.599810 -0.507796
O8    O     O_R   0.500020 0.381170 0.400190 -0.507807

loop_
_geom_bond_atom_site_label_1
_geom_bond_atom_site_label_2
_ccdc_geom_bond_type
C27   H2    S    
Cu2   N2    S    
C7    C29   S    
C38   N5    T    
C14   C18   A    
C34   C42   A    
C27   H32   S    
C4    C25   S    
C9    C25   A    
Cu1   Cu2   S    
C15   C19   A    
Cu1   O3    S    
C39   N6    T    
C13   C35   S    
C10   C15   A    
C14   C36   S    
C28   H5    S    
C24   H27   S    
Cu2   O8    S    
C29   H8    S    
C23   C40   A    
C30   H11   S    
C23   C43   A    
C1    C2    S    
C17   C39   S    
C31   H15   S    
C15   C37   S    
C5    C27   S    
C28   H4    S    
C6    C28   S    
C20   C24   A    
C35   H24   S    
Cu1   O5    S    
C22   H23   S    
Cu2   O4    S    
C19   C42   S    
C34   H29   S    
C4    O7    A    
C10   C26   A    
C40   C42   A    
C35   H25   S    
C21   C22   A    
C41   C43   A    
C31   H16   S    
C13   C25   A    
C34   C41   A    
C33   H20   S    
C4    O6    A    
C20   N2    A    
C1    C6    A    
C11   C33   S    
C32   H18   S    
C5    C12   A    
C5    C7    A    
C6    C8    A    
C29   H9    S    
C11   C26   A    
C30   H10   S    
C40   H30   S    
C3    O8    A    
C31   H14   S    
Cu1   O1    S    
C9    C14   A    
C11   C16   A    
C24   N1    A    
C36   N3    T    
C8    C12   A    
C30   H13   S    
C21   N1    A    
C17   C18   A    
C2    O3    A    
Cu1   N1    S    
C35   H26   S    
C37   N4    T    
C23   H28   S    
C44   O1    A    
C33   H21   S    
C1    C7    A    
C3    C26   S    
C32   H17   S    
Cu2   O6    S    
C13   C17   A    
C3    O5    A    
C8    C30   S    
C22   N2    A    
C21   H12   S    
C12   C44   S    
C18   C43   S    
C41   H31   S    
C28   H6    S    
C29   H7    S    
C16   C19   A    
C2    O2    A    
Cu1   O7    S    
C20   H1    S    
C9    C31   S    
C10   C32   S    
C44   O4    A    
C27   H3    S    
C33   H22   S    
C16   C38   S    
C32   H19   S    
Cu2   O2    S    
