data_mof_unit_59108.cif
_audit_creation_date              2013-03-05T16:14:16-0500
_audit_creation_method            fapswitch 2.2
_symmetry_space_group_name_H-M    P1
_symmetry_Int_Tables_number       1
_space_group_crystal_system       triclinic
_cell_length_a                    10.681739
_cell_length_b                    10.749404
_cell_length_c                    9.827265
_cell_angle_alpha                 88.943727
_cell_angle_beta                  90.254004
_cell_angle_gamma                 91.04175
_cell_volume                      1128.00174449

loop_
_atom_site_label
_atom_site_type_symbol
_atom_site_description
_atom_site_fract_x
_atom_site_fract_y
_atom_site_fract_z
_atom_type_partial_charge
O1    O     O_R   0.499990 0.316750 0.614620 -0.566614
O2    O     O_R   0.500010 0.683250 0.385380 -0.566631
O3    O     O_R   0.499990 0.316780 0.385290 -0.635695
O4    O     O_R   0.500010 0.683220 0.614710 -0.635679
C1    C     C_R   0.498613 0.259862 0.501782 0.966019
C2    C     C_R   0.501393 0.740138 0.498219 0.966038
O5    O     O_R   0.316760 0.500000 0.614660 -0.615250
O6    O     O_R   0.683240 0.500000 0.385340 -0.615268
O7    O     O_R   0.316760 0.500020 0.385330 -0.634920
O8    O     O_R   0.683240 0.499980 0.614670 -0.634936
C3    C     C_R   0.260366 0.501560 0.499394 0.958609
C4    C     C_R   0.739633 0.498429 0.500606 0.958589
Zn1   Zn    Zn3+2 0.500000 0.499980 0.653120 1.004416
Zn2   Zn    Zn3+2 0.500000 0.500020 0.346880 1.004409
H1    H     H_    0.289506 0.992425 0.186782 0.171604
H2    H     H_    0.710521 0.007700 0.813573 0.171655
C5    C     C_R   0.205268 0.919924 0.371171 -0.145285
C6    C     C_R   0.794811 0.080047 0.629134 -0.145259
H3    H     H_    0.217109 0.006176 0.425173 0.198486
H4    H     H_    0.783026 0.993729 0.575234 0.198450
C7    C     C_R   0.149255 0.816375 0.435957 -0.129178
C8    C     C_R   0.850818 0.183555 0.564250 -0.129048
H5    H     H_    0.116845 0.823704 0.539757 0.160788
H6    H     H_    0.883282 0.176130 0.460476 0.160820
C9    C     C_R   0.133441 0.704445 0.365973 0.148137
C10   C     C_R   0.866557 0.295569 0.634108 0.148085
C11   C     C_R   0.174758 0.697043 0.230968 -0.060200
C12   C     C_R   0.825183 0.303088 0.769087 -0.060229
H7    H     H_    0.161861 0.611660 0.175301 0.130468
H8    H     H_    0.838029 0.388535 0.824659 0.130469
C13   C     C_R   0.231056 0.800699 0.166723 -0.048587
C14   C     C_R   0.768893 0.199474 0.833428 -0.048592
H9    H     H_    0.262672 0.794767 0.062557 0.157691
H10   H     H_    0.737230 0.205502 0.937573 0.157638
C15   C     C_R   0.245955 0.912187 0.236645 -0.052338
C16   C     C_R   0.754064 0.087907 0.763633 -0.052225
C17   C     C_R   0.935480 0.597548 0.434430 0.279501
C18   C     C_R   0.064519 0.402438 0.565572 0.279523
C19   C     C_R   0.872059 0.499737 0.502573 -0.242086
C20   C     C_R   0.127940 0.500245 0.497425 -0.242097
C21   C     C_R   0.934821 0.402205 0.569053 -0.162210
C22   C     C_R   0.065178 0.597777 0.430949 -0.162207
C23   C     C_R   0.547779 0.070188 0.390898 -0.335759
C24   C     C_R   0.452250 0.929812 0.609113 -0.335813
H11   H     H_    0.585532 0.124558 0.306008 0.208631
H12   H     H_    0.414497 0.875444 0.694005 0.208649
C25   C     C_R   0.547612 0.942869 0.383238 0.357103
C26   C     C_R   0.452416 0.057131 0.616774 0.357049
C27   C     C_R   0.500084 0.872522 0.494717 -0.200646
C28   C     C_R   0.499937 0.127479 0.505290 -0.200682
C29   C     C_R   0.592182 0.561377 0.071130 0.009054
C30   C     C_R   0.407819 0.438621 0.928870 0.009077
H13   H     H_    0.665757 0.610558 0.125028 0.196807
H14   H     H_    0.334248 0.389436 0.874972 0.196833
C31   C     C_R   0.592102 0.561445 0.927173 -0.085568
C32   C     C_R   0.407898 0.438555 0.072827 -0.085526
H15   H     H_    0.665638 0.610665 0.871914 0.151145
H16   H     H_    0.334362 0.389334 0.128086 0.151153
N1    N     N_R   0.499970 0.499970 0.857200 -0.099952
N2    N     N_R   0.500030 0.500030 0.142800 -0.099950
N3    N     N_R   0.868007 0.698870 0.373880 0.218203
O9    O     O_R   0.882705 0.727829 0.245769 -0.362046
O10   O     O_R   0.796480 0.765963 0.448795 -0.435558
N4    N     N_R   0.131995 0.301150 0.626174 0.218196
O11   O     O_R   0.117282 0.272240 0.754292 -0.362084
O12   O     O_R   0.203558 0.234053 0.551315 -0.435556
N5    N     N_R   0.598325 0.888759 0.263401 0.241230
O13   O     O_R   0.522883 0.835991 0.176795 -0.413022
O14   O     O_R   0.707888 0.926785 0.220795 -0.333000
N6    N     N_R   0.401713 0.111240 0.736616 0.241249
O15   O     O_R   0.477162 0.164021 0.823206 -0.413039
O16   O     O_R   0.292157 0.073208 0.779242 -0.333038

loop_
_geom_bond_atom_site_label_1
_geom_bond_atom_site_label_2
_geom_bond_distance
_ccdc_geom_bond_type
C9    C22   1.483532 S    
C24   C27   1.395066 A    
O5    C3    1.280577 A    
O7    Zn2   1.995106 S    
C13   H9    1.082715 S    
C23   C28   1.395058 A    
N6    O15   1.300236 A    
Zn1   N1    2.005548 S    
C30   N1    1.365756 A    
C31   N1    1.365706 A    
C32   H16   1.081627 S    
C9    C11   1.404167 A    
C19   C21   1.404228 A    
Zn2   N2    2.005548 S    
C10   C12   1.404224 A    
N3    O9    1.300815 A    
C12   C14   1.398182 A    
O6    C4    1.280579 A    
N4    O12   1.300127 A    
N4    O11   1.300775 A    
O3    C1    1.288065 A    
C4    C19   1.414403 S    
C12   H8    1.083495 S    
C17   C19   1.401785 A    
C31   H15   1.081625 S    
H2    C16   1.082756 S    
C18   C20   1.401771 A    
C24   C26   1.372025 A    
C23   H11   1.084707 S    
C6    C16   1.397924 A    
O2    C2    1.276071 A    
O3    Zn2   1.998714 S    
O8    C4    1.275415 A    
O1    C1    1.276061 A    
C14   C16   1.398675 A    
C13   C15   1.398630 A    
C26   C28   1.410752 A    
C5    H3    1.081908 S    
C30   H14   1.081292 S    
C17   C22   1.385926 A    
C6    H4    1.081957 S    
O7    C3    1.275415 A    
C2    C27   1.423151 S    
C3    C20   1.414407 S    
O2    Zn2   2.012459 S    
C8    H6    1.083418 S    
C1    C28   1.423152 S    
O4    C2    1.288057 A    
C11   H7    1.083457 S    
C11   C13   1.398153 A    
N5    O13   1.300234 A    
C32   N2    1.365707 A    
O5    Zn1   1.991838 S    
O1    Zn1   2.012459 S    
C17   N3    1.435487 S    
C26   N6    1.435627 S    
C18   C21   1.385931 A    
C25   C27   1.410745 A    
C8    C10   1.404087 A    
H1    C15   1.082727 S    
O4    Zn1   1.998715 S    
N3    O10   1.300184 A    
C18   N4    1.435429 S    
C7    C9    1.404020 A    
O6    Zn2   1.991835 S    
C29   N2    1.365759 A    
C5    C15   1.397859 A    
C29   C31   1.414692 A    
N5    O14   1.301030 A    
C6    C8    1.398389 A    
C23   C25   1.372031 A    
C7    H5    1.083368 S    
N6    O16   1.301056 A    
C25   N5    1.435628 S    
C5    C7    1.398333 A    
C30   C32   1.414691 A    
C10   C21   1.483594 S    
C24   H12   1.084707 S    
C20   C22   1.404215 A    
C29   H13   1.081292 S    
O8    Zn1   1.995104 S    
C14   H10   1.082762 S    
