data_mof_unit_23560.cif
_audit_creation_date              2012-12-11T15:28:38-0500
_audit_creation_method            fapswitch 2.2
_symmetry_space_group_name_H-M    P1
_symmetry_Int_Tables_number       1
_space_group_crystal_system       triclinic
_cell_length_a                    6.950513
_cell_length_b                    19.560208
_cell_length_c                    23.454696
_cell_angle_alpha                 96.210937
_cell_angle_beta                  90.796159
_cell_angle_gamma                 89.063502
_cell_volume                      3169.37131261

loop_
_atom_site_label
_atom_site_type_symbol
_atom_type_description
_atom_site_fract_x
_atom_site_fract_y
_atom_site_fract_z
_atom_type_partial_charge
O1    O     O_R   0.617180 0.809390 0.808140 -0.520425
O2    O     O_R   0.382820 0.190610 0.191860 -0.529617
O3    O     O_R   0.293300 0.672410 0.795490 -0.529353
O4    O     O_R   0.706700 0.327590 0.204510 -0.531627
O5    O     O_R   0.117220 0.690610 0.691850 -0.507285
O6    O     O_R   0.882780 0.309390 0.308150 -0.514626
C1    C     C_R   0.464365 0.647677 0.805559 0.794466
C2    C     C_R   0.535635 0.352321 0.194438 0.788613
O7    O     O_R   0.287840 0.807750 0.814460 -0.533396
O8    O     O_R   0.712160 0.192250 0.185540 -0.523222
O9    O     O_R   0.111720 0.826910 0.710960 -0.498235
O10   O     O_R   0.888280 0.173090 0.289040 -0.506406
C3    C     C_R   0.456519 0.830786 0.833181 0.738151
C4    C     C_R   0.543532 0.169361 0.166718 0.729544
O11   O     O_R   0.622680 0.673080 0.789040 -0.536289
O12   O     O_R   0.377320 0.326920 0.210960 -0.539135
O13   O     O_3   0.448820 0.756130 0.716020 -0.344111
O14   O     O_3   0.551180 0.243870 0.283980 -0.342066
V1    V     V_3+5 0.176220 0.748860 0.756300 1.609771
V2    V     V_3+5 0.823780 0.251140 0.243700 1.630472
O15   O     O_R   0.781670 0.827580 0.704500 -0.538748
O16   O     O_R   0.218330 0.172420 0.295500 -0.525932
C5    C     C_R   0.949767 0.851067 0.693541 0.861981
C6    C     C_R   0.050107 0.148890 0.306428 0.915626
O17   O     O_R   0.787130 0.692240 0.685530 -0.529694
O18   O     O_R   0.212870 0.307760 0.314470 -0.519768
C7    C     C_R   0.956195 0.669287 0.666759 0.786645
C8    C     C_R   0.043799 0.330672 0.333270 0.819352
V3    V     V_3+5 0.675510 0.751130 0.743690 1.603794
V4    V     V_3+5 0.324490 0.248870 0.256310 1.634022
O19   O     O_3   0.952780 0.743870 0.783980 -0.383101
O20   O     O_3   0.047220 0.256130 0.216020 -0.388050
C9    C     C_1   0.966909 0.617333 0.614650 -0.065808
C10   C     C_1   0.033071 0.382639 0.385372 -0.058764
C11   C     C_1   0.978430 0.573792 0.571853 0.082734
C12   C     C_1   0.021528 0.426190 0.428164 0.068957
C13   C     C_1   0.993482 0.521898 0.521301 0.068886
C14   C     C_1   0.006462 0.478088 0.478713 0.064634
C15   C     C_R   0.960619 0.912282 0.662023 -0.303399
C16   C     C_R   0.038152 0.087680 0.337973 -0.308107
C17   C     C_R   0.024040 0.034274 0.666871 -0.178434
C18   C     C_R   0.969326 0.966091 0.333375 -0.170326
C19   C     C_R   0.969344 0.977711 0.693957 0.411879
C20   C     C_R   0.024034 0.022397 0.306022 0.393131
C21   C     C_R   0.989195 0.905848 0.601527 0.246108
C22   C     C_R   0.010342 0.094300 0.398523 0.324455
C23   C     C_R   0.997844 0.967205 0.573279 -0.003319
C24   C     C_R   0.000291 0.033104 0.426924 -0.022743
C25   C     C_R   0.043191 0.029082 0.607403 -0.007328
C26   C     C_R   0.953115 0.971299 0.392899 -0.023642
C27   C     C_R   0.970590 0.970368 0.512901 0.075040
C28   C     C_R   0.027802 0.029983 0.487332 0.093865
C29   C     C_R   0.120976 0.082350 0.522498 -0.058445
C30   C     C_R   0.877134 0.918010 0.477853 -0.045166
C31   C     C_R   0.113671 0.084715 0.581821 -0.102509
C32   C     C_R   0.882951 0.915725 0.418578 -0.076841
H1    H     H_    0.167417 0.129709 0.607850 0.157300
H2    H     H_    0.827968 0.870853 0.392654 0.164818
H3    H     H_    0.050027 0.083027 0.692164 0.196406
H4    H     H_    0.940567 0.917477 0.308204 0.199667
C33   C     C_R   0.483980 0.583735 0.834478 -0.216808
C34   C     C_R   0.516013 0.416258 0.165511 -0.215652
C35   C     C_R   0.613785 0.466785 0.833491 0.343833
C36   C     C_R   0.386147 0.533197 0.166494 0.341998
C37   C     C_R   0.548001 0.521957 0.803357 0.356076
C38   C     C_R   0.451994 0.478038 0.196629 0.353138
C39   C     C_R   0.464816 0.587162 0.894308 -0.284432
C40   C     C_R   0.535141 0.412824 0.105679 -0.283745
C41   C     C_R   0.505045 0.529333 0.924843 0.060143
C42   C     C_R   0.494877 0.470649 0.075142 0.059901
C43   C     C_R   0.573499 0.468102 0.892969 -0.062381
C44   C     C_R   0.426404 0.531879 0.107015 -0.061747
C45   C     C_R   0.482616 0.530497 0.986074 0.099565
C46   C     C_R   0.517283 0.469484 0.013910 0.099120
C47   C     C_R   0.569798 0.408975 0.979367 -0.192977
C48   C     C_R   0.430065 0.591003 0.020616 -0.193226
C49   C     C_R   0.596759 0.408447 0.920857 -0.037717
C50   C     C_R   0.403092 0.591530 0.079125 -0.038285
C51   C     C_1   0.467288 0.882936 0.885162 -0.139127
C52   C     C_1   0.533123 0.117483 0.114545 -0.149532
C53   C     C_1   0.478800 0.926549 0.927914 0.041889
C54   C     C_1   0.521783 0.074000 0.071696 0.036286
C55   C     C_1   0.493832 0.978425 0.978475 0.047031
C56   C     C_1   0.506793 0.022181 0.021096 0.049834
H5    H     H_    0.589534 0.360183 0.996062 0.130234
H6    H     H_    0.410292 0.639793 0.003921 0.129386
S1    S     S_3+6 0.935925 0.176326 0.433795 -0.034025
O21   O     O_2   0.109462 0.220840 0.445290 -0.363397
O22   O     O_2   0.796701 0.211444 0.396600 -0.335932
O23   O     O_3   0.822729 0.168463 0.495648 -0.495870
H7    H     H_    0.809527 0.216011 0.514677 0.382625
S2    S     S_3+6 0.064246 0.823985 0.565844 0.005265
O24   O     O_2   0.170167 0.832665 0.511726 -0.285530
O25   O     O_2   0.198618 0.787087 0.603208 -0.333480
O26   O     O_3   0.871233 0.774507 0.549616 -0.486624
H8    H     H_    0.801771 0.774336 0.586160 0.313047
S3    S     S_3+6 0.055088 0.010866 0.230684 0.022185
O27   O     O_2   0.051176 0.935778 0.208684 -0.294924
O28   O     O_2   0.896271 0.048162 0.202138 -0.344740
O29   O     O_3   0.267837 0.043275 0.214868 -0.506839
H9    H     H_    0.280647 0.031448 0.172956 0.361675
S4    S     S_3+6 0.931413 0.989122 0.769018 0.029548
O30   O     O_2   0.926588 0.064271 0.790866 -0.290042
O31   O     O_2   0.743424 0.957578 0.782012 -0.339861
O32   O     O_3   0.111273 0.949932 0.802139 -0.506814
H10   H     H_    0.072092 0.952219 0.842754 0.353127
H11   H     H_    0.192762 0.123478 0.504694 0.194713
H12   H     H_    0.804967 0.877066 0.495770 0.196241
H13   H     H_    0.630488 0.359239 0.897313 0.207696
H14   H     H_    0.369314 0.640734 0.102667 0.207137
H15   H     H_    0.583082 0.364081 0.084456 0.126516
H16   H     H_    0.416885 0.635905 0.915532 0.125776
S5    S     S_3+6 0.470500 0.486717 0.273053 0.082279
O33   O     O_2   0.494204 0.560686 0.296623 -0.243864
O34   O     O_2   0.292015 0.459033 0.297055 -0.332903
O35   O     O_3   0.662550 0.441994 0.294074 -0.512422
H17   H     H_    0.650519 0.443175 0.336202 0.350279
S6    S     S_3+6 0.529638 0.513305 0.726930 0.078867
O36   O     O_2   0.708232 0.540969 0.702975 -0.331851
O37   O     O_2   0.505881 0.439349 0.703330 -0.251268
O38   O     O_3   0.337693 0.558065 0.705885 -0.510682
H18   H     H_    0.350859 0.557492 0.663838 0.350201
S7    S     S_3+6 0.769309 0.401090 0.799574 0.097380
O39   O     O_2   0.917012 0.379789 0.841941 -0.331312
O40   O     O_2   0.651016 0.339832 0.777881 -0.276184
O41   O     O_3   0.888632 0.428601 0.744714 -0.421844
H19   H     H_    0.962628 0.387925 0.727660 0.398215
S8    S     S_3+6 0.230542 0.598869 0.200403 0.101338
O42   O     O_2   0.348714 0.660167 0.222072 -0.271651
O43   O     O_2   0.082760 0.620106 0.158034 -0.331981
O44   O     O_3   0.111331 0.571360 0.255286 -0.419890
H20   H     H_    0.035706 0.611839 0.271952 0.402621

loop_
_geom_bond_atom_site_label_1
_geom_bond_atom_site_label_2
_ccdc_geom_bond_type
S1    O21   D    
C3    C51   S    
O41   H19   S    
C38   S5    S    
O13   V3    S    
C45   C46   A    
O26   H8    S    
O29   H9    S    
O4    C2    A    
V1    O19   S    
S8    O42   D    
C35   C37   A    
S3    O27   D    
O23   H7    S    
S7    O39   D    
C23   C25   A    
C7    C9    S    
C16   C22   A    
O9    V1    S    
C6    C16   S    
C11   C13   S    
C48   C50   A    
S5    O33   D    
O3    C1    A    
S7    O40   D    
O12   V4    S    
O35   H17   S    
S4    O32   S    
C21   C23   A    
C41   C43   A    
C21   S2    S    
O7    C3    A    
S6    O36   D    
C1    C33   S    
C44   C50   A    
C9    C11   T    
O5    C7    A    
C47   H5    S    
O6    C8    A    
O8    V2    S    
C36   S8    S    
C42   C46   A    
C37   S6    S    
C41   C45   A    
O14   V4    S    
C4    C52   S    
C10   C12   T    
C15   C21   A    
S5    O35   S    
C24   C26   A    
C8    C10   S    
C2    O12   A    
C17   C19   A    
C18   C20   A    
C17   C25   A    
C53   C55   S    
O7    V1    S    
O11   V3    S    
C22   C24   A    
C29   C31   A    
O17   V3    S    
C30   C32   A    
C46   C47   A    
C34   C38   A    
C27   C28   A    
C17   H3    S    
C52   C54   T    
O8    C4    A    
C18   H4    S    
C51   C53   T    
S7    O41   S    
C15   C19   A    
C1    O11   A    
C25   C31   A    
O15   V3    S    
S2    O26   S    
C26   C32   A    
C39   C41   A    
S6    O38   S    
C36   C38   A    
S4    O31   D    
C13   C14   T    
C20   S3    S    
C33   C39   A    
C35   S7    S    
C55   C56   T    
C16   C20   A    
O10   V2    S    
O1    V3    S    
C50   H14   S    
O3    V1    S    
C29   H11   S    
C47   C49   A    
O38   H18   S    
C18   C26   A    
C35   C43   A    
O18   V4    S    
C54   C56   S    
C31   H1    S    
C45   C48   A    
O16   C6    A    
O1    C3    A    
O44   H20   S    
S8    O44   S    
C48   H6    S    
C43   C49   A    
S3    O29   S    
C28   C29   A    
C22   S1    S    
V2    O20   S    
C49   H13   S    
S3    O28   D    
O16   V4    S    
S8    O43   D    
C23   C27   A    
O5    V1    S    
C34   C40   A    
O17   C7    A    
O6    V2    S    
O32   H10   S    
O10   C6    A    
O18   C8    A    
C30   H12   S    
O2    V4    S    
C27   C30   A    
O15   C5    A    
C19   S4    S    
V3    O19   S    
C12   C14   S    
V4    O20   S    
S2    O25   D    
C5    C15   S    
O9    C5    A    
S2    O24   D    
O13   V1    S    
C32   H2    S    
O14   V2    S    
C36   C44   A    
S4    O30   D    
O2    C4    A    
S6    O37   D    
O4    V2    S    
C33   C37   A    
C39   H16   S    
C24   C28   A    
C40   C42   A    
S1    O23   S    
S1    O22   D    
C42   C44   A    
C40   H15   S    
C2    C34   S    
S5    O34   D    
