data_mof_unit_66439.cif
_audit_creation_date              2013-03-05T16:35:39-0500
_audit_creation_method            fapswitch 2.2
_symmetry_space_group_name_H-M    P1
_symmetry_Int_Tables_number       1
_space_group_crystal_system       triclinic
_cell_length_a                    41.452684
_cell_length_b                    35.498086
_cell_length_c                    21.309753
_cell_angle_alpha                 89.997819
_cell_angle_beta                  59.014437
_cell_angle_gamma                 89.874275
_cell_volume                      26882.2700839

loop_
_atom_site_label
_atom_site_type_symbol
_atom_site_description
_atom_site_fract_x
_atom_site_fract_y
_atom_site_fract_z
_atom_type_partial_charge
O1    O     O_R   0.944560 0.468710 0.055440 -0.592588
O2    O     O_R   0.055440 0.468710 0.944560 -0.593318
O3    O     O_R   0.444560 0.968710 0.055440 -0.593039
O4    O     O_R   0.555440 0.968710 0.944560 -0.592824
O5    O     O_R   0.944560 0.531300 0.055450 -0.605262
O6    O     O_R   0.055440 0.531300 0.944550 -0.604768
O7    O     O_R   0.444560 0.031300 0.055450 -0.605339
O8    O     O_R   0.555440 0.031300 0.944550 -0.605806
C1    C     C_R   0.926659 0.500077 0.074703 0.968413
C2    C     C_R   0.073323 0.499980 0.925220 0.968532
C3    C     C_R   0.426666 0.000071 0.074765 0.968967
C4    C     C_R   0.573337 0.999981 0.925257 0.969885
O9    O     O_R   0.000010 0.468710 0.093020 -0.611407
O10   O     O_R   0.999990 0.468710 0.906980 -0.611178
O11   O     O_R   0.500010 0.968710 0.093020 -0.611329
O12   O     O_R   0.499990 0.968710 0.906980 -0.611627
O13   O     O_R   0.000010 0.531300 0.093030 -0.606490
O14   O     O_R   0.999990 0.531300 0.906970 -0.606574
O15   O     O_R   0.500010 0.031300 0.093030 -0.606726
O16   O     O_R   0.499990 0.031300 0.906970 -0.607623
C5    C     C_R   0.999600 0.499978 0.122144 0.933386
C6    C     C_R   0.000406 0.499979 0.877849 0.934032
C7    C     C_R   0.499618 0.999979 0.122126 0.934150
C8    C     C_R   0.500343 0.999978 0.877910 0.934226
Zn1   Zn    Zn3+2 0.000000 0.458210 0.000000 1.100831
Zn2   Zn    Zn3+2 0.500000 0.958210 0.000000 1.099729
Zn3   Zn    Zn3+2 1.000000 0.541790 0.000000 1.082788
Zn4   Zn    Zn3+2 0.500000 0.041790 0.000000 1.080358
C9    C     C_3   0.969394 0.517808 0.261477 0.371486
C10   C     C_3   0.030579 0.517715 0.738533 0.372177
C11   C     C_3   0.469258 0.017539 0.261605 0.372823
C12   C     C_3   0.531283 0.016305 0.737849 0.373576
C13   C     C_3   0.000171 0.535669 0.271167 -0.209988
C14   C     C_3   0.999764 0.535666 0.728878 -0.210225
C15   C     C_3   0.499864 0.035670 0.271487 -0.209681
C16   C     C_3   0.501344 0.035620 0.727248 -0.210666
H1    H     H_    0.000319 0.564868 0.289682 0.166547
H2    H     H_    0.999558 0.564864 0.710408 0.166592
H3    H     H_    0.499746 0.064868 0.290280 0.166460
H4    H     H_    0.502485 0.064785 0.707390 0.166361
C17   C     C_3   0.999789 0.499632 0.311192 -0.050409
C18   C     C_3   0.000212 0.499624 0.688805 -0.050789
C19   C     C_3   0.499799 0.999625 0.311181 -0.050290
C20   C     C_3   0.500171 0.999580 0.688843 -0.049600
C21   C     C_3   0.968175 0.482285 0.303342 -0.204430
C22   C     C_3   0.031862 0.482182 0.696620 -0.203695
C23   C     C_3   0.468352 0.981997 0.303141 -0.205124
C24   C     C_3   0.530969 0.980723 0.697576 -0.204375
C25   C     C_3   0.998690 0.463938 0.230710 -0.202638
C26   C     C_3   0.001384 0.463937 0.769229 -0.201927
C27   C     C_3   0.499038 0.963935 0.230346 -0.200629
C28   C     C_3   0.499661 0.963926 0.770993 -0.202894
C29   C     C_3   0.030237 0.481166 0.240002 -0.146521
C30   C     C_3   0.969801 0.481261 0.759973 -0.146917
C31   C     C_3   0.530422 0.981445 0.239820 -0.145594
C32   C     C_3   0.468917 0.982662 0.760836 -0.143801
C33   C     C_3   0.030589 0.517119 0.198522 -0.199487
C34   C     C_3   0.969385 0.517219 0.801502 -0.200097
C35   C     C_3   0.530455 0.017403 0.198672 -0.200783
C36   C     C_3   0.470122 0.018610 0.800694 -0.201363
C37   C     C_3   0.999124 0.499856 0.190014 -0.079793
C38   C     C_3   0.000886 0.499861 0.809975 -0.079528
C39   C     C_3   0.499154 0.999862 0.189983 -0.080748
C40   C     C_3   0.500781 0.999851 0.810074 -0.081196
H5    H     H_    0.942330 0.468719 0.347631 0.185097
H6    H     H_    0.057728 0.468526 0.652308 0.185270
H7    H     H_    0.442634 0.968183 0.347261 0.181301
H8    H     H_    0.556155 0.965842 0.653957 0.181127
H9    H     H_    0.998131 0.434647 0.213037 0.188841
H10   H     H_    0.002002 0.434647 0.786856 0.189007
H11   H     H_    0.498750 0.934645 0.212380 0.188966
H12   H     H_    0.498910 0.934655 0.790049 0.187605
H13   H     H_    0.055327 0.466009 0.233072 0.167088
H14   H     H_    0.944738 0.466181 0.766889 0.167108
H15   H     H_    0.555649 0.966515 0.232748 0.167549
H16   H     H_    0.443190 0.968738 0.768431 0.168449
H17   H     H_    0.056056 0.531170 0.154096 0.172329
H18   H     H_    0.943894 0.531355 0.845950 0.172298
H19   H     H_    0.555795 0.031688 0.154390 0.172515
H20   H     H_    0.445292 0.033909 0.844418 0.173191
C41   C     C_R   0.673305 0.524690 0.284186 0.186701
C42   C     C_R   0.326065 0.521291 0.718530 0.178583
C43   C     C_R   0.173533 0.023304 0.283140 0.182040
C44   C     C_R   0.826303 0.023001 0.717104 0.182008
C45   C     C_R   0.633926 0.521774 0.320910 0.402078
C46   C     C_R   0.365462 0.518673 0.681927 0.415888
C47   C     C_R   0.134150 0.020503 0.319785 0.403237
C48   C     C_R   0.865708 0.020328 0.680392 0.402631
C49   C     C_R   0.614610 0.499984 0.385317 -0.351842
C50   C     C_R   0.385316 0.498913 0.614894 -0.351055
C51   C     C_R   0.114646 0.999507 0.385223 -0.346056
C52   C     C_R   0.885364 0.999411 0.614763 -0.346111
C53   C     C_R   0.634774 0.479684 0.411332 0.172617
C54   C     C_R   0.365566 0.479776 0.586720 0.164872
C55   C     C_R   0.134671 0.979678 0.412114 0.168548
C56   C     C_R   0.865488 0.979531 0.587727 0.168895
C57   C     C_R   0.674054 0.483081 0.375093 0.417010
C58   C     C_R   0.326257 0.482928 0.622838 0.419279
C59   C     C_R   0.173951 0.983018 0.376010 0.418205
C60   C     C_R   0.826181 0.982731 0.623916 0.418274
C61   C     C_R   0.693096 0.504493 0.310560 -0.247197
C62   C     C_R   0.306761 0.502688 0.689428 -0.245800
C63   C     C_R   0.193149 0.003782 0.310682 -0.246121
C64   C     C_R   0.806834 0.003413 0.689436 -0.246002
C65   C     C_1   0.733229 0.504976 0.270954 0.218766
C66   C     C_1   0.266654 0.503181 0.728333 0.220753
C67   C     C_1   0.233269 0.004323 0.271459 0.219241
C68   C     C_1   0.766717 0.003837 0.728688 0.219655
C69   C     C_1   0.766849 0.504767 0.237843 0.166165
C70   C     C_1   0.233050 0.503202 0.761177 0.167421
C71   C     C_1   0.266882 0.004249 0.238511 0.166895
C72   C     C_1   0.733109 0.003719 0.761675 0.167182
C73   C     C_R   0.827474 0.531690 0.145369 0.320274
C74   C     C_R   0.172659 0.530528 0.854235 0.321309
C75   C     C_R   0.327356 0.031395 0.145950 0.321066
C76   C     C_R   0.672562 0.031133 0.853889 0.320876
C77   C     C_R   0.866618 0.529485 0.105651 -0.279108
C78   C     C_R   0.133509 0.528711 0.894144 -0.279973
C79   C     C_R   0.366509 0.029326 0.106085 -0.279679
C80   C     C_R   0.633420 0.029173 0.893706 -0.279686
H21   H     H_    0.882531 0.550585 0.064357 0.209739
H22   H     H_    0.117736 0.549750 0.935858 0.209349
H23   H     H_    0.382321 0.050416 0.064697 0.209503
H24   H     H_    0.617552 0.050470 0.934757 0.209929
C81   C     C_R   0.885545 0.500656 0.118555 -0.230189
C82   C     C_R   0.114400 0.500284 0.881008 -0.229493
C83   C     C_R   0.385568 0.000603 0.118890 -0.229772
C84   C     C_R   0.614443 0.000317 0.881260 -0.229578
C85   C     C_R   0.865151 0.473344 0.172911 0.240635
C86   C     C_R   0.134575 0.473036 0.826142 0.241032
C87   C     C_R   0.365318 0.973301 0.173371 0.241213
C88   C     C_R   0.634784 0.972721 0.827257 0.241986
C89   C     C_R   0.825586 0.474796 0.212596 0.203310
C90   C     C_R   0.174135 0.474137 0.786135 0.203046
C91   C     C_R   0.325755 0.974636 0.213257 0.203093
C92   C     C_R   0.674344 0.973960 0.787405 0.203189
C93   C     C_R   0.806991 0.503866 0.198284 -0.186973
C94   C     C_R   0.192927 0.502757 0.800773 -0.187016
C95   C     C_R   0.307019 0.003561 0.198967 -0.187034
C96   C     C_R   0.692983 0.003058 0.801281 -0.186946
O17   O     O_R   0.031280 0.555400 0.468730 -0.617624
O18   O     O_R   0.968720 0.555400 0.531270 -0.617805
O19   O     O_R   0.531280 0.055400 0.468730 -0.617675
O20   O     O_R   0.468720 0.055400 0.531270 -0.617544
C97   C     C_R   0.999957 0.573396 0.500039 0.864363
C98   C     C_R   0.499956 0.073397 0.500056 0.864284
O21   O     O_R   0.031290 0.499960 0.375690 -0.626361
O22   O     O_R   0.968710 0.499960 0.624310 -0.626480
O23   O     O_R   0.531290 0.999960 0.375690 -0.625619
O24   O     O_R   0.468710 0.999960 0.624310 -0.626289
O25   O     O_R   0.968700 0.499940 0.438280 -0.604546
O26   O     O_R   0.031300 0.499940 0.561720 -0.604447
O27   O     O_R   0.468700 0.999940 0.438280 -0.606193
O28   O     O_R   0.531300 0.999940 0.561720 -0.604787
C99   C     C_R   0.999984 0.499644 0.378321 0.880487
C100  C     C_R   0.000017 0.499637 0.621677 0.880614
C101  C     C_R   0.499985 0.999640 0.378319 0.878628
C102  C     C_R   0.500011 0.999608 0.621681 0.879998
Zn5   Zn    Zn3+2 0.041800 0.499960 0.458210 1.036028
Zn6   Zn    Zn3+2 0.958200 0.499960 0.541790 1.035632
Zn7   Zn    Zn3+2 0.541800 0.999960 0.458210 1.035743
Zn8   Zn    Zn3+2 0.458200 0.999960 0.541790 1.035689
O29   O     O_R   0.031310 0.444530 0.468680 -0.587538
O30   O     O_R   0.968690 0.444530 0.531320 -0.587391
O31   O     O_R   0.531310 0.944530 0.468680 -0.585607
O32   O     O_R   0.468690 0.944530 0.531320 -0.584195
C103  C     C_R   0.000043 0.426667 0.499940 0.984980
C104  C     C_R   0.500073 0.926590 0.499971 0.978382
O33   O     O_R   0.500010 0.555340 0.552490 -0.575372
O34   O     O_R   0.499990 0.555340 0.447510 -0.612834
O35   O     O_R   0.000010 0.055340 0.552490 -0.596544
O36   O     O_R   0.999990 0.055340 0.447510 -0.596341
C105  C     C_R   0.500434 0.573074 0.499542 1.011941
C106  C     C_R   0.000006 0.073112 0.499994 1.023383
O37   O     O_R   0.555450 0.499900 0.497080 -0.586335
O38   O     O_R   0.444550 0.499900 0.502920 -0.593738
O39   O     O_R   0.055450 0.999900 0.497080 -0.586902
O40   O     O_R   0.944550 0.999900 0.502920 -0.587218
O41   O     O_R   0.555440 0.499880 0.392050 -0.602629
O42   O     O_R   0.444560 0.499880 0.607950 -0.596045
O43   O     O_R   0.055440 0.999880 0.392050 -0.601973
O44   O     O_R   0.944560 0.999880 0.607950 -0.601587
C107  C     C_R   0.573322 0.499728 0.426622 1.051393
C108  C     C_R   0.426655 0.499383 0.573431 1.072424
C109  C     C_R   0.073333 0.999542 0.426594 1.068118
C110  C     C_R   0.926671 0.999541 0.573399 1.068085
Zn9   Zn    Zn3+2 0.500010 0.499910 0.570130 1.144348
Zn10  Zn    Zn3+2 0.499990 0.499910 0.429870 1.126911
Zn11  Zn    Zn3+2 0.000010 0.999910 0.570130 1.139015
Zn12  Zn    Zn3+2 0.999990 0.999910 0.429870 1.139063
O45   O     O_R   0.500000 0.444470 0.552540 -0.585376
O46   O     O_R   0.500000 0.444470 0.447460 -0.582065
O47   O     O_R   0.000000 0.944470 0.552540 -0.584342
O48   O     O_R   1.000000 0.944470 0.447460 -0.583963
C111  C     C_R   0.499990 0.426639 0.500002 1.009906
C112  C     C_R   0.999991 0.926638 0.500011 1.008257
C113  C     C_R   0.477232 0.326250 0.565538 -0.178870
C114  C     C_R   0.522144 0.325969 0.435177 -0.178759
C115  C     C_R   0.977394 0.826191 0.565332 -0.178576
C116  C     C_R   0.022185 0.826020 0.434916 -0.178717
H25   H     H_    0.459489 0.310761 0.615616 0.192411
H26   H     H_    0.539776 0.310255 0.385223 0.192494
H27   H     H_    0.959723 0.810658 0.615390 0.192571
H28   H     H_    0.039797 0.810349 0.384894 0.192533
C117  C     C_R   0.476512 0.365566 0.566156 0.290858
C118  C     C_R   0.523046 0.365277 0.434174 0.289963
C119  C     C_R   0.976681 0.865506 0.566113 0.290649
C120  C     C_R   0.023094 0.865328 0.434069 0.290224
C121  C     C_R   0.499866 0.385418 0.500103 -0.258289
C122  C     C_R   0.999930 0.885415 0.500070 -0.257345
C123  C     C_R   0.499660 0.306786 0.500452 0.014598
C124  C     C_R   0.999737 0.806782 0.500139 0.014557
C125  C     C_1   0.499600 0.266765 0.500612 0.041119
C126  C     C_1   0.999674 0.766762 0.500185 0.041462
C127  C     C_1   0.999664 0.733121 0.500198 -0.030436
C128  C     C_1   0.499604 0.233123 0.500643 -0.030822
C129  C     C_R   0.965612 0.673699 0.534242 -0.128771
C130  C     C_R   0.033895 0.673652 0.466064 -0.129059
C131  C     C_R   0.465578 0.173688 0.534564 -0.129162
C132  C     C_R   0.533861 0.173666 0.466389 -0.129406
H29   H     H_    0.939085 0.688828 0.560715 0.158878
H30   H     H_    0.060367 0.688743 0.439620 0.158793
H31   H     H_    0.439046 0.188806 0.561076 0.158758
H32   H     H_    0.560327 0.188768 0.439985 0.158729
C133  C     C_R   0.965637 0.634514 0.534254 -0.168694
C134  C     C_R   0.034017 0.634472 0.465986 -0.168563
C135  C     C_R   0.465619 0.134504 0.534441 -0.168812
C136  C     C_R   0.533999 0.134485 0.466175 -0.169441
H33   H     H_    0.938945 0.619861 0.560914 0.176631
H34   H     H_    0.060767 0.619790 0.439296 0.176728
H35   H     H_    0.438933 0.119842 0.561052 0.176615
H36   H     H_    0.560754 0.119812 0.439438 0.176619
C137  C     C_R   0.999865 0.614622 0.500102 -0.055778
C138  C     C_R   0.499855 0.114623 0.500219 -0.055878
C139  C     C_R   0.999718 0.693114 0.500167 0.133070
C140  C     C_R   0.499677 0.193116 0.500559 0.133216
C141  C     C_R   0.472419 0.673549 0.496198 0.225477
C142  C     C_R   0.536586 0.672379 0.474005 0.238546
C143  C     C_R   0.972874 0.173557 0.491874 0.227158
C144  C     C_R   0.027385 0.173362 0.507761 0.227151
C145  C     C_R   0.470323 0.634205 0.504460 0.191671
C146  C     C_R   0.534494 0.633029 0.482350 0.179522
C147  C     C_R   0.972737 0.134009 0.492138 0.192000
C148  C     C_R   0.027402 0.133815 0.507692 0.192300
C149  C     C_R   0.501235 0.614149 0.498249 -0.340130
C150  C     C_R   0.000044 0.114252 0.499954 -0.348954
C151  C     C_R   0.505393 0.692413 0.481693 -0.223180
C152  C     C_R   0.000161 0.192915 0.499764 -0.229175
C153  C     C_1   0.505602 0.732756 0.482492 0.171946
C154  C     C_1   0.000214 0.233138 0.499682 0.165009
C155  C     C_1   0.000239 0.266789 0.499640 0.198999
C156  C     C_1   0.504967 0.766457 0.485003 0.201378
C157  C     C_R   0.973879 0.326423 0.489263 0.373517
C158  C     C_R   0.026546 0.326333 0.510034 0.373549
C159  C     C_R   0.474742 0.826057 0.486680 0.366586
C160  C     C_R   0.530525 0.826177 0.497484 0.367561
C161  C     C_R   0.974886 0.365844 0.486129 0.348834
C162  C     C_R   0.025446 0.365759 0.513308 0.348842
C163  C     C_R   0.474278 0.865569 0.487631 0.347573
C164  C     C_R   0.527943 0.865474 0.505586 0.348631
C165  C     C_R   0.000134 0.385550 0.499776 -0.403920
C166  C     C_R   0.500498 0.885335 0.498430 -0.402496
C167  C     C_R   0.000231 0.306924 0.499625 -0.273246
C168  C     C_R   0.503508 0.806651 0.489431 -0.266603
O49   O     O_3   0.693982 0.462170 0.398891 -0.532331
C169  C     C_3   0.704003 0.485852 0.439393 -0.058318
H37   H     H_    0.715571 0.468110 0.466099 0.216096
H38   H     H_    0.679330 0.501418 0.483383 0.163347
H39   H     H_    0.726291 0.506096 0.403269 0.130646
O50   O     O_3   0.306771 0.463301 0.596578 -0.532822
C170  C     C_3   0.296864 0.488452 0.557838 -0.063289
H40   H     H_    0.285556 0.471872 0.529312 0.215309
H41   H     H_    0.321551 0.504552 0.515456 0.164441
H42   H     H_    0.274418 0.508282 0.595482 0.130729
O51   O     O_3   0.193732 0.962649 0.400836 -0.532740
C171  C     C_3   0.203577 0.986948 0.440789 -0.059463
H43   H     H_    0.215078 0.969690 0.468230 0.215818
H44   H     H_    0.178824 0.002693 0.484159 0.164749
H45   H     H_    0.225862 0.007069 0.404157 0.130348
O52   O     O_3   0.806553 0.962307 0.598949 -0.532981
C172  C     C_3   0.796480 0.986586 0.559249 -0.060847
H46   H     H_    0.785130 0.969297 0.531645 0.215666
H47   H     H_    0.821087 0.002438 0.516029 0.164934
H48   H     H_    0.774016 0.006612 0.596091 0.130492
N1    N     N_R   0.809158 0.562311 0.131367 0.245276
O53   O     O_R   0.824689 0.577158 0.066371 -0.332248
O54   O     O_R   0.779562 0.578522 0.184887 -0.307050
N2    N     N_R   0.191196 0.560657 0.868713 0.245723
O55   O     O_R   0.175744 0.575322 0.933913 -0.331886
O56   O     O_R   0.221011 0.576600 0.815514 -0.311436
N3    N     N_R   0.308885 0.061857 0.131922 0.245408
O57   O     O_R   0.324362 0.076709 0.066937 -0.332794
O58   O     O_R   0.279138 0.077901 0.185386 -0.310791
N4    N     N_R   0.690936 0.061741 0.867541 0.245448
O59   O     O_R   0.675409 0.076895 0.932343 -0.332334
O60   O     O_R   0.720635 0.077596 0.813887 -0.311438
N5    N     N_R   0.884358 0.444512 0.188576 0.245515
O61   O     O_R   0.876080 0.409216 0.188145 -0.297108
O62   O     O_R   0.908732 0.453583 0.207126 -0.349184
N6    N     N_R   0.115148 0.444592 0.810379 0.245347
O63   O     O_R   0.123355 0.409174 0.810146 -0.297629
O64   O     O_R   0.090601 0.454135 0.792487 -0.350536
N7    N     N_R   0.384670 0.944570 0.188902 0.245338
O65   O     O_R   0.376465 0.909239 0.188588 -0.298643
O66   O     O_R   0.409116 0.953763 0.207191 -0.349692
N8    N     N_R   0.615539 0.943770 0.812198 0.245438
O67   O     O_R   0.623794 0.908488 0.813323 -0.299595
O68   O     O_R   0.591200 0.952688 0.793400 -0.346517
N9    N     N_R   0.804426 0.447650 0.269256 0.237586
O69   O     O_R   0.812151 0.441773 0.320402 -0.294615
O70   O     O_R   0.777494 0.428617 0.269799 -0.309841
N10   N     N_R   0.195081 0.447095 0.728890 0.238555
O71   O     O_R   0.187072 0.441690 0.678019 -0.292369
O72   O     O_R   0.222107 0.427692 0.727516 -0.310715
N11   N     N_R   0.304743 0.947507 0.270054 0.238020
O73   O     O_R   0.312617 0.941769 0.321035 -0.293857
O74   O     O_R   0.277809 0.928339 0.270876 -0.310358
N12   N     N_R   0.695447 0.946547 0.731042 0.238247
O75   O     O_R   0.687560 0.940377 0.680213 -0.292760
O76   O     O_R   0.722493 0.927564 0.730443 -0.310672
N13   N     N_R   0.450997 0.384638 0.633473 0.226812
O77   O     O_R   0.429584 0.411700 0.634212 -0.375200
O78   O     O_R   0.444711 0.371080 0.695519 -0.344335
N14   N     N_R   0.548457 0.384022 0.366523 0.227938
O79   O     O_R   0.569930 0.411080 0.365149 -0.364400
O80   O     O_R   0.554523 0.370214 0.304778 -0.342074
N15   N     N_R   0.951335 0.884510 0.633636 0.227630
O81   O     O_R   0.929858 0.911630 0.634845 -0.369784
O82   O     O_R   0.945276 0.870852 0.695458 -0.342397
N16   N     N_R   0.048556 0.884135 0.366534 0.227599
O83   O     O_R   0.070069 0.911095 0.365370 -0.368968
O84   O     O_R   0.054651 0.870443 0.304690 -0.342234
N17   N     N_R   0.440562 0.694465 0.505174 0.234903
O85   O     O_R   0.407358 0.689270 0.562614 -0.304667
O86   O     O_R   0.444618 0.718590 0.455662 -0.325943
N18   N     N_R   0.570079 0.691995 0.459378 0.252584
O87   O     O_R   0.585866 0.684613 0.497291 -0.281674
O88   O     O_R   0.585505 0.716568 0.406727 -0.366645
N19   N     N_R   0.944556 0.193993 0.485976 0.238730
O89   O     O_R   0.954120 0.220000 0.436482 -0.322443
O90   O     O_R   0.909098 0.186334 0.529568 -0.296556
N20   N     N_R   0.055765 0.193590 0.513564 0.238819
O91   O     O_R   0.091197 0.185614 0.470062 -0.296008
O92   O     O_R   0.046281 0.219729 0.562877 -0.322591
N21   N     N_R   0.935661 0.537764 0.274744 0.220709
O93   O     O_R   0.913127 0.552332 0.338856 -0.343699
O94   O     O_R   0.927068 0.539973 0.224161 -0.354419
N22   N     N_R   0.064272 0.537583 0.725263 0.221071
O95   O     O_R   0.086806 0.552004 0.661117 -0.343761
O96   O     O_R   0.072781 0.539945 0.775941 -0.353951
N23   N     N_R   0.435361 0.037212 0.275033 0.220831
O97   O     O_R   0.412632 0.051472 0.339342 -0.343755
O98   O     O_R   0.426897 0.039592 0.224289 -0.354801
N24   N     N_R   0.565796 0.034674 0.723849 0.221286
O99   O     O_R   0.589177 0.047743 0.658913 -0.342890
O100  O     O_R   0.573938 0.037390 0.774995 -0.356545
N25   N     N_R   0.437123 0.614549 0.517579 0.244233
O101  O     O_R   0.422996 0.620763 0.476341 -0.290510
O102  O     O_R   0.420710 0.590616 0.571190 -0.354839
N26   N     N_R   0.567094 0.612081 0.469272 0.229845
O103  O     O_R   0.598782 0.615827 0.407619 -0.274912
O104  O     O_R   0.565880 0.591140 0.520527 -0.340760
N27   N     N_R   0.944752 0.113991 0.484797 0.251634
O105  O     O_R   0.939660 0.121421 0.430707 -0.285291
O106  O     O_R   0.923323 0.089299 0.533676 -0.364256
N28   N     N_R   0.055326 0.113600 0.515137 0.251623
O107  O     O_R   0.060382 0.120975 0.569280 -0.285621
O108  O     O_R   0.076784 0.088830 0.466222 -0.364745
O109  O     O_3   0.948950 0.306957 0.476475 -0.552460
C173  C     C_3   0.915007 0.302309 0.543773 -0.076160
H49   H     H_    0.901749 0.329955 0.568175 0.164828
H50   H     H_    0.919398 0.285693 0.583096 0.136246
H51   H     H_    0.895075 0.286387 0.533789 0.220498
O110  O     O_3   0.051512 0.306782 0.522775 -0.552514
C174  C     C_3   0.085450 0.302002 0.455455 -0.076272
H52   H     H_    0.098661 0.329599 0.431057 0.164857
H53   H     H_    0.081069 0.285386 0.416145 0.136332
H54   H     H_    0.105417 0.286021 0.465402 0.220355
O111  O     O_3   0.448636 0.806556 0.477419 -0.556756
C175  C     C_3   0.416405 0.800608 0.546938 -0.065752
H55   H     H_    0.403140 0.827742 0.574402 0.161938
H56   H     H_    0.423130 0.783332 0.582371 0.139407
H57   H     H_    0.395461 0.784798 0.539788 0.224147
O112  O     O_3   0.557869 0.806563 0.502875 -0.572304
C176  C     C_3   0.591460 0.807310 0.434047 -0.071080
H58   H     H_    0.602900 0.836372 0.419159 0.171729
H59   H     H_    0.587359 0.795261 0.390387 0.158348
H60   H     H_    0.612786 0.789740 0.437048 0.220379
O113  O     O_3   0.950075 0.384990 0.472376 -0.562355
C177  C     C_3   0.967291 0.389928 0.396090 -0.171034
H61   H     H_    0.975267 0.362482 0.366514 0.189698
H62   H     H_    0.992315 0.408604 0.374528 0.110221
H63   H     H_    0.946804 0.403678 0.384710 0.191636
O114  O     O_3   0.050216 0.384824 0.527115 -0.562301
C178  C     C_3   0.032999 0.389777 0.603418 -0.170688
H64   H     H_    0.025121 0.362338 0.632882 0.189789
H65   H     H_    0.007914 0.408498 0.625079 0.110004
H66   H     H_    0.053450 0.403483 0.614828 0.191759
O115  O     O_3   0.447249 0.884658 0.480399 -0.562202
C179  C     C_3   0.461353 0.890776 0.405273 -0.163155
H67   H     H_    0.468347 0.863785 0.374302 0.189389
H68   H     H_    0.486365 0.909583 0.381045 0.108422
H69   H     H_    0.439219 0.904918 0.399280 0.192112
O116  O     O_3   0.553405 0.884425 0.517588 -0.565708
C180  C     C_3   0.537881 0.887867 0.593765 -0.175012
H70   H     H_    0.531379 0.859833 0.621008 0.185497
H71   H     H_    0.512256 0.905964 0.619027 0.112617
H72   H     H_    0.558914 0.901567 0.603542 0.193065
N29   N     N_R   0.692852 0.548619 0.221008 0.242637
O117  O     O_R   0.680376 0.582400 0.221866 -0.243696
O118  O     O_R   0.721507 0.535847 0.160728 -0.342526
N30   N     N_R   0.306001 0.543307 0.784492 0.243336
O119  O     O_R   0.277211 0.529203 0.842753 -0.344029
O120  O     O_R   0.318076 0.576572 0.788114 -0.250329
N31   N     N_R   0.193264 0.046426 0.218785 0.242989
O121  O     O_R   0.222058 0.033092 0.159371 -0.342191
O122  O     O_R   0.180863 0.079986 0.217726 -0.257770
N32   N     N_R   0.806397 0.046067 0.781643 0.243049
O123  O     O_R   0.777693 0.032665 0.840946 -0.342475
O124  O     O_R   0.818542 0.079656 0.782962 -0.257672
O125  O     O_3   0.613922 0.541981 0.296391 -0.545230
C181  C     C_3   0.615350 0.522362 0.237337 -0.105331
H73   H     H_    0.595632 0.536116 0.223812 0.189907
H74   H     H_    0.606406 0.492458 0.251344 0.162362
H75   H     H_    0.643903 0.523588 0.187653 0.183334
O126  O     O_3   0.384873 0.537144 0.709648 -0.532218
C182  C     C_3   0.383740 0.514892 0.765703 -0.103282
H76   H     H_    0.402673 0.527674 0.782174 0.190942
H77   H     H_    0.393854 0.485620 0.746902 0.165140
H78   H     H_    0.354994 0.514218 0.814939 0.179860
O127  O     O_3   0.114357 0.040025 0.293967 -0.546360
C183  C     C_3   0.115710 0.019310 0.236053 -0.104866
H79   H     H_    0.096297 0.032691 0.221318 0.190902
H80   H     H_    0.106331 0.989646 0.251993 0.163963
H81   H     H_    0.144352 0.019733 0.186514 0.182807
O128  O     O_3   0.885358 0.039894 0.706349 -0.546538
C184  C     C_3   0.884174 0.019168 0.764090 -0.104208
H82   H     H_    0.903503 0.032585 0.778893 0.190728
H83   H     H_    0.893763 0.989525 0.747924 0.164526
H84   H     H_    0.855538 0.019529 0.813653 0.182784
N33   N     N_R   0.615780 0.454091 0.472017 0.263468
O129  O     O_R   0.623454 0.453763 0.524009 -0.321498
O130  O     O_R   0.592445 0.429278 0.473096 -0.338198
N34   N     N_R   0.385007 0.455377 0.524065 0.263707
O131  O     O_R   0.377771 0.456693 0.471520 -0.322046
O132  O     O_R   0.408191 0.429878 0.521771 -0.338078
N35   N     N_R   0.115538 0.954533 0.473507 0.263079
O133  O     O_R   0.123020 0.954823 0.525759 -0.319947
O134  O     O_R   0.092313 0.929462 0.474957 -0.339066
N36   N     N_R   0.884810 0.954474 0.526084 0.263236
O135  O     O_R   0.877351 0.954831 0.473801 -0.320264
O136  O     O_R   0.908182 0.929405 0.524431 -0.339423

loop_
_geom_bond_atom_site_label_1
_geom_bond_atom_site_label_2
_geom_bond_distance
_ccdc_geom_bond_type
C59   C63   1.405847 A    
C182  H76   1.109168 S    
C98   C138  1.463447 S    
C89   C93   1.410883 A    
N25   O101  1.301192 A    
C31   C35   1.548206 S    
C114  C118  1.395837 A    
O28   Zn7   2.016521 S    
O48   C112  1.286183 A    
N3    O57   1.301518 A    
C14   C18   1.533028 S    
C64   C68   1.425825 S    
C92   C96   1.410699 A    
C71   C95   1.426560 S    
N7    O66   1.301308 A    
C118  N14   1.438779 S    
N17   O85   1.301212 A    
O128  C184  1.412650 S    
C172  H48   1.110517 S    
C91   C95   1.410740 A    
C134  C137  1.404926 A    
C145  C149  1.409847 A    
C111  C121  1.463302 S    
C47   C51   1.412595 A    
C55   C59   1.402954 A    
C170  H40   1.109187 S    
C9    C13   1.532032 S    
C60   C64   1.405750 A    
C44   N32   1.439242 S    
O22   Zn6   2.017646 S    
C23   H7    1.109601 S    
C73   N1    1.441020 S    
C30   H14   1.110149 S    
O26   C100  1.268165 A    
N14   O79   1.301005 A    
C142  C151  1.407971 A    
C119  C122  1.419606 A    
C157  O109  1.382997 S    
O25   C99   1.268160 A    
O4    C4    1.281081 A    
O21   C99   1.269840 A    
C27   C39   1.536873 S    
O17   C97   1.282021 A    
C112  C122  1.463359 S    
C116  C120  1.395826 A    
C25   H9    1.110225 S    
C86   C90   1.406520 A    
C27   H11   1.110220 S    
C160  O112  1.383243 S    
C152  C154  1.427824 S    
O38   Zn10  2.005287 S    
C143  N19   1.438137 S    
C129  H29   1.083744 S    
C146  C149  1.409872 A    
N16   O83   1.301065 A    
O46   C111  1.285983 A    
C70   C94   1.426055 S    
O33   Zn9   2.003229 S    
C46   C50   1.413120 A    
N20   O91   1.301176 A    
C177  H62   1.113029 S    
O41   Zn10  2.006360 S    
O16   Zn4   2.017344 S    
O36   Zn12  2.003259 S    
C184  H82   1.109179 S    
O13   C5    1.269092 A    
O7    Zn4   2.005996 S    
C86   N6    1.436333 S    
C143  C152  1.406820 A    
C53   N33   1.439532 S    
O15   C7    1.269049 A    
N35   O134  1.301149 A    
C28   H12   1.110222 S    
O42   Zn9   2.006357 S    
O43   Zn12  2.006360 S    
C173  H50   1.113415 S    
N7    O65   1.301109 A    
C80   C84   1.398858 A    
N8    O67   1.301101 A    
O9    C5    1.267523 A    
O116  C180  1.410044 S    
C85   C89   1.406861 A    
C91   N11   1.438441 S    
C183  H79   1.109181 S    
C75   C95   1.409330 A    
C142  C146  1.405335 A    
C160  C168  1.401939 A    
O113  C177  1.410214 S    
O8    Zn4   2.004140 S    
C73   C93   1.409165 A    
C16   C20   1.533048 S    
N6    O63   1.301105 A    
C106  C150  1.460381 S    
O37   C107  1.287592 A    
C184  H84   1.110767 S    
O38   C108  1.288705 A    
O3    Zn2   2.004209 S    
C44   C48   1.404535 A    
N18   O87   1.301224 A    
C174  H52   1.113123 S    
C33   C37   1.535102 S    
C4    C84   1.462098 S    
C79   H23   1.083921 S    
C35   C39   1.535101 S    
C55   N35   1.439438 S    
C36   C40   1.535040 S    
C56   N36   1.439400 S    
C26   H10   1.110227 S    
C13   C17   1.533063 S    
N1    O54   1.301272 A    
C180  H70   1.113577 S    
C74   N2    1.441268 S    
C25   C29   1.547080 S    
C85   N5    1.436270 S    
N22   O95   1.300176 A    
C48   O128  1.385054 S    
C27   C31   1.547101 S    
C83   C87   1.411344 A    
C183  H80   1.114073 S    
O3    C3    1.281011 A    
O114  C178  1.410225 S    
O40   C110  1.288044 A    
C81   C85   1.411261 A    
C24   C28   1.549248 S    
N13   O77   1.301081 A    
C14   C34   1.551308 S    
O28   C102  1.268352 A    
C82   C86   1.411297 A    
C63   C67   1.426111 S    
N29   O117  1.301268 A    
C104  C166  1.464707 S    
O19   Zn7   2.002277 S    
Zn7   O31   2.003590 S    
O42   C108  1.286244 A    
C155  C167  1.424726 S    
C175  H55   1.113091 S    
C176  H59   1.113847 S    
N36   O136  1.301128 A    
O125  C181  1.412581 S    
C158  O110  1.382968 S    
C72   C96   1.426282 S    
N23   O97   1.300175 A    
C144  C148  1.403831 A    
C129  C139  1.395840 A    
C173  H49   1.113112 S    
C41   C61   1.405348 A    
C182  H77   1.114064 S    
C43   C63   1.405275 A    
C12   C16   1.531757 S    
C87   N7    1.436310 S    
N30   O119  1.301269 A    
N3    O58   1.301291 A    
C45   C49   1.412204 A    
C130  C139  1.395774 A    
C103  C165  1.459582 S    
C52   C110  1.467967 S    
O115  C179  1.410227 S    
C164  O116  1.383125 S    
C52   C56   1.414240 A    
N10   O71   1.301169 A    
C141  C151  1.407583 A    
C78   H22   1.083943 S    
O110  C174  1.409584 S    
N12   O76   1.301200 A    
O5    Zn3   2.005996 S    
O17   Zn5   2.002277 S    
C183  H81   1.110772 S    
O6    Zn3   2.004140 S    
C92   N12   1.438500 S    
C114  H26   1.084282 S    
C184  H83   1.114079 S    
N31   O122  1.301237 A    
C144  N20   1.438174 S    
C15   C19   1.533056 S    
O8    C4    1.279776 A    
C31   H15   1.110144 S    
C157  C167  1.402176 A    
O26   Zn5   2.016521 S    
O32   C104  1.282859 A    
N5    O62   1.301340 A    
C11   N23   1.457957 S    
N26   O103  1.301162 A    
O36   C106  1.284395 A    
N32   O124  1.301236 A    
N9    O70   1.301164 A    
C9    C37   1.519282 S    
C10   C14   1.532011 S    
O13   Zn3   2.017309 S    
C11   C39   1.519260 S    
O52   C172  1.412397 S    
C12   C40   1.519254 S    
C179  H68   1.113152 S    
C180  H72   1.108617 S    
N15   O82   1.301358 A    
C10   N22   1.457968 S    
C134  H34   1.082971 S    
O18   Zn6   2.004141 S    
C1    C81   1.462272 S    
C76   C80   1.392988 A    
N34   O131  1.300658 A    
N2    O56   1.301293 A    
C3    C83   1.461966 S    
O5    C1    1.279670 A    
O127  C183  1.412637 S    
C88   C92   1.406658 A    
C147  C150  1.411224 A    
C147  N27   1.437243 S    
C42   C62   1.405095 A    
C148  N28   1.437154 S    
O15   Zn4   2.017309 S    
C17   C29   1.532674 S    
C169  H38   1.113788 S    
C175  H57   1.109209 S    
C73   C77   1.393141 A    
C19   C31   1.532729 S    
C75   C79   1.393205 A    
C21   H5    1.109756 S    
C181  H73   1.109195 S    
C44   C64   1.405278 A    
C53   C57   1.402968 A    
C47   O127  1.385047 S    
C54   N34   1.439233 S    
C174  H54   1.109238 S    
C65   C69   1.194823 T    
C36   H20   1.110254 S    
C153  C156  1.197145 T    
C17   C21   1.534212 S    
N19   O90   1.301175 A    
O14   C6    1.269056 A    
C67   C71   1.194607 T    
C10   C22   1.530514 S    
C88   N8    1.436253 S    
C179  H67   1.113303 S    
C19   C101  1.434696 S    
C169  H39   1.110491 S    
C143  C147  1.403891 A    
O1    Zn1   2.004209 S    
C145  N25   1.437741 S    
C172  H47   1.113780 S    
C141  C145  1.404966 A    
Zn10  O46   2.003415 S    
C42   N30   1.439387 S    
O10   C6    1.267568 A    
C19   C23   1.534192 S    
C56   C60   1.402816 A    
C7    C39   1.436223 S    
C148  C150  1.411245 A    
C74   C94   1.409443 A    
C49   C53   1.414122 A    
O45   C111  1.286310 A    
C156  C168  1.429040 S    
C51   C55   1.414208 A    
C157  C161  1.400646 A    
C171  H43   1.109183 S    
C181  H75   1.110701 S    
C8    C40   1.436313 S    
N24   O99   1.300170 A    
O34   Zn10  2.003259 S    
O33   C105  1.284229 A    
C2    C82   1.461304 S    
C77   C81   1.398951 A    
C41   C45   1.404703 A    
C129  C133  1.390969 A    
C17   C99   1.434679 S    
C79   C83   1.398779 A    
C34   C38   1.535104 S    
C170  H42   1.110560 S    
C43   C47   1.404596 A    
C97   C137  1.463422 S    
N4    O60   1.301289 A    
C20   C102  1.434623 S    
C113  C117  1.395803 A    
O51   C171  1.412390 S    
N2    O55   1.301520 A    
O111  C175  1.409809 S    
C76   N4    1.441186 S    
C26   C30   1.547073 S    
N16   O84   1.301362 A    
Zn6   O30   2.001732 S    
C22   H6    1.109762 S    
C66   C70   1.194313 T    
N4    O59   1.301514 A    
O40   Zn12  2.005287 S    
C178  H66   1.108412 S    
C130  C134  1.390793 A    
N33   O130  1.301126 A    
O126  C182  1.412574 S    
C54   C58   1.402833 A    
O39   C109  1.288136 A    
C132  C136  1.390834 A    
C15   C35   1.551344 S    
C115  C124  1.391007 A    
O44   C110  1.286196 A    
N28   O107  1.301132 A    
Zn8   O32   2.001732 S    
C120  N16   1.438715 S    
N8    O68   1.301303 A    
N27   O105  1.301135 A    
N21   O94   1.300039 A    
C5    C37   1.436260 S    
C45   O125  1.385135 S    
C151  C153  1.432281 S    
C51   C109  1.468159 S    
N11   O73   1.301179 A    
N25   O102  1.300750 A    
C11   C23   1.530561 S    
C115  H27   1.084279 S    
C12   C24   1.530954 S    
O18   C97   1.282172 A    
N32   O123  1.301261 A    
C179  H69   1.108499 S    
C89   N9    1.438386 S    
N6    O64   1.301311 A    
C50   C54   1.414463 A    
C159  O111  1.382874 S    
N17   O86   1.301066 A    
O12   Zn2   2.017170 S    
O24   Zn8   2.017646 S    
O35   C106  1.284361 A    
C119  N15   1.438654 S    
N35   O133  1.300659 A    
C162  O114  1.383087 S    
C33   H17   1.110264 S    
C163  O115  1.383000 S    
O20   C98   1.282140 A    
C28   C40   1.536958 S    
O19   C98   1.282063 A    
C35   H19   1.110259 S    
C29   C33   1.548263 S    
C23   C27   1.549280 S    
C154  C155  1.194535 T    
C42   C46   1.404232 A    
C133  H33   1.082968 S    
C68   C72   1.194443 T    
C15   H3    1.110250 S    
N1    O53   1.301513 A    
C20   C32   1.532844 S    
N19   O89   1.301107 A    
C171  H45   1.110524 S    
C21   C25   1.549339 S    
N22   O96   1.300022 A    
O1    C1    1.281284 A    
C24   H8    1.109694 S    
C141  N17   1.437823 S    
N18   O88   1.300872 A    
C50   C108  1.469241 S    
C10   C38   1.519323 S    
C18   C22   1.534201 S    
C128  C140  1.420168 S    
C11   C15   1.531972 S    
O23   Zn7   2.017639 S    
C49   C107  1.467293 S    
C136  H36   1.082968 S    
C175  H56   1.113492 S    
C176  H58   1.112234 S    
C125  C128  1.194216 T    
C105  C149  1.458478 S    
C135  C138  1.404967 A    
C117  N13   1.438605 S    
C59   O51   1.385292 S    
O24   C102  1.269625 A    
O30   C103  1.280599 A    
O6    C2    1.279570 A    
O4    Zn2   2.006064 S    
C178  H64   1.113480 S    
N23   O98   1.300024 A    
C177  H61   1.113488 S    
O27   Zn8   2.016515 S    
C133  C137  1.404947 A    
N30   O120  1.301239 A    
N15   O81   1.301031 A    
C58   C62   1.405556 A    
C18   C30   1.532671 S    
O47   C112  1.286145 A    
C25   C37   1.536889 S    
C135  H35   1.082966 S    
N10   O72   1.301207 A    
O2    Zn1   2.006064 S    
O10   Zn1   2.017170 S    
O27   C101  1.268210 A    
C13   H1    1.110245 S    
C173  H51   1.109237 S    
C34   H18   1.110264 S    
C131  H31   1.083744 S    
C32   C36   1.547997 S    
C159  C168  1.402951 A    
C9    C21   1.530484 S    
C144  C152  1.406762 A    
O50   C170  1.412359 S    
O22   C100  1.269822 A    
C131  C135  1.390948 A    
O23   C101  1.269797 A    
O34   C105  1.283437 A    
C20   C24   1.534097 S    
C32   H16   1.110149 S    
N5    O61   1.301094 A    
C18   C100  1.434659 S    
C163  C166  1.409808 A    
O21   Zn5   2.017639 S    
O112  C176  1.410004 S    
C177  H63   1.108401 S    
N26   O104  1.300618 A    
N9    O69   1.301163 A    
C58   O50   1.385256 S    
O7    C3    1.279752 A    
C116  C124  1.391061 A    
C113  C123  1.391030 A    
C69   C93   1.426890 S    
C87   C91   1.406654 A    
C180  H71   1.113130 S    
C146  N26   1.436896 S    
C158  C162  1.400761 A    
C160  C164  1.402679 A    
O35   Zn11  2.003229 S    
N34   O132  1.301215 A    
C77   H21   1.083915 S    
C46   O126  1.384933 S    
N20   O92   1.301111 A    
O16   C8    1.269104 A    
N13   O78   1.301353 A    
C113  H25   1.084272 S    
O44   Zn11  2.006357 S    
N29   O118  1.301221 A    
O49   C169  1.412407 S    
C136  C138  1.404911 A    
C176  H60   1.109228 S    
O11   C7    1.267545 A    
N36   O135  1.300656 A    
O12   C8    1.267519 A    
C60   O52   1.385303 S    
C181  H74   1.114064 S    
N27   O106  1.301126 A    
O9    Zn1   2.017194 S    
C161  O113  1.383077 S    
C84   C88   1.411484 A    
C9    N21   1.457950 S    
C12   N24   1.457911 S    
C130  H30   1.083759 S    
O41   C107  1.286295 A    
C174  H53   1.113412 S    
C61   C65   1.426422 S    
C182  H78   1.110904 S    
C159  C163  1.402687 A    
N11   O74   1.301172 A    
O39   Zn11  2.005288 S    
C48   C52   1.412544 A    
C16   H4    1.110254 S    
C127  C139  1.420144 S    
C164  C166  1.410579 A    
O43   C109  1.286203 A    
C126  C127  1.194199 T    
O11   Zn2   2.017194 S    
C172  H46   1.109186 S    
O37   Zn9   2.005288 S    
C161  C165  1.409231 A    
O29   C103  1.280736 A    
N12   O75   1.301167 A    
Zn11  O47   2.003444 S    
C116  H28   1.084278 S    
C6    C38   1.436272 S    
N31   O121  1.301256 A    
C117  C121  1.419482 A    
C115  C119  1.395792 A    
C114  C123  1.391075 A    
C74   C78   1.393033 A    
N14   O80   1.301371 A    
C123  C125  1.420681 S    
C171  H44   1.113779 S    
C158  C167  1.402249 A    
O31   C104  1.281181 A    
N24   O100  1.300005 A    
C26   C38   1.536906 S    
Zn5   O29   2.003590 S    
C162  C165  1.409208 A    
O2    C2    1.280837 A    
C43   N31   1.439195 S    
C132  H32   1.083757 S    
C41   N29   1.438868 S    
O109  C173  1.409600 S    
C30   C34   1.548248 S    
C57   O49   1.385332 S    
C170  H41   1.113766 S    
C13   C33   1.551313 S    
O20   Zn8   2.004141 S    
C14   H2    1.110252 S    
Zn9   O45   2.003444 S    
C131  C140  1.395820 A    
C132  C140  1.395805 A    
C29   H13   1.110145 S    
O14   Zn3   2.017344 S    
C124  C126  1.420659 S    
C16   C36   1.551447 S    
C90   C94   1.410650 A    
C22   C26   1.549345 S    
O25   Zn6   2.016515 S    
C75   N3    1.441146 S    
C178  H65   1.113027 S    
C118  C121  1.419615 A    
N33   O129  1.300645 A    
C62   C66   1.425609 S    
N28   O108  1.301083 A    
C169  H37   1.109129 S    
Zn12  O48   2.003415 S    
C80   H24   1.083917 S    
C120  C122  1.419553 A    
C142  N18   1.438147 S    
C78   C82   1.398524 A    
N21   O93   1.300178 A    
C57   C61   1.405994 A    
C28   C32   1.547145 S    
C90   N10   1.438508 S    
C76   C96   1.409216 A    
