data_mof_unit_62900.cif
_audit_creation_date              2012-10-26T20:29:36-0400
_audit_creation_method            fapswitch 2.2
_symmetry_space_group_name_H-M    P1
_symmetry_Int_Tables_number       1
_space_group_crystal_system       triclinic
_cell_length_a                    13.931931
_cell_length_b                    15.125596
_cell_length_c                    17.002896
_cell_angle_alpha                 88.430023
_cell_angle_beta                  95.132648
_cell_angle_gamma                 89.028898
_cell_volume                      3566.61540002

loop_
_atom_site_label
_atom_site_type_symbol
_atom_type_description
_atom_site_fract_x
_atom_site_fract_y
_atom_site_fract_z
_atom_type_partial_charge
C1    C     C_R   0.500544 0.329849 0.499452 0.581084
C2    C     C_R   0.566159 0.904754 0.462610 -0.108029
C3    C     C_R   0.500790 0.047792 0.503063 0.061518
C4    C     C_R   0.498440 0.950661 0.503152 0.064055
C5    C     C_R   0.098471 0.523093 0.432909 0.248088
C6    C     C_R   0.897440 0.428326 0.531681 0.248421
C7    C     C_R   0.199415 0.531414 0.435734 0.393404
C8    C     C_R   0.797150 0.433029 0.537418 0.387806
C9    C     C_R   0.217602 0.473572 0.566497 0.004660
C10   C     C_R   0.785331 0.570242 0.467650 0.031319
C11   C     C_R   0.116744 0.479754 0.571275 0.090186
C12   C     C_R   0.499277 0.669861 0.499750 0.579470
C13   C     C_R   0.887035 0.575953 0.472767 0.096612
C14   C     C_R   0.054526 0.501227 0.502180 0.053389
C15   C     C_R   0.945329 0.501871 0.502063 0.055881
C16   C     C_R   0.512907 0.499779 0.650918 0.629011
C17   C     C_R   0.487044 0.501620 0.349206 0.636326
C18   C     C_R   0.521552 0.505525 0.737049 0.020069
C19   C     C_R   0.477219 0.505979 0.263020 0.031641
C20   C     C_R   0.577971 0.571825 0.774199 0.168841
C21   C     C_R   0.515818 0.577612 0.222458 0.178380
C22   C     C_R   0.578484 0.582035 0.856338 0.158727
C23   C     C_R   0.586693 0.184770 0.520932 -0.091459
C24   C     C_R   0.505496 0.582125 0.139269 0.183246
C25   C     C_R   0.522934 0.526361 0.900861 0.172767
C26   C     C_R   0.459865 0.512218 0.097381 0.171955
C27   C     C_R   0.469868 0.458500 0.863436 -0.095124
C28   C     C_R   0.418698 0.443762 0.138724 -0.091033
C29   C     C_R   0.468822 0.448082 0.782438 0.157465
C30   C     C_R   0.426831 0.440088 0.220850 0.181448
C31   C     C_R   0.586957 0.092415 0.525057 0.125996
C32   C     C_R   0.429014 0.903405 0.542267 0.132527
C33   C     C_3   0.045605 0.540320 0.683474 -0.279133
C34   C     C_R   0.428218 0.811178 0.538755 -0.096779
C35   C     C_3   0.971555 0.709167 0.509913 -0.293167
C36   C     C_3   0.462134 0.725926 0.082117 -0.261904
C37   C     C_3   0.580523 0.733048 0.897408 -0.264819
C38   C     C_3   0.678485 0.010832 0.631636 -0.277780
C39   C     C_3   0.397889 0.976550 0.662217 -0.285903
C40   C     C_R   0.501365 0.233048 0.499018 0.008283
C41   C     C_R   0.497845 0.766057 0.499958 0.024166
C42   C     C_R   0.416178 0.188249 0.477762 -0.098958
C43   C     C_R   0.566997 0.813061 0.462243 -0.107553
C44   C     C_R   0.416266 0.096423 0.478718 -0.103047
Cl1   Cl    Cl    0.571496 0.664787 0.275805 -0.633899
Cl2   Cl    Cl    0.642288 0.646841 0.717833 -0.629277
Cl3   Cl    Cl    0.244026 0.595583 0.359530 -0.456185
Cl4   Cl    Cl    0.748250 0.358124 0.603164 -0.505533
Cl5   Cl    Cl    0.403065 0.359783 0.740375 -0.600232
Cl6   Cl    Cl    0.376973 0.349358 0.269036 -0.546120
Cl7   Cl    Cl    0.029343 0.535967 0.340590 -0.458676
Cl8   Cl    Cl    0.959989 0.327462 0.557780 -0.493874
Cu1   Cu    Cu3+1 0.596430 0.499990 0.500000 1.109375
Cu2   Cu    Cu3+1 0.403570 0.500010 0.500000 1.092197
H1    H     H_    0.263108 0.451566 0.618224 0.190839
H2    H     H_    0.618604 0.940087 0.431130 0.157487
H3    H     H_    0.123690 0.422770 0.683910 0.288160
H4    H     H_    0.019780 0.520506 0.741192 0.182124
H5    H     H_    0.984327 0.572754 0.646986 0.157736
H6    H     H_    0.104966 0.587960 0.693912 0.129634
H7    H     H_    0.884944 0.692898 0.406242 0.277503
H8    H     H_    0.000596 0.770319 0.484166 0.169378
H9    H     H_    0.032263 0.672991 0.543933 0.145573
H10   H     H_    0.916438 0.728042 0.550121 0.145108
H11   H     H_    0.601035 0.682940 0.120990 0.303546
H12   H     H_    0.741546 0.624758 0.441113 0.160741
H13   H     H_    0.400020 0.699669 0.044888 0.167238
H14   H     H_    0.437259 0.749644 0.138311 0.194144
H15   H     H_    0.491290 0.782974 0.050092 0.133724
H16   H     H_    0.700644 0.657390 0.876446 0.297406
H17   H     H_    0.509221 0.722649 0.920196 0.162038
H18   H     H_    0.622423 0.778229 0.937138 0.154997
H19   H     H_    0.569451 0.764569 0.837412 0.170552
H20   H     H_    0.735630 0.078485 0.539905 0.277115
H21   H     H_    0.748203 0.974911 0.646457 0.165222
H22   H     H_    0.619750 0.963523 0.638982 0.162243
H23   H     H_    0.429700 0.412705 0.897280 0.188401
H24   H     H_    0.673041 0.065796 0.673187 0.168670
H25   H     H_    0.296541 0.914384 0.587657 0.256161
H26   H     H_    0.339680 0.010534 0.691045 0.171663
H27   H     H_    0.456841 0.024118 0.656820 0.171064
H28   H     H_    0.425066 0.918801 0.700119 0.139776
H29   H     H_    0.382334 0.391313 0.106485 0.179096
H30   H     H_    0.652946 0.218434 0.536943 0.194226
H31   H     H_    0.375324 0.774551 0.568716 0.124102
H32   H     H_    0.349635 0.224163 0.459468 0.179290
H33   H     H_    0.620694 0.778892 0.431394 0.164445
H34   H     H_    0.350160 0.063147 0.460162 0.161600
N1    N     N_2   0.525866 0.537241 0.983778 -0.146508
N2    N     N_2   0.360292 0.947690 0.585267 -0.525032
N3    N     N_2   0.454778 0.506526 0.014013 -0.245697
N4    N     N_R   0.258690 0.500020 0.500000 -0.276350
N5    N     N_R   0.741310 0.499980 0.500000 -0.264153
N6    N     N_2   0.079531 0.462788 0.645522 -0.459775
N7    N     N_2   0.928985 0.655830 0.447129 -0.464660
N8    N     N_2   0.536357 0.658144 0.097935 -0.453832
N9    N     N_2   0.632658 0.649829 0.894872 -0.456832
N10   N     N_2   0.673982 0.045303 0.551148 -0.526538
O1    O     O_R   0.581430 0.371450 0.499990 -0.472518
O2    O     O_R   0.418570 0.628550 0.500010 -0.491247
O3    O     O_R   0.418560 0.371460 0.499990 -0.482840
O4    O     O_R   0.581440 0.628540 0.500010 -0.499311
O5    O     O_R   0.590350 0.499180 0.613920 -0.416042
O6    O     O_R   0.409650 0.500820 0.386080 -0.416219
O7    O     O_R   0.427480 0.499190 0.613920 -0.511787
O8    O     O_R   0.572520 0.500810 0.386080 -0.481489

loop_
_geom_bond_atom_site_label_1
_geom_bond_atom_site_label_2
_ccdc_geom_bond_type
C33   H4    S    
C27   C29   A    
Cu2   O3    S    
C38   N10   S    
C33   N6    S    
C1    O1    A    
C37   N9    S    
C36   H13   S    
H20   N10   S    
C29   Cl5   S    
Cu1   Cu2   S    
Cu1   O1    S    
Cu2   N4    S    
C13   N7    S    
Cu2   O6    S    
C19   C21   A    
C17   O6    A    
C24   C26   A    
C24   N8    S    
C11   C14   A    
C23   C40   A    
C31   N10   S    
H25   N2    S    
C1    C40   S    
C6    C15   A    
Cu1   O8    S    
H11   N8    S    
C32   N2    S    
C22   C25   A    
C35   H10   S    
C9    H1    S    
N1    N3    D    
Cu1   O4    S    
C39   N2    S    
H16   N9    S    
C40   C42   A    
C30   Cl6   S    
C33   H5    S    
C22   N9    S    
C38   H22   S    
C28   H29   S    
C41   C43   A    
Cu2   O2    S    
C34   C41   A    
C42   C44   A    
C9    N4    A    
C21   Cl1   S    
C38   H21   S    
C10   H12   S    
C3    C44   A    
C23   H30   S    
Cu1   N5    S    
C39   H27   S    
C5    C7    A    
C6    C8    A    
C38   H24   S    
C10   N5    A    
C23   C31   A    
C26   N3    S    
C34   H31   S    
C32   C34   A    
C2    C4    A    
C8    Cl4   S    
C12   O4    A    
C12   C41   S    
C36   N8    S    
C16   O5    A    
C2    C43   A    
C36   H14   S    
C18   C29   A    
C3    C31   A    
C9    C11   A    
C5    C14   A    
C4    C32   A    
C16   O7    A    
C42   H32   S    
C11   N6    S    
C20   C22   A    
C33   H6    S    
H3    N6    S    
C37   H17   S    
C21   C24   A    
C3    C4    S    
C1    O3    A    
C36   H15   S    
C37   H19   S    
Cu2   O7    S    
C26   C28   A    
C8    N5    A    
C39   H28   S    
C27   H23   S    
C10   C13   A    
H7    N7    S    
C35   N7    S    
C25   C27   A    
C25   N1    S    
C43   H33   S    
C39   H26   S    
C13   C15   A    
C2    H2    S    
C17   O8    A    
Cu1   O5    S    
C7    N4    A    
C28   C30   A    
C17   C19   S    
C35   H8    S    
C18   C20   A    
C12   O2    A    
C16   C18   S    
C37   H18   S    
C14   C15   S    
C5    Cl7   S    
C35   H9    S    
C6    Cl8   S    
C44   H34   S    
C19   C30   A    
C20   Cl2   S    
C7    Cl3   S    
