data_mof_unit_34429.cif
_audit_creation_date              2012-12-10T17:03:46-0500
_audit_creation_method            fapswitch 2.2
_symmetry_space_group_name_H-M    P1
_symmetry_Int_Tables_number       1
_space_group_crystal_system       triclinic
_cell_length_a                    10.014672
_cell_length_b                    10.636581
_cell_length_c                    13.315743
_cell_angle_alpha                 90.184913
_cell_angle_beta                  71.757125
_cell_angle_gamma                 90.578237
_cell_volume                      1347.05680822

loop_
_atom_site_label
_atom_site_type_symbol
_atom_type_description
_atom_site_fract_x
_atom_site_fract_y
_atom_site_fract_z
_atom_type_partial_charge
C1    C     C_R   0.502443 0.737852 0.496417 0.824601
C2    C     C_R   0.380011 0.535712 0.817059 -0.086295
C3    C     C_2   0.564300 0.063814 0.572384 0.251935
C4    C     C_R   0.424237 0.511435 0.702654 0.844116
C5    C     C_2   0.476849 0.132748 0.537073 -0.282897
C6    C     C_2   0.543804 0.928239 0.572555 -0.262565
C7    C     C_2   0.509147 0.871884 0.493567 0.298814
C8    C     C_2   0.080980 0.401345 0.480948 -0.325558
C9    C     C_2   0.939900 0.408521 0.459349 0.515176
C10   C     C_R   0.494510 0.263249 0.510996 0.941321
C11   C     C_R   0.576500 0.500324 0.297233 0.873331
C12   C     C_R   0.438621 0.552238 0.980940 0.078673
C13   C     C_R   0.789559 0.590273 0.023118 -0.183171
C14   C     C_R   0.620208 0.518925 0.184119 -0.052860
C15   C     C_R   0.238335 0.517566 0.875460 -0.186313
C16   C     C_R   0.195223 0.521436 0.985013 -0.147168
C17   C     C_R   0.294020 0.536557 0.037738 -0.184512
C18   C     C_3   0.402679 0.916913 0.365675 0.043240
C19   C     C_3   0.442424 0.838880 0.264216 -0.293077
C20   C     C_3   0.316286 0.817078 0.225062 -0.956784
C21   C     C_3   0.999022 0.237594 0.338446 0.075637
C22   C     C_3   0.098095 0.308248 0.243125 -0.378043
C23   C     C_R   0.478637 0.567501 0.870253 0.029790
C24   C     C_3   0.207880 0.220119 0.173129 -0.943577
C25   C     C_3   0.905438 0.505107 0.748904 0.051992
C26   C     C_3   0.900112 0.389569 0.819837 -0.390618
C27   C     C_3   0.978524 0.278996 0.755139 -0.929489
C28   C     C_3   0.678155 0.117593 0.612353 -0.843259
C29   C     C_R   0.544734 0.553262 0.030581 -0.003783
C30   C     C_R   0.685294 0.585888 0.972873 0.072640
C31   C     C_R   0.721403 0.608731 0.864920 0.458273
C32   C     C_R   0.616822 0.610101 0.816442 -0.333329
C33   C     C_R   0.516884 0.513291 0.134414 -0.230831
C34   C     C_R   0.756835 0.557769 0.128710 -0.230571
H1    H     H_    0.837298 0.564864 0.167132 0.160072
H2    H     H_    0.254013 0.538951 0.122886 0.130352
H3    H     H_    0.085368 0.508357 0.029492 0.130395
H4    H     H_    0.647908 0.644049 0.736129 0.192910
H5    H     H_    0.368340 0.010871 0.347602 0.154074
H6    H     H_    0.310022 0.874748 0.426731 0.138105
H7    H     H_    0.526753 0.888462 0.201860 0.228228
H8    H     H_    0.483477 0.746889 0.279074 0.226385
H9    H     H_    0.234388 0.760397 0.283444 0.260984
H10   H     H_    0.350279 0.765372 0.148929 0.273660
H11   H     H_    0.271048 0.908264 0.212138 0.261645
H12   H     H_    0.382866 0.089429 0.527239 0.126795
H13   H     H_    0.944467 0.163087 0.306987 0.181434
H14   H     H_    0.056007 0.185644 0.384217 0.109214
H15   H     H_    0.035572 0.349574 0.195853 0.225958
H16   H     H_    0.153619 0.385894 0.269805 0.216500
H17   H     H_    0.273296 0.179831 0.218576 0.260352
H18   H     H_    0.277662 0.273016 0.104691 0.274776
H19   H     H_    0.155943 0.142557 0.142878 0.265534
H20   H     H_    0.015544 0.520144 0.698403 0.197244
H21   H     H_    0.841373 0.483514 0.696586 0.148388
H22   H     H_    0.946692 0.412136 0.883030 0.224294
H23   H     H_    0.557888 0.873838 0.637577 0.116334
H24   H     H_    0.788987 0.360179 0.858228 0.220581
H25   H     H_    0.931512 0.253062 0.692515 0.262638
H26   H     H_    0.971023 0.196572 0.807637 0.266954
H27   H     H_    0.091338 0.303546 0.717892 0.275440
H28   H     H_    0.722358 0.043696 0.651161 0.221846
H29   H     H_    0.765515 0.155506 0.545702 0.276388
H30   H     H_    0.634915 0.192736 0.671384 0.233167
H31   H     H_    0.130852 0.311385 0.478983 0.185680
H32   H     H_    0.107244 0.585273 0.492024 0.159574
H33   H     H_    0.883832 0.569136 0.539647 0.097224
H34   H     H_    0.896325 0.619434 0.981055 0.180299
H35   H     H_    0.414995 0.475602 0.178050 0.164617
H36   H     H_    0.161314 0.499075 0.835901 0.169271
N1    N     N_2   0.148270 0.498670 0.498870 -0.215952
N2    N     N_2   0.852610 0.498640 0.498840 -0.220954
O1    O     O_R   0.386950 0.680940 0.500020 -0.632941
O2    O     O_3   0.893159 0.316170 0.402973 -0.607590
O3    O     O_3   0.861714 0.618688 0.805515 -0.662126
O4    O     O_R   0.613110 0.680900 0.499980 -0.623022
O5    O     O_R   0.330780 0.500000 0.653640 -0.615033
O6    O     O_R   0.556930 0.499960 0.653610 -0.634385
O7    O     O_R   0.386890 0.319100 0.500020 -0.630092
O8    O     O_R   0.613050 0.319060 0.499980 -0.541709
O9    O     O_R   0.443070 0.500040 0.346390 -0.614378
O10   O     O_R   0.669220 0.500000 0.346360 -0.581832
O11   O     O_3   0.522248 0.935392 0.399458 -0.643857
Zn1   Zn    Zn3+2 0.349000 0.500030 0.500020 0.920278
Zn2   Zn    Zn3+2 0.651000 0.499970 0.499980 0.971432

loop_
_geom_bond_atom_site_label_1
_geom_bond_atom_site_label_2
_ccdc_geom_bond_type
C24   H18   S    
C7    O11   S    
C12   C29   A    
C19   C20   S    
C9    N2    D    
C3    C6    S    
O9    Zn1   S    
C14   C33   A    
N2    Zn2   S    
C11   O9    A    
C12   C23   A    
C26   C27   S    
O8    Zn2   S    
C3    C28   S    
H33   N2    S    
C27   H26   S    
O7    Zn1   S    
C11   C14   S    
C16   C17   A    
C15   C16   A    
C29   C33   A    
C34   H1    S    
C18   H6    S    
C27   H27   S    
H32   N1    S    
C8    C9    S    
C12   C17   A    
C17   H2    S    
C32   H4    S    
O1    Zn1   S    
C20   H11   S    
C19   H8    S    
C33   H35   S    
C16   H3    S    
C22   H16   S    
C21   H14   S    
C24   H17   S    
C8    H31   S    
C21   C22   S    
C6    H23   S    
C5    C10   S    
C20   H10   S    
C11   O10   A    
C13   C30   A    
C25   H20   S    
C10   O8    A    
C18   C19   S    
O5    Zn1   S    
C24   H19   S    
C21   O2    S    
C25   O3    S    
C2    C4    S    
C18   H5    S    
C4    O6    A    
C29   C30   A    
C31   O3    S    
C31   C32   A    
C18   O11   S    
C2    C15   A    
C26   H24   S    
C22   H15   S    
C28   H30   S    
O6    Zn2   S    
C22   C24   S    
C9    O2    S    
C20   H9    S    
N1    Zn1   S    
C15   H36   S    
C8    N1    D    
C1    C7    S    
C1    O4    A    
C25   H21   S    
C3    C5    D    
C26   H22   S    
C14   C34   A    
C10   O7    A    
C6    C7    D    
O10   Zn2   S    
C5    H12   S    
C1    O1    A    
C23   C32   A    
C25   C26   S    
C13   C34   A    
C27   H25   S    
C30   C31   A    
C28   H29   S    
C4    O5    A    
C2    C23   A    
O4    Zn2   S    
C19   H7    S    
C21   H13   S    
C13   H34   S    
C28   H28   S    
