data_mof_unit_38863.cif
_audit_creation_date              2012-12-10T18:00:45-0500
_audit_creation_method            fapswitch 2.2
_symmetry_space_group_name_H-M    P1
_symmetry_Int_Tables_number       1
_space_group_crystal_system       triclinic
_cell_length_a                    15.857081
_cell_length_b                    10.824967
_cell_length_c                    9.528558
_cell_angle_alpha                 89.825078
_cell_angle_beta                  89.71585
_cell_angle_gamma                 90.357241
_cell_volume                      1635.53996109

loop_
_atom_site_label
_atom_site_type_symbol
_atom_type_description
_atom_site_fract_x
_atom_site_fract_y
_atom_site_fract_z
_atom_type_partial_charge
C1    C     C_R   0.499526 0.262111 0.500134 0.783095
C2    C     C_R   0.499624 0.737897 0.499950 0.779822
C3    C     C_R   0.481892 0.936321 0.375953 -0.204855
C4    C     C_R   0.514115 0.063698 0.625190 -0.167889
C5    C     C_R   0.498697 0.871752 0.500169 -0.013802
C6    C     C_R   0.498648 0.128263 0.500434 -0.015932
C7    C     C_R   0.446341 0.425047 0.075506 -0.232134
C8    C     C_R   0.554473 0.573688 0.924408 -0.230748
C9    C     C_R   0.444452 0.426627 0.925755 0.567140
C10   C     C_R   0.553706 0.576481 0.074333 0.575132
C11   C     C_R   0.339757 0.499759 0.500280 0.828006
C12   C     C_R   0.660253 0.500205 0.499732 0.829954
C13   C     C_3   0.971156 0.390876 0.549585 -0.157659
C14   C     C_3   0.028903 0.608417 0.450986 -0.159246
C15   C     C_3   0.028029 0.407755 0.418236 -0.159228
C16   C     C_3   0.972038 0.591541 0.582333 -0.157921
C17   C     C_1   0.249979 0.499531 0.500915 -0.198850
C18   C     C_1   0.750051 0.500199 0.499188 -0.168098
C19   C     C_3   0.027328 0.482585 0.632153 -0.161131
C20   C     C_3   0.972748 0.516709 0.368419 -0.156210
C21   C     C_3   0.082650 0.499468 0.500800 0.195101
C22   C     C_3   0.917408 0.499835 0.499758 0.192190
C23   C     C_1   0.174371 0.499414 0.501085 -0.085579
C24   C     C_1   0.825670 0.500077 0.499254 -0.073990
C25   C     C_R   0.482285 0.064150 0.375889 -0.188134
C26   C     C_R   0.514350 0.935878 0.624994 -0.191014
Cu1   Cu    Cu3+1 0.500000 0.500020 0.640660 0.975662
Cu2   Cu    Cu3+1 0.500000 0.499980 0.359340 0.979084
H1    H     H_    0.052378 0.332306 0.350903 0.128064
H2    H     H_    0.947701 0.667000 0.649663 0.128634
H3    H     H_    0.946107 0.301567 0.590036 0.128827
H4    H     H_    0.053956 0.697724 0.410535 0.128658
H5    H     H_    0.949007 0.530719 0.260153 0.132073
H6    H     H_    0.051130 0.468556 0.740383 0.124186
H7    H     H_    0.469242 0.112550 0.278775 0.149339
H8    H     H_    0.527426 0.887519 0.722133 0.145265
H9    H     H_    0.468065 0.888273 0.279143 0.139974
H10   H     H_    0.526879 0.111732 0.722449 0.162446
H11   H     H_    0.405326 0.363251 0.133800 0.164078
H12   H     H_    0.598875 0.629670 0.865605 0.165240
N1    N     N_R   0.500020 0.500030 0.852070 -0.215127
N2    N     N_R   0.499980 0.499970 0.147930 -0.215615
O1    O     O_R   0.500000 0.319660 0.618740 -0.541202
O2    O     O_R   0.500000 0.680340 0.381260 -0.564707
O3    O     O_R   0.499990 0.319630 0.381170 -0.595310
O4    O     O_R   0.500010 0.680370 0.618830 -0.595663
O5    O     O_R   0.379080 0.500000 0.618760 -0.552675
O6    O     O_R   0.620920 0.500000 0.381240 -0.520741
O7    O     O_R   0.379080 0.499970 0.381190 -0.584402
O8    O     O_R   0.620920 0.500030 0.618810 -0.587498
O9    O     O_3   0.393019 0.345957 0.851944 -0.553663
C27   C     C_3   0.307397 0.354540 0.894135 0.059109
H13   H     H_    0.269243 0.375988 0.799836 0.177499
H14   H     H_    0.293678 0.428995 0.971575 0.108261
C28   C     C_3   0.277325 0.230544 0.952118 -0.844502
H15   H     H_    0.314599 0.204444 0.045769 0.235987
H16   H     H_    0.209781 0.236480 0.982531 0.207279
H17   H     H_    0.284581 0.157893 0.870949 0.258232
O10   O     O_3   0.612271 0.645627 0.148810 -0.547860
C29   C     C_3   0.617764 0.769671 0.101555 0.047041
H18   H     H_    0.610140 0.830485 0.194183 0.178708
H19   H     H_    0.567909 0.797497 0.025749 0.099687
C30   C     C_3   0.704991 0.795090 0.039730 -0.834921
H20   H     H_    0.716801 0.735449 0.947355 0.236700
H21   H     H_    0.709753 0.893294 0.006470 0.208838
H22   H     H_    0.754043 0.776687 0.119815 0.256998

loop_
_geom_bond_atom_site_label_1
_geom_bond_atom_site_label_2
_ccdc_geom_bond_type
C12   O8    A    
C28   H15   S    
C30   H21   S    
C11   O7    A    
Cu1   O1    S    
C5    C26   A    
C10   N2    A    
Cu2   O7    S    
Cu1   N1    S    
C11   O5    A    
C9    O9    S    
Cu1   O8    S    
C3    C25   A    
C12   O6    A    
C27   H14   S    
C28   H16   S    
C10   O10   S    
C30   H22   S    
O10   C29   S    
C14   H4    S    
C2    O4    A    
C8    N1    A    
C13   H3    S    
C1    O3    A    
C17   C23   T    
C25   H7    S    
C29   C30   S    
C18   C24   T    
C20   H5    S    
C14   C21   S    
Cu2   N2    S    
C19   C21   S    
C27   C28   S    
C20   C22   S    
C13   C22   S    
C15   H1    S    
C14   C16   S    
C21   C23   S    
C13   C15   S    
C16   C19   S    
C15   C20   S    
Cu2   O3    S    
C22   C24   S    
C4    C26   A    
C28   H17   S    
C6    C25   A    
C13   C19   S    
C16   H2    S    
C12   C18   S    
C30   H20   S    
C2    C5    S    
C14   C20   S    
C15   C21   S    
O9    C27   S    
C27   H13   S    
Cu1   O4    S    
Cu2   O2    S    
C29   H19   S    
C4    C6    A    
C7    N2    A    
Cu1   O5    S    
Cu1   Cu2   S    
C7    C9    A    
C7    H11   S    
C11   C17   S    
C16   C22   S    
C8    H12   S    
C4    H10   S    
C9    N1    A    
C1    O1    A    
C8    C10   A    
Cu2   O6    S    
C26   H8    S    
C3    H9    S    
C2    O2    A    
C29   H18   S    
C3    C5    A    
C19   H6    S    
C1    C6    S    
