data_mof_unit_46351.cif
_audit_creation_date              2013-03-05T15:49:44-0500
_audit_creation_method            fapswitch 2.2
_symmetry_space_group_name_H-M    P1
_symmetry_Int_Tables_number       1
_space_group_crystal_system       triclinic
_cell_length_a                    12.052067
_cell_length_b                    12.834623
_cell_length_c                    13.226931
_cell_angle_alpha                 86.470683
_cell_angle_beta                  114.001922
_cell_angle_gamma                 93.74207
_cell_volume                      1863.71689356

loop_
_atom_site_label
_atom_site_type_symbol
_atom_site_description
_atom_site_fract_x
_atom_site_fract_y
_atom_site_fract_z
_atom_type_partial_charge
O1    O     O_R   0.579910 0.341070 0.505280 -0.583959
O2    O     O_R   0.388440 0.353740 0.492580 -0.605002
C1    C     C_R   0.477394 0.299727 0.499560 0.980385
O3    O     O_R   0.643280 0.490550 0.663120 -0.616459
O4    O     O_R   0.451810 0.503220 0.650420 -0.601791
C2    C     C_R   0.567575 0.497985 0.708539 0.933786
Zn1   Zn    Zn3+2 0.627850 0.491540 0.508480 1.058909
Zn2   Zn    Zn3+2 0.372150 0.508460 0.491520 1.076914
O5    O     O_R   0.611560 0.646260 0.507420 -0.599347
O6    O     O_R   0.420090 0.658930 0.494720 -0.567017
O7    O     O_R   0.548190 0.496780 0.349580 -0.577941
O8    O     O_R   0.356720 0.509450 0.336880 -0.553320
C3    C     C_R   0.524183 0.700330 0.503227 0.942816
C4    C     C_R   0.431657 0.495821 0.291527 0.923930
C5    C     C_R   0.264535 0.562621 0.993200 -0.181612
H1    H     H_    0.184796 0.604609 0.941236 0.224544
C6    C     C_R   0.387009 0.484641 0.170882 -0.272184
C7    C     C_R   0.696754 0.408768 0.880375 -0.079349
C8    C     C_R   0.691917 0.348015 0.968776 -0.073169
C9    C     C_R   0.603719 0.364852 0.007632 -0.052008
C10   C     C_R   0.531772 0.453847 0.971194 0.073023
C11   C     C_R   0.535886 0.515043 0.880152 -0.095078
C12   C     C_R   0.451978 0.481376 0.018806 -0.090642
C13   C     C_R   0.357493 0.549865 0.957728 -0.106023
C14   C     C_R   0.360535 0.609029 0.865936 0.442352
C15   C     C_R   0.460023 0.601564 0.837577 0.206732
C16   C     C_R   0.468487 0.451015 0.128458 0.261185
C17   C     C_R   0.274874 0.524176 0.097274 0.266446
C18   C     C_R   0.609354 0.483302 0.828255 -0.045963
H2    H     H_    0.756605 0.386805 0.843180 0.188256
H3    H     H_    0.590911 0.305259 0.063419 0.182724
H4    H     H_    0.749836 0.282250 0.001121 0.173420
C19   C     C_R   0.544378 0.811317 0.512159 -0.189461
C20   C     C_R   0.461020 0.188501 0.496568 -0.205018
C21   C     C_R   0.353209 0.038096 0.393153 0.567001
C22   C     C_R   0.361625 0.145159 0.409502 -0.391447
C23   C     C_R   0.553103 0.127372 0.571230 0.301001
C24   C     C_R   0.551202 0.021811 0.551517 -0.076580
C25   C     C_R   0.451222 0.977541 0.461627 0.031692
C26   C     C_R   0.449533 0.872289 0.443518 -0.152572
C27   C     C_R   0.647989 0.855688 0.596764 0.324367
C28   C     C_R   0.647908 0.959932 0.618473 -0.135530
H5    H     H_    0.373423 0.836292 0.376702 0.249392
H6    H     H_    0.725275 0.991631 0.687049 0.227760
H7    H     H_    0.294236 0.195776 0.351320 0.181629
N1    N     N_R   0.798200 0.480260 0.519790 -0.107301
N2    N     N_R   0.201820 0.519740 0.480210 -0.191886
C29   C     C_R   0.014832 0.612680 0.416084 -0.325692
C30   C     C_R   0.134013 0.603841 0.424488 0.398795
C31   C     C_R   0.151863 0.444466 0.530558 0.517779
C32   C     C_R   0.034257 0.456362 0.530689 -0.054480
C33   C     C_R   0.964093 0.539557 0.468857 -0.058067
C34   C     C_R   0.845139 0.549330 0.463097 0.161624
C35   C     C_R   0.867898 0.403092 0.585952 0.050087
C36   C     C_R   0.985608 0.389397 0.592457 -0.261369
H8    H     H_    0.790009 0.612197 0.413557 0.138030
H9    H     H_    0.832154 0.351972 0.634299 0.191495
H10   H     H_    0.963053 0.678789 0.370167 0.206413
H11   H     H_    0.038115 0.327589 0.646739 0.195976
N3    N     N_R   0.172419 0.526465 0.126469 0.252171
O9    O     O_R   0.147457 0.447114 0.181005 -0.379864
O10   O     O_R   0.090115 0.595143 0.078892 -0.314945
N4    N     N_R   0.752595 0.796713 0.662173 0.225335
O11   O     O_R   0.812233 0.754544 0.613569 -0.397568
O12   O     O_R   0.806408 0.809341 0.768381 -0.300641
O13   O     O_3   0.258009 0.993203 0.304013 -0.582658
C37   C     C_3   0.144454 0.020908 0.299428 -0.134017
H12   H     H_    0.120315 0.099087 0.257917 0.143097
H13   H     H_    0.141775 0.018180 0.382828 0.148921
H14   H     H_    0.073637 0.963799 0.248547 0.227774
N5    N     N_R   0.646488 0.173175 0.667031 0.195996
O14   O     O_R   0.759472 0.177282 0.679673 -0.428120
O15   O     O_R   0.616789 0.218185 0.737310 -0.428057
N6    N     N_R   0.183824 0.687698 0.377747 0.232617
O16   O     O_R   0.170261 0.783428 0.396278 -0.410440
O17   O     O_R   0.216626 0.670764 0.298360 -0.326757
O18   O     O_3   0.278875 0.686965 0.817748 -0.556232
C38   C     C_3   0.180868 0.646205 0.725246 -0.147871
H15   H     H_    0.133961 0.577499 0.748819 0.126625
H16   H     H_    0.211720 0.624630 0.661237 0.156105
H17   H     H_    0.113443 0.707391 0.687823 0.225146
O19   O     O_3   0.218991 0.359512 0.585175 -0.584990
C39   C     C_3   0.171812 0.271437 0.518998 -0.219813
H18   H     H_    0.235255 0.207157 0.555246 0.199312
H19   H     H_    0.163255 0.287618 0.432445 0.165265
H20   H     H_    0.082373 0.242783 0.517660 0.155164
N7    N     N_R   0.575618 0.399084 0.202057 0.198363
O20   O     O_R   0.682707 0.444436 0.226269 -0.384492
O21   O     O_R   0.565250 0.312597 0.254968 -0.393525
N8    N     N_R   0.489994 0.684795 0.773263 0.211733
O22   O     O_R   0.406353 0.740359 0.698960 -0.338719
O23   O     O_R   0.603371 0.712795 0.797947 -0.363109

loop_
_geom_bond_atom_site_label_1
_geom_bond_atom_site_label_2
_geom_bond_distance
_ccdc_geom_bond_type
N7    O20   1.302216 A    
N4    O12   1.301334 A    
C11   C18   1.413196 A    
C36   H11   1.082145 S    
C20   C23   1.396090 A    
C27   C28   1.385719 A    
C21   C22   1.394910 A    
C5    C17   1.392419 A    
N2    C30   1.379620 A    
O18   C38   1.410073 S    
Zn1   O7    1.921742 S    
N6    O17   1.297368 A    
C14   O18   1.383874 S    
C24   C28   1.402849 A    
O4    C2    1.294376 A    
O7    C4    1.297631 A    
C38   H16   1.109128 S    
C5    H1    1.082141 S    
N3    O10   1.301893 A    
C7    C8    1.384145 A    
O5    C3    1.279369 A    
C26   H5    1.082300 S    
C8    C9    1.388818 A    
C12   C13   1.420179 A    
C7    H2    1.083573 S    
C12   C16   1.414472 A    
C20   C22   1.392932 A    
O13   C37   1.412971 S    
C10   C11   1.412984 A    
C4    C6    1.475168 S    
C28   H6    1.079606 S    
O3    Zn1   1.976391 S    
C8    H4    1.082709 S    
N2    C31   1.382178 A    
C17   N3    1.438314 S    
C19   C26   1.388636 A    
N6    O16   1.300872 A    
C32   C33   1.404213 A    
C6    C16   1.413800 A    
Zn1   N1    2.011144 S    
C13   C14   1.403968 A    
O3    C2    1.291056 A    
C25   C26   1.383797 A    
N5    O15   1.299899 A    
C38   H15   1.113052 S    
C21   O13   1.391179 S    
C14   C15   1.404597 A    
C37   H12   1.110514 S    
N3    O9    1.301600 A    
O1    C1    1.287300 A    
C21   C25   1.408018 A    
C3    C19   1.433310 S    
C23   C24   1.392368 A    
N8    O23   1.300100 A    
C39   H18   1.109294 S    
Zn2   O8    1.976392 S    
N1    C35   1.362435 A    
C31   C32   1.436178 A    
C22   H7    1.082943 S    
C7    C18   1.399828 A    
C16   N7    1.438365 S    
C5    C13   1.401102 A    
C39   H19   1.114404 S    
O8    C4    1.296313 A    
C10   C12   1.418000 A    
C27   N4    1.437859 S    
C33   C34   1.417861 A    
C31   O19   1.381295 S    
C34   H8    1.082848 S    
Zn1   O5    2.006802 S    
C35   C36   1.407927 A    
C29   C30   1.406489 A    
O1    Zn1   1.977315 S    
C6    C17   1.410708 A    
O2    Zn2   2.006803 S    
O6    C3    1.293972 A    
C2    C18   1.457198 S    
O4    Zn2   1.921741 S    
C29   H10   1.084236 S    
C15   N8    1.443249 S    
C1    C20   1.429066 S    
C37   H14   1.109234 S    
C19   C27   1.408813 A    
C23   N5    1.436346 S    
O2    C1    1.283374 A    
Zn2   N2    2.010905 S    
N5    O14   1.300544 A    
C38   H17   1.109173 S    
N8    O22   1.300848 A    
C24   C25   1.420104 A    
N1    C34   1.366018 A    
C32   C36   1.409753 A    
N4    O11   1.300911 A    
C29   C33   1.390556 A    
C39   H20   1.109506 S    
C9    C10   1.417867 A    
Zn2   O6    1.977313 S    
O19   C39   1.414335 S    
C11   C15   1.422281 A    
N7    O21   1.301903 A    
C30   N6    1.427121 S    
C37   H13   1.114995 S    
C35   H9    1.077291 S    
C9    H3    1.077538 S    
