data_mof_unit_60219.cif
_audit_creation_date              2012-12-10T20:18:40-0500
_audit_creation_method            fapswitch 2.2
_symmetry_space_group_name_H-M    P1
_symmetry_Int_Tables_number       1
_space_group_crystal_system       monoclinic
_cell_length_a                    25.693595
_cell_length_b                    25.693595
_cell_length_c                    27.794242
_cell_angle_alpha                 90.0
_cell_angle_beta                  90.0
_cell_angle_gamma                 89.999973
_cell_volume                      18348.6697018

loop_
_atom_site_label
_atom_site_type_symbol
_atom_type_description
_atom_site_fract_x
_atom_site_fract_y
_atom_site_fract_z
_atom_type_partial_charge
C1    C     C_1   0.171784 0.328216 0.250000 -0.054345
C2    C     C_1   0.828215 0.328215 0.250000 -0.054285
C3    C     C_R   0.288589 0.788589 0.750000 0.035632
C4    C     C_R   0.788589 0.711411 0.250000 0.035611
C5    C     C_R   0.211411 0.288589 0.750000 0.035611
C6    C     C_R   0.288589 0.788589 0.250000 0.035632
C7    C     C_R   0.711411 0.211411 0.750000 0.035632
C8    C     C_R   0.211411 0.711411 0.750000 0.035632
C9    C     C_R   0.788589 0.288589 0.250000 0.035632
C10   C     C_R   0.711411 0.788589 0.750000 0.035611
C11   C     C_R   0.288589 0.211411 0.250000 0.035611
C12   C     C_R   0.788589 0.288589 0.750000 0.035632
C13   C     C_1   0.671784 0.828216 0.750000 -0.054345
C14   C     C_R   0.211411 0.711411 0.250000 0.035632
C15   C     C_R   0.288589 0.211411 0.750000 0.035611
C16   C     C_R   0.711411 0.788589 0.250000 0.035611
C17   C     C_1   0.500000 0.000000 0.068885 0.011799
C18   C     C_1   0.500000 0.000000 0.931115 0.011799
C19   C     C_1   0.000000 0.500000 0.068885 0.011799
C20   C     C_1   1.000000 0.500000 0.931115 0.011799
C21   C     C_1   0.000000 0.500000 0.568885 0.011799
C22   C     C_1   1.000000 0.500000 0.431115 0.011799
C23   C     C_1   0.500000 0.000000 0.568885 0.011799
C24   C     C_1   0.328216 0.171784 0.250000 -0.054345
C25   C     C_1   0.500000 0.000000 0.431115 0.011799
C26   C     C_1   0.828215 0.328215 0.750000 -0.054285
C27   C     C_1   0.171784 0.671784 0.250000 -0.054286
C28   C     C_1   0.328216 0.171784 0.750000 -0.054345
C29   C     C_1   0.671784 0.828216 0.250000 -0.054345
C30   C     C_1   0.361404 0.138596 0.250000 0.004246
C31   C     C_1   0.638596 0.861404 0.750000 0.004246
C32   C     C_1   0.861404 0.361404 0.250000 0.004302
C33   C     C_1   0.828216 0.671784 0.750000 -0.054345
C34   C     C_1   0.138596 0.638596 0.750000 0.004302
C35   C     C_1   0.638596 0.861404 0.250000 0.004246
C36   C     C_1   0.361404 0.138596 0.750000 0.004246
C37   C     C_1   0.138596 0.638596 0.250000 0.004302
C38   C     C_1   0.861404 0.361404 0.750000 0.004302
C39   C     C_1   0.361404 0.861404 0.750000 0.004302
C40   C     C_1   0.638596 0.138596 0.250000 0.004302
C41   C     C_1   0.861404 0.638596 0.750000 0.004246
C42   C     C_1   0.138596 0.361404 0.250000 0.004246
C43   C     C_1   0.638596 0.138596 0.750000 0.004302
C44   C     C_1   0.671784 0.171784 0.250000 -0.054286
C45   C     C_1   0.361404 0.861404 0.250000 0.004302
C46   C     C_1   0.138596 0.361404 0.750000 0.004246
C47   C     C_1   0.861404 0.638596 0.250000 0.004246
C48   C     C_1   0.500000 0.000000 0.025448 -0.033100
C49   C     C_1   0.500000 0.000000 0.974552 -0.033100
C50   C     C_1   0.000000 0.500000 0.025448 -0.033100
C51   C     C_1   1.000000 0.500000 0.974552 -0.033100
C52   C     C_1   0.000000 0.500000 0.525448 -0.033100
C53   C     C_1   1.000000 0.500000 0.474552 -0.033100
C54   C     C_1   0.500000 0.000000 0.525448 -0.033100
C55   C     C_1   0.328215 0.828216 0.750000 -0.054285
C56   C     C_1   0.500000 0.000000 0.474552 -0.033100
C57   C     C_R   0.500000 0.000000 0.379380 0.507351
C58   C     C_R   0.500000 0.000000 0.620620 0.507351
C59   C     C_R   1.000000 0.500000 0.379380 0.507351
C60   C     C_R   0.000000 0.500000 0.620620 0.507351
C61   C     C_R   1.000000 0.500000 0.879380 0.507351
C62   C     C_R   0.000000 0.500000 0.120620 0.507351
C63   C     C_R   0.500000 0.000000 0.879380 0.507351
C64   C     C_R   0.500000 0.000000 0.120620 0.507351
C65   C     C_R   0.599100 0.099100 0.250000 0.509367
C66   C     C_1   0.828216 0.671784 0.250000 -0.054345
C67   C     C_R   0.400900 0.900900 0.750000 0.509367
C68   C     C_R   0.900900 0.599100 0.250000 0.509344
C69   C     C_R   0.099100 0.400900 0.750000 0.509344
C70   C     C_R   0.400900 0.900900 0.250000 0.509367
C71   C     C_R   0.599100 0.099100 0.750000 0.509367
C72   C     C_R   0.099100 0.400900 0.250000 0.509344
C73   C     C_R   0.900900 0.599100 0.750000 0.509344
C74   C     C_R   0.599100 0.900900 0.750000 0.509344
C75   C     C_R   0.400900 0.099100 0.250000 0.509344
C76   C     C_R   0.900900 0.400900 0.750000 0.509367
C77   C     C_1   0.171784 0.328216 0.750000 -0.054345
C78   C     C_R   0.099100 0.599100 0.250000 0.509367
C79   C     C_R   0.400900 0.099100 0.750000 0.509344
C80   C     C_R   0.599100 0.900900 0.250000 0.509344
C81   C     C_R   0.099100 0.599100 0.750000 0.509367
C82   C     C_R   0.900900 0.400900 0.250000 0.509367
C83   C     C_R   0.207210 0.245712 0.280916 -0.103896
C84   C     C_R   0.792790 0.754288 0.719084 -0.103896
C85   C     C_R   0.755680 0.205818 0.278991 -0.103844
C86   C     C_R   0.244320 0.794182 0.721009 -0.103844
C87   C     C_R   0.792790 0.754288 0.280916 -0.103896
C88   C     C_1   0.328215 0.828216 0.250000 -0.054285
C89   C     C_R   0.207210 0.245712 0.719084 -0.103896
C90   C     C_R   0.244320 0.794182 0.278991 -0.103844
C91   C     C_R   0.755680 0.205818 0.721009 -0.103844
C92   C     C_R   0.205818 0.755680 0.721009 -0.103844
C93   C     C_R   0.794182 0.244320 0.278991 -0.103844
C94   C     C_R   0.754288 0.792790 0.719084 -0.103896
C95   C     C_R   0.245712 0.207210 0.280916 -0.103896
C96   C     C_R   0.794182 0.244320 0.721009 -0.103844
C97   C     C_R   0.205818 0.755680 0.278991 -0.103844
C98   C     C_R   0.245712 0.207210 0.719084 -0.103896
C99   C     C_1   0.671784 0.171784 0.750000 -0.054286
C100  C     C_R   0.754288 0.792790 0.280916 -0.103896
C101  C     C_R   0.707210 0.745712 0.780916 -0.103896
C102  C     C_R   0.292790 0.254288 0.219084 -0.103896
C103  C     C_R   0.255680 0.705818 0.778991 -0.103844
C104  C     C_R   0.744320 0.294182 0.221009 -0.103844
C105  C     C_R   0.292790 0.254288 0.780916 -0.103896
C106  C     C_R   0.707210 0.745712 0.219084 -0.103896
C107  C     C_R   0.744320 0.294182 0.778991 -0.103844
C108  C     C_R   0.255680 0.705818 0.221009 -0.103844
C109  C     C_R   0.705818 0.255680 0.221009 -0.103844
C110  C     C_1   0.171784 0.671784 0.750000 -0.054286
C111  C     C_R   0.294182 0.744320 0.778991 -0.103844
C112  C     C_R   0.254288 0.292790 0.219084 -0.103896
C113  C     C_R   0.745712 0.707210 0.780916 -0.103896
C114  C     C_R   0.294182 0.744320 0.221009 -0.103844
C115  C     C_R   0.705818 0.255680 0.778991 -0.103844
C116  C     C_R   0.745712 0.707210 0.219084 -0.103896
C117  C     C_R   0.254288 0.292790 0.780916 -0.103896
C118  C     C_R   0.211411 0.288589 0.250000 0.035611
C119  C     C_R   0.788589 0.711411 0.750000 0.035611
C120  C     C_R   0.711411 0.211411 0.250000 0.035632
H1    H     H_    0.242064 0.174230 0.304971 0.115766
H2    H     H_    0.760412 0.171754 0.301547 0.115776
H3    H     H_    0.825770 0.757936 0.695029 0.115766
H4    H     H_    0.174230 0.242064 0.304971 0.115766
H5    H     H_    0.760412 0.171754 0.698453 0.115776
H6    H     H_    0.239588 0.828246 0.301547 0.115776
H7    H     H_    0.174230 0.242064 0.695029 0.115766
H8    H     H_    0.825770 0.757936 0.304971 0.115766
H9    H     H_    0.742064 0.674230 0.804971 0.115766
H10   H     H_    0.257936 0.325770 0.195029 0.115766
H11   H     H_    0.328246 0.739588 0.801547 0.115776
H12   H     H_    0.757936 0.825770 0.695029 0.115766
H13   H     H_    0.671754 0.260412 0.198453 0.115776
H14   H     H_    0.257936 0.325770 0.804971 0.115766
H15   H     H_    0.742064 0.674230 0.195029 0.115766
H16   H     H_    0.671754 0.260412 0.801547 0.115776
H17   H     H_    0.328246 0.739588 0.198453 0.115776
H18   H     H_    0.739588 0.328246 0.198453 0.115776
H19   H     H_    0.260412 0.671754 0.801547 0.115776
H20   H     H_    0.325770 0.257936 0.195029 0.115766
H21   H     H_    0.674230 0.742064 0.804971 0.115766
H22   H     H_    0.260412 0.671754 0.198453 0.115776
H23   H     H_    0.828246 0.239588 0.301547 0.115776
H24   H     H_    0.739588 0.328246 0.801547 0.115776
H25   H     H_    0.674230 0.742064 0.195029 0.115766
H26   H     H_    0.325770 0.257936 0.804971 0.115766
H27   H     H_    0.171754 0.760412 0.698453 0.115776
H28   H     H_    0.757936 0.825770 0.304971 0.115766
H29   H     H_    0.242064 0.174230 0.695029 0.115766
H30   H     H_    0.171754 0.760412 0.301547 0.115776
H31   H     H_    0.828246 0.239588 0.698453 0.115776
H32   H     H_    0.239588 0.828246 0.698453 0.115776
O1    O     O_3   0.500000 0.000000 0.250000 -0.437364
O2    O     O_R   0.457270 0.000000 0.643710 -0.534218
O3    O     O_R   1.000000 0.542730 0.356290 -0.534218
O4    O     O_R   1.000000 0.457270 0.643710 -0.534218
O5    O     O_R   0.957270 0.500000 0.856290 -0.534218
O6    O     O_R   0.042730 0.500000 0.143710 -0.534218
O7    O     O_R   0.500000 0.957270 0.856290 -0.534218
O8    O     O_R   0.500000 0.042730 0.143710 -0.534218
O9    O     O_R   0.042730 0.500000 0.856290 -0.534218
O10   O     O_R   0.957270 0.500000 0.143710 -0.534218
O11   O     O_R   0.500000 0.042730 0.856290 -0.534218
O12   O     O_3   0.500000 0.000000 0.750000 -0.437364
O13   O     O_R   0.500000 0.957270 0.143710 -0.534218
O14   O     O_R   0.602790 0.060130 0.277890 -0.535130
O15   O     O_R   0.397210 0.939870 0.722110 -0.535130
O16   O     O_R   0.939870 0.602790 0.277890 -0.535154
O17   O     O_R   0.060130 0.397210 0.722110 -0.535154
O18   O     O_R   0.397210 0.939870 0.277890 -0.535130
O19   O     O_R   0.602790 0.060130 0.722110 -0.535130
O20   O     O_R   0.060130 0.397210 0.277890 -0.535154
O21   O     O_R   0.939870 0.602790 0.722110 -0.535154
O22   O     O_R   0.602790 0.939870 0.722110 -0.535154
O23   O     O_3   1.000000 0.500000 0.250000 -0.437364
O24   O     O_R   0.397210 0.060130 0.277890 -0.535154
O25   O     O_R   0.939870 0.397210 0.722110 -0.535130
O26   O     O_R   0.060130 0.602790 0.277890 -0.535130
O27   O     O_R   0.397210 0.060130 0.722110 -0.535154
O28   O     O_R   0.602790 0.939870 0.277890 -0.535154
O29   O     O_R   0.060130 0.602790 0.722110 -0.535130
O30   O     O_R   0.939870 0.397210 0.277890 -0.535130
O31   O     O_R   0.102790 0.560130 0.777890 -0.535130
O32   O     O_R   0.897210 0.439870 0.222110 -0.535130
O33   O     O_R   0.439870 0.102790 0.777890 -0.535154
O34   O     O_3   1.000000 0.500000 0.750000 -0.437364
O35   O     O_R   0.560130 0.897210 0.222110 -0.535154
O36   O     O_R   0.897210 0.439870 0.777890 -0.535130
O37   O     O_R   0.102790 0.560130 0.222110 -0.535130
O38   O     O_R   0.560130 0.897210 0.777890 -0.535154
O39   O     O_R   0.439870 0.102790 0.222110 -0.535154
O40   O     O_R   0.102790 0.439870 0.222110 -0.535154
O41   O     O_R   0.897210 0.560130 0.777890 -0.535154
O42   O     O_R   0.439870 0.897210 0.222110 -0.535130
O43   O     O_R   0.560130 0.102790 0.777890 -0.535130
O44   O     O_R   0.897210 0.560130 0.222110 -0.535154
O45   O     O_R   0.457270 0.000000 0.356290 -0.534218
O46   O     O_R   0.102790 0.439870 0.777890 -0.535154
O47   O     O_R   0.560130 0.102790 0.222110 -0.535130
O48   O     O_R   0.439870 0.897210 0.777890 -0.535130
O49   O     O_R   0.542730 0.000000 0.643710 -0.534218
O50   O     O_R   1.000000 0.457270 0.356290 -0.534218
O51   O     O_R   1.000000 0.542730 0.643710 -0.534218
O52   O     O_R   0.542730 0.000000 0.356290 -0.534218
Zn1   Zn    Zn3+2 0.500000 0.061040 0.210200 0.952079
Zn2   Zn    Zn3+2 0.000000 0.438960 0.289800 0.952079
Zn3   Zn    Zn3+2 0.438960 0.000000 0.710200 0.952079
Zn4   Zn    Zn3+2 0.561040 0.000000 0.289800 0.952079
Zn5   Zn    Zn3+2 1.000000 0.438960 0.710200 0.952079
Zn6   Zn    Zn3+2 0.000000 0.561040 0.289800 0.952079
Zn7   Zn    Zn3+2 0.561040 0.000000 0.710200 0.952079
Zn8   Zn    Zn3+2 0.438960 0.000000 0.289800 0.952079
Zn9   Zn    Zn3+2 0.500000 0.938960 0.789800 0.952079
Zn10  Zn    Zn3+2 0.938960 0.500000 0.210200 0.952079
Zn11  Zn    Zn3+2 0.061040 0.500000 0.789800 0.952079
Zn12  Zn    Zn3+2 0.500000 0.938960 0.210200 0.952079
Zn13  Zn    Zn3+2 0.500000 0.061040 0.789800 0.952079
Zn14  Zn    Zn3+2 0.061040 0.500000 0.210200 0.952079
Zn15  Zn    Zn3+2 0.938960 0.500000 0.789800 0.952079
Zn16  Zn    Zn3+2 1.000000 0.561040 0.710200 0.952079

loop_
_geom_bond_atom_site_label_1
_geom_bond_atom_site_label_2
_ccdc_geom_bond_type
O12   Zn13  S    
C23   C58   S    
C112  C118  A    
O7    Zn9   S    
C73   O41   A    
C101  C113  A    
C5    C117  A    
C11   C24   S    
C102  C112  A    
C59   O50   A    
C17   C48   T    
C63   O7    A    
C108  H22   S    
C4    C87   A    
C38   C76   S    
O37   Zn14  S    
C84   H3    S    
C63   O11   A    
C106  H25   S    
C113  H9    S    
O51   Zn16  S    
C23   C54   T    
C61   O9    A    
C80   O28   A    
C83   C118  A    
C2    C32   T    
C43   C99   T    
C74   O22   A    
C20   C51   T    
C8    C110  S    
C9    C104  A    
C17   C64   S    
O42   Zn12  S    
C104  C109  A    
C18   C63   S    
C114  H17   S    
C115  H16   S    
C10   C94   A    
O12   Zn7   S    
C7    C115  A    
C82   O32   A    
C35   C80   S    
O47   Zn1   S    
C6    C88   S    
O26   Zn6   S    
C103  C111  A    
O39   Zn1   S    
O23   Zn6   S    
O25   Zn5   S    
C20   C61   S    
O14   Zn4   S    
O21   Zn16  S    
C6    C114  A    
C46   C69   S    
C58   O2    A    
O8    Zn1   S    
C74   O38   A    
C3    C55   S    
C39   C55   T    
O52   Zn4   S    
C58   O49   A    
C3    C111  A    
C97   H30   S    
C25   C56   T    
C8    C92   A    
C34   C81   S    
O40   Zn14  S    
C14   C27   S    
C79   O33   A    
C101  H21   S    
C47   C66   T    
O2    Zn3   S    
C93   H23   S    
C16   C106  A    
C91   C96   A    
C95   H1    S    
C81   O29   A    
C14   C108  A    
C8    C103  A    
O9    Zn11  S    
O17   Zn5   S    
C10   C13   S    
C113  C119  A    
C92   H27   S    
C105  C117  A    
C78   O37   A    
C85   C93   A    
C117  H14   S    
C87   H8    S    
O33   Zn13  S    
C4    C116  A    
C50   C51   S    
C22   C53   T    
O27   Zn3   S    
C10   C101  A    
O31   Zn11  S    
C54   C56   S    
C109  H13   S    
O22   Zn7   S    
C25   C57   S    
O23   Zn10  S    
O16   Zn6   S    
C45   C88   T    
C21   C60   S    
C76   O25   A    
C22   C59   S    
C116  H15   S    
C59   O3    A    
C26   C38   T    
C31   C74   S    
C69   O17   A    
C16   C29   S    
C6    C90   A    
C96   H31   S    
O34   Zn16  S    
C65   O14   A    
C36   C79   S    
C94   H12   S    
O24   Zn8   S    
C12   C26   S    
O6    Zn14  S    
O30   Zn2   S    
O15   Zn3   S    
C85   C120  A    
C75   O39   A    
C60   O4    A    
C65   O47   A    
C64   O13   A    
C86   H32   S    
C12   C107  A    
O1    Zn4   S    
O19   Zn7   S    
C1    C42   T    
C60   O51   A    
C71   O43   A    
C70   O42   A    
C7    C91   A    
O34   Zn11  S    
C64   O8    A    
O29   Zn16  S    
C42   C72   S    
O48   Zn9   S    
C90   H6    S    
C85   H2    S    
C68   O44   A    
C84   C94   A    
C83   C95   A    
C107  C115  A    
C67   O48   A    
C7    C99   S    
O1    Zn1   S    
C61   O5    A    
O11   Zn13  S    
C111  H11   S    
C48   C49   S    
C76   O36   A    
C102  H20   S    
C40   C65   S    
C69   O46   A    
C83   H4    S    
O23   Zn14  S    
C79   O27   A    
O4    Zn5   S    
C81   O31   A    
C15   C98   A    
C5    C77   S    
C9    C93   A    
C47   C68   S    
O43   Zn13  S    
C52   C53   S    
C14   C97   A    
C87   C100  A    
C89   H7    S    
O36   Zn15  S    
C11   C95   A    
O41   Zn15  S    
C29   C35   T    
O35   Zn12  S    
C43   C71   S    
C90   C97   A    
C57   O45   A    
C45   C70   S    
C78   O26   A    
C39   C67   S    
C13   C31   T    
O3    Zn6   S    
C16   C100  A    
C67   O15   A    
C103  H19   S    
O12   Zn3   S    
O10   Zn10  S    
O1    Zn8   S    
C33   C119  S    
O12   Zn9   S    
C46   C77   T    
C32   C82   S    
O34   Zn15  S    
C82   O30   A    
C91   H5    S    
C89   C98   A    
C108  C114  A    
C15   C105  A    
O46   Zn11  S    
C70   O18   A    
C33   C41   T    
O45   Zn8   S    
C86   C92   A    
C72   O40   A    
C4    C66   S    
C30   C75   S    
C2    C9    S    
C19   C50   T    
C15   C28   S    
C62   O10   A    
C100  H28   S    
C84   C119  A    
C34   C110  T    
C105  H26   S    
C57   O52   A    
O20   Zn2   S    
C80   O35   A    
O49   Zn7   S    
C62   O6    A    
C11   C102  A    
C71   O19   A    
C1    C118  S    
O1    Zn12  S    
C73   O21   A    
O38   Zn9   S    
C24   C30   T    
C68   O16   A    
C109  C120  A    
C41   C73   S    
O32   Zn10  S    
C40   C44   T    
O18   Zn8   S    
C28   C36   T    
O50   Zn2   S    
O34   Zn5   S    
C106  C116  A    
O5    Zn15  S    
C44   C120  S    
C12   C96   A    
O13   Zn12  S    
C19   C62   S    
O23   Zn2   S    
C112  H10   S    
C107  H24   S    
C75   O24   A    
C37   C78   S    
C104  H18   S    
C72   O20   A    
C21   C52   T    
C5    C89   A    
C27   C37   T    
C18   C49   T    
O44   Zn10  S    
O28   Zn4   S    
C3    C86   A    
C98   H29   S    
