data_mof_unit_28153.cif
_audit_creation_date              2012-12-11T16:53:40-0500
_audit_creation_method            fapswitch 2.2
_symmetry_space_group_name_H-M    P1
_symmetry_Int_Tables_number       1
_space_group_crystal_system       triclinic
_cell_length_a                    14.873114
_cell_length_b                    14.757016
_cell_length_c                    17.026948
_cell_angle_alpha                 108.928453
_cell_angle_beta                  106.182291
_cell_angle_gamma                 107.960932
_cell_volume                      3050.4057868

loop_
_atom_site_label
_atom_site_type_symbol
_atom_type_description
_atom_site_fract_x
_atom_site_fract_y
_atom_site_fract_z
_atom_type_partial_charge
C1    C     C_R   0.094435 0.276747 0.035802 -0.138400
C2    C     C_R   0.065625 0.483163 0.253749 -0.120705
C3    C     C_R   0.279928 0.783819 0.174966 -0.133051
C4    C     C_R   0.939085 0.463823 0.734618 -0.126378
C5    C     C_R   0.742976 0.469386 0.052953 -0.123369
C6    C     C_R   0.336083 0.779074 0.252136 0.063434
C7    C     C_R   0.714859 0.545852 0.038223 0.070935
C8    C     C_R   0.975271 0.421435 0.255552 0.062708
C9    C     C_R   0.997756 0.823877 0.985778 0.055754
C10   C     C_R   0.525125 0.658148 0.047333 0.161772
C11   C     C_R   0.473457 0.601972 0.086174 0.032605
C12   C     C_R   0.032350 0.478331 0.726199 0.078224
C13   C     C_R   0.529104 0.568041 0.142466 -0.198770
C14   C     C_R   0.620502 0.564127 0.138137 -0.196749
C15   C     C_R   0.654790 0.593145 0.076867 0.033382
C16   C     C_R   0.753381 0.200335 0.811991 -0.131389
C17   C     C_R   0.614447 0.653189 0.042150 0.165981
C18   C     C_3   0.583878 0.650527 0.949440 -0.520289
C19   C     C_3   0.486850 0.656733 0.955526 -0.523329
C20   C     C_R   0.969500 0.380988 0.323031 0.126815
C21   C     C_R   0.043379 0.436005 0.640625 0.113977
C22   C     C_R   0.150068 0.450227 0.556424 0.031774
C23   C     C_R   0.725059 0.193440 0.724999 0.063294
C24   C     C_R   0.141785 0.469109 0.639131 -0.236674
C25   C     C_R   0.953998 0.369366 0.558422 -0.276014
C26   C     C_R   0.960084 0.356633 0.476050 0.177361
C27   C     C_R   0.058367 0.401866 0.475110 0.109679
C28   C     C_R   0.301069 0.595855 0.004217 -0.159444
C29   C     C_R   0.061571 0.408709 0.396102 -0.264239
C30   C     C_R   0.872815 0.325447 0.321098 -0.173389
C31   C     C_R   0.868318 0.311111 0.396768 -0.205614
C32   C     C_R   0.680105 0.097269 0.638957 0.134675
C33   C     C_R   0.444399 0.850628 0.317270 0.126906
C34   C     C_R   0.360961 0.563107 0.055199 0.082695
C35   C     C_R   0.582667 0.029749 0.394248 -0.220802
C36   C     C_R   0.497157 0.946783 0.315981 -0.173032
C37   C     C_R   0.488696 0.831772 0.390887 -0.276204
C38   C     C_R   0.567251 0.916682 0.471751 0.188113
C39   C     C_R   0.611137 0.017709 0.474415 0.188825
C40   C     C_R   0.756569 0.296518 0.735042 -0.132044
C41   C     C_R   0.671512 0.106913 0.558246 -0.276986
C42   C     C_R   0.645575 0.995841 0.636128 -0.172276
C43   C     C_R   0.591119 0.905392 0.552427 -0.223331
C44   C     C_R   0.114799 0.070939 0.952183 0.141220
C45   C     C_R   0.272888 0.687883 0.252061 -0.121232
C46   C     C_R   0.018390 0.073809 0.939479 0.039844
C47   C     C_R   0.927817 0.977260 0.877709 -0.197783
C48   C     C_R   0.935069 0.887797 0.821917 -0.185662
C49   C     C_R   0.032380 0.892538 0.827452 0.023317
C50   C     C_R   0.121193 0.981789 0.897979 0.157023
C51   C     C_3   0.217835 0.046462 0.894746 -0.488733
C52   C     C_R   0.296394 0.498552 0.079611 -0.136140
C53   C     C_3   0.211174 0.144555 0.953442 -0.507238
C54   C     C_R   0.112240 0.542254 0.813282 -0.137820
C55   C     C_R   0.921146 0.190552 0.962694 -0.117163
C56   C     C_R   0.749835 0.565563 0.975536 -0.140509
C57   C     C_R   0.011588 0.175626 0.980623 0.061636
C58   C     C_1   0.252986 0.490795 0.558595 0.024908
C59   C     C_R   0.892955 0.396324 0.176660 -0.147700
C60   C     C_R   0.083659 0.807584 0.022771 -0.122564
C61   C     C_R   0.912946 0.723773 0.941223 -0.129545
H1    H     H_    0.176254 0.296466 0.065320 0.103077
H2    H     H_    0.654908 0.525451 0.172950 0.127155
H3    H     H_    0.637435 0.722906 0.950180 0.191591
H4    H     H_    0.863047 0.427647 0.679896 0.085335
H5    H     H_    0.565704 0.573318 0.893709 0.201615
H6    H     H_    0.484839 0.733019 0.960451 0.189751
H7    H     H_    0.415042 0.583419 0.903084 0.201558
H8    H     H_    0.136207 0.446243 0.395965 0.125377
H9    H     H_    0.800287 0.299434 0.264335 0.111425
H10   H     H_    0.792785 0.274317 0.396465 0.117674
H11   H     H_    0.212252 0.514999 0.702053 0.124596
H12   H     H_    0.743104 0.621380 0.949749 0.105868
H13   H     H_    0.878009 0.336639 0.558188 0.116301
H14   H     H_    0.703380 0.184109 0.559391 0.112484
H15   H     H_    0.729926 0.135665 0.829224 0.082832
H16   H     H_    0.655932 0.985763 0.697640 0.113876
H17   H     H_    0.617763 0.106429 0.395021 0.120390
H18   H     H_    0.559224 0.827883 0.551021 0.129070
H19   H     H_    0.467653 0.961825 0.258277 0.112802
H20   H     H_    0.453295 0.756008 0.391053 0.115672
H21   H     H_    0.851020 0.972356 0.867051 0.121163
H22   H     H_    0.864883 0.817077 0.770617 0.128999
H23   H     H_    0.813485 0.337389 0.149366 0.086778
H24   H     H_    0.285927 0.036250 0.931009 0.186437
H25   H     H_    0.206067 0.037585 0.824742 0.200726
H26   H     H_    0.276201 0.191139 0.023082 0.185495
H27   H     H_    0.328609 0.661844 0.988792 0.100577
H28   H     H_    0.195460 0.192456 0.917283 0.207288
H29   H     H_    0.734252 0.321028 0.682624 0.086161
H30   H     H_    0.320329 0.471917 0.130498 0.082869
H31   H     H_    0.194995 0.570904 0.832943 0.095102
H32   H     H_    0.842911 0.128556 0.929267 0.081415
H33   H     H_    0.294087 0.650777 0.294744 0.085062
H34   H     H_    0.164176 0.866188 0.055930 0.093817
H35   H     H_    0.836002 0.705303 0.895258 0.090122
H36   H     H_    0.145177 0.506446 0.297474 0.086786
H37   H     H_    0.309537 0.836077 0.146783 0.082580
H38   H     H_    0.728789 0.434813 0.097796 0.093844
H39   H     H_    0.496246 0.531788 0.180032 0.124072
N1    N     N_R   0.055640 0.348550 0.045600 -0.040337
N2    N     N_R   0.811290 0.303400 0.871650 -0.038846
N3    N     N_R   0.205180 0.552990 0.997660 -0.036914
N4    N     N_R   0.814810 0.361830 0.823710 -0.038561
N5    N     N_R   0.201660 0.494570 0.045600 -0.037488
N6    N     N_R   0.068420 0.560530 0.871650 -0.040783
N7    N     N_R   0.948050 0.295860 0.997660 -0.039520
N8    N     N_R   0.185190 0.638170 0.176290 -0.039348
N9    N     N_1   0.335365 0.523292 0.560386 -0.099370
N10   N     N_R   0.798340 0.505430 0.954400 -0.041404
N11   N     N_R   0.931580 0.439470 0.128350 -0.038578
N12   N     N_R   0.051950 0.704140 0.002340 -0.040780
N13   N     N_R   0.944360 0.651450 0.954400 -0.040520
N14   N     N_R   0.039170 0.492150 0.176290 -0.039666
N15   N     N_R   0.188710 0.696600 0.128350 -0.037897
N16   N     N_R   0.794820 0.447010 0.002340 -0.042065
N17   N     N_R   0.960830 0.507850 0.823710 -0.040230
Ni1   Ni    Ni4+2 0.119330 0.493420 0.109950 0.207753
Ni2   Ni    Ni4+2 0.880670 0.506580 0.890050 0.213556
Ni3   Ni    Ni4+2 0.872590 0.372590 0.000000 0.212958
Ni4   Ni    Ni4+2 0.127410 0.627410 0.000000 0.208011

loop_
_geom_bond_atom_site_label_1
_geom_bond_atom_site_label_2
_ccdc_geom_bond_type
N1    N7    A    
N15   Ni4   S    
C6    C45   A    
C1    N1    A    
C27   C29   A    
C58   N9    T    
C11   C13   A    
C35   C36   A    
C28   N3    A    
C55   H32   S    
C3    C6    A    
C1    H1    S    
C51   H24   S    
C61   H35   S    
C39   C41   A    
C20   C30   A    
C26   C27   A    
C8    C20   S    
C9    C61   A    
N1    Ni1   S    
N8    N15   A    
C18   C19   S    
N17   Ni2   S    
C8    C59   A    
C4    H4    S    
C41   H14   S    
C10   C17   A    
C43   H18   S    
C23   C40   A    
C33   C36   A    
C25   H13   S    
C47   H21   S    
N13   Ni2   S    
C44   C53   S    
C5    H38   S    
C2    H36   S    
C28   H27   S    
C59   N11   A    
C32   C41   A    
C19   H6    S    
C4    C12   A    
C45   N8    A    
N4    Ni2   S    
C31   H10   S    
C28   C34   A    
C26   C31   A    
C13   C14   A    
C37   H20   S    
C7    C56   A    
C45   H33   S    
C51   H25   S    
C56   N10   A    
N12   N13   A    
C30   H9    S    
C44   C46   A    
C50   C51   S    
C29   H8    S    
C20   C29   A    
C54   N6    A    
N8    Ni1   S    
C59   H23   S    
N3    N5    A    
C36   H19   S    
C5    C7    A    
C25   C26   A    
C12   C21   S    
C33   C37   A    
N16   Ni3   S    
C55   N7    A    
N11   Ni3   S    
C51   C53   S    
C35   C39   A    
C54   H31   S    
C37   C38   A    
C60   N12   A    
C1    C57   A    
C40   N4    A    
C47   C48   A    
C10   C19   S    
C17   C18   S    
C19   H7    S    
C53   H26   S    
N2    N4    A    
N14   Ni1   S    
C16   N2    A    
C48   C49   A    
C52   N5    A    
C30   C31   A    
C16   C23   A    
C46   C57   S    
C22   C27   A    
C55   C57   A    
C5    N16   A    
C53   H28   S    
C22   C24   A    
N5    Ni1   S    
C42   C43   A    
N3    Ni4   S    
N10   N16   A    
N7    Ni3   S    
N2    Ni3   S    
C24   H11   S    
C44   C50   A    
C15   C17   A    
C21   C25   A    
C46   C47   A    
C56   H12   S    
C16   H15   S    
C11   C34   S    
C2    C8    A    
N10   Ni2   S    
C22   C58   S    
C48   H22   S    
C18   H5    S    
C35   H17   S    
C34   C52   A    
C6    C33   S    
C9    C60   A    
C23   C32   S    
C13   H39   S    
C38   C43   A    
N6    N17   A    
C3    N15   A    
C61   N13   A    
C2    N14   A    
C3    H37   S    
C18   H3    S    
C38   C39   A    
C14   H2    S    
N6    Ni4   S    
C7    C15   S    
N11   N14   A    
C4    N17   A    
C10   C11   A    
C60   H34   S    
N12   Ni4   S    
C42   H16   S    
C49   C50   A    
C21   C24   A    
C32   C42   A    
C14   C15   A    
C52   H30   S    
C40   H29   S    
C12   C54   A    
