data_mof_unit_19976.cif
_audit_creation_date              2012-12-10T18:57:12-0500
_audit_creation_method            fapswitch 2.2
_symmetry_space_group_name_H-M    P1
_symmetry_Int_Tables_number       1
_space_group_crystal_system       triclinic
_cell_length_a                    8.756067
_cell_length_b                    10.834717
_cell_length_c                    9.558456
_cell_angle_alpha                 90.184626
_cell_angle_beta                  97.619855
_cell_angle_gamma                 90.216847
_cell_volume                      898.785820851

loop_
_atom_site_label
_atom_site_type_symbol
_atom_type_description
_atom_site_fract_x
_atom_site_fract_y
_atom_site_fract_z
_atom_type_partial_charge
C1    C     C_R   0.497236 0.262434 0.499321 0.789722
C2    C     C_R   0.515393 0.935661 0.374581 -0.213843
C3    C     C_R   0.489055 0.870926 0.496443 -0.083025
C4    C     C_R   0.441462 0.936626 0.608602 0.082896
C5    C     C_3   0.496803 0.933005 0.763209 -0.477764
C6    C     C_3   0.485967 0.073498 0.762353 -0.035383
C7    C     C_R   0.631925 0.524581 0.089702 0.306192
C8    C     C_R   0.373080 0.465042 0.058709 -0.084433
C9    C     C_R   0.372770 0.465833 0.910210 -0.090721
C10   C     C_R   0.632418 0.523359 0.942524 0.274565
C11   C     C_3   0.727443 0.638013 0.948112 -0.514987
C12   C     C_R   0.204635 0.493550 0.464180 0.831742
C13   C     C_3   0.725221 0.640329 0.106576 -0.499445
C14   C     C_R   0.499496 0.737665 0.499891 0.801463
C15   C     C_R   0.795826 0.497395 0.535430 0.880633
C16   C     C_2   0.041177 0.473077 0.445138 -0.198669
C17   C     C_2   0.961462 0.501024 0.552014 -0.428527
C18   C     C_R   0.436144 0.063743 0.606988 0.051415
C19   C     C_R   0.484211 0.129327 0.495049 -0.105934
C20   C     C_R   0.514392 0.064175 0.374470 -0.202824
Cu1   Cu    Cu3+1 0.499990 0.499980 0.640670 0.934045
Cu2   Cu    Cu3+1 0.500010 0.500020 0.359330 0.950995
H1    H     H_    0.268716 0.439668 0.842838 0.142033
H2    H     H_    0.843858 0.620779 0.917974 0.198969
H3    H     H_    0.664354 0.715841 0.892772 0.210228
H4    H     H_    0.840760 0.625940 0.167616 0.207488
H5    H     H_    0.659926 0.719502 0.142585 0.202349
H6    H     H_    0.019093 0.535791 0.652260 0.160950
H7    H     H_    0.546288 0.112087 0.283524 0.174795
H8    H     H_    0.545283 0.887853 0.282406 0.155328
H9    H     H_    0.413998 0.885078 0.823445 0.203096
H10   H     H_    0.617829 0.900903 0.785276 0.173303
H11   H     H_    0.599149 0.121090 0.788276 0.173280
H12   H     H_    0.269602 0.437517 0.100784 0.156586
N1    N     N_R   0.500980 0.500930 0.148050 -0.195943
N2    N     N_R   0.500990 0.500890 0.852140 -0.190970
O1    O     O_R   0.500000 0.319640 0.618810 -0.592993
O2    O     O_R   0.500020 0.319680 0.381230 -0.580471
O3    O     O_R   0.274830 0.499980 0.591380 -0.592321
O4    O     O_R   0.274850 0.500020 0.353800 -0.591361
O5    O     O_R   0.499980 0.680320 0.618770 -0.578301
O6    O     O_R   0.500000 0.680360 0.381190 -0.586493
O7    O     O_R   0.725150 0.499980 0.646200 -0.587348
O8    O     O_R   0.725170 0.500020 0.408620 -0.565770
C21   C     C_1   0.975073 0.411236 0.315821 0.275835
N3    N     N_1   0.923694 0.361175 0.213015 -0.322994
C22   C     C_3   0.357262 0.125044 0.840374 -0.347043
C23   C     C_3   0.407707 0.130038 0.999080 -0.841837
H13   H     H_    0.434855 0.035845 0.040384 0.251719
H14   H     H_    0.511005 0.190141 0.023262 0.254074
H15   H     H_    0.313378 0.168596 0.052722 0.245688
H16   H     H_    0.328524 0.219796 0.802284 0.215439
H17   H     H_    0.250745 0.068059 0.818351 0.204572

loop_
_geom_bond_atom_site_label_1
_geom_bond_atom_site_label_2
_ccdc_geom_bond_type
C16   C21   S    
C12   O4    A    
C7    C10   A    
C22   H16   S    
Cu1   O7    S    
C9    N2    A    
C13   H5    S    
C19   C20   A    
Cu1   O3    S    
C6    H11   S    
C1    O1    A    
C22   H17   S    
C5    H10   S    
Cu2   O4    S    
C17   H6    S    
C12   O3    A    
C23   H14   S    
C2    C3    A    
C8    C9    A    
C4    C18   A    
Cu1   N2    S    
C8    H12   S    
C21   N3    T    
Cu2   N1    S    
C11   C13   S    
Cu2   O6    S    
C3    C14   S    
C1    O2    A    
C14   O5    A    
Cu1   O5    S    
C23   H13   S    
C15   O8    A    
C20   H7    S    
C5    C6    S    
C6    C18   S    
Cu2   O8    S    
C13   H4    S    
C1    C19   S    
C10   C11   S    
C11   H3    S    
C15   O7    A    
C3    C4    A    
Cu2   O2    S    
C12   C16   S    
C11   H2    S    
C7    C13   S    
Cu1   O1    S    
C18   C19   A    
C6    C22   S    
C15   C17   S    
C2    C20   A    
C4    C5    S    
C2    H8    S    
C10   N2    A    
Cu1   Cu2   S    
C14   O6    A    
C7    N1    A    
C23   H15   S    
C9    H1    S    
C22   C23   S    
C16   C17   D    
C5    H9    S    
C8    N1    A    
