data_mof_unit_50874.cif
_audit_creation_date              2012-12-11T15:20:44-0500
_audit_creation_method            fapswitch 2.2
_symmetry_space_group_name_H-M    P1
_symmetry_Int_Tables_number       1
_space_group_crystal_system       triclinic
_cell_length_a                    12.924465
_cell_length_b                    13.057657
_cell_length_c                    15.320001
_cell_angle_alpha                 116.600561
_cell_angle_beta                  63.528882
_cell_angle_gamma                 96.998788
_cell_volume                      2059.62853054

loop_
_atom_site_label
_atom_site_type_symbol
_atom_type_description
_atom_site_fract_x
_atom_site_fract_y
_atom_site_fract_z
_atom_type_partial_charge
C1    C     C_R   0.015374 0.834816 0.038579 -0.214906
C2    C     C_R   0.298736 0.595411 0.790196 -0.138607
C3    C     C_R   0.260658 0.417543 0.047908 -0.146952
C4    C     C_R   0.677852 0.473278 0.218707 -0.119838
C5    C     C_R   0.986436 0.300567 0.696538 -0.129898
C6    C     C_R   0.363602 0.432783 0.972475 0.146848
C7    C     C_R   0.925381 0.206676 0.697672 0.047009
C8    C     C_R   0.293251 0.569160 0.694234 0.042048
C9    C     C_R   0.044516 0.142728 0.007452 0.064671
C10   C     C_R   0.952410 0.041099 0.421842 -0.171041
C11   C     C_R   0.932200 0.138450 0.517304 -0.164758
C12   C     C_R   0.667375 0.542692 0.322572 0.042280
C13   C     C_R   0.891712 0.127926 0.614051 0.135900
C14   C     C_R   0.844359 0.027493 0.619307 -0.158706
C15   C     C_R   0.863890 0.930286 0.523971 -0.161443
C16   C     C_R   0.757739 0.512532 0.888306 -0.055414
C17   C     C_R   0.929964 0.934678 0.424407 0.144923
C18   C     C_R   0.562387 0.652645 0.522539 -0.163030
C19   C     C_R   0.468247 0.659109 0.616367 -0.164569
C20   C     C_R   0.370863 0.602537 0.609472 0.140683
C21   C     C_R   0.359228 0.561056 0.512903 -0.158962
C22   C     C_R   0.453570 0.553852 0.419106 -0.165908
C23   C     C_R   0.664879 0.452391 0.920669 0.110655
C24   C     C_R   0.559333 0.588325 0.422061 0.141120
C25   C     C_2   0.477678 0.386897 0.941080 -0.191825
C26   C     C_2   0.571913 0.428197 0.888088 -0.187567
C27   C     C_2   0.866824 0.967013 0.058318 -0.145546
C28   C     C_R   0.963971 0.719493 0.316507 -0.131294
C29   C     C_2   0.849791 0.051905 0.155611 -0.157559
C30   C     C_R   0.677333 0.419059 0.988525 -0.130157
C31   C     C_R   0.044388 0.819548 0.221139 -0.119598
C32   C     C_R   0.778339 0.551207 0.316230 -0.122007
C33   C     C_R   0.915719 0.751085 0.942549 0.454086
C34   C     C_R   0.978611 0.829168 0.324913 0.043135
C35   C     C_R   0.933890 0.856485 0.011784 0.038589
C36   C     C_R   0.339410 0.514257 0.948326 -0.106572
C37   C     C_R   0.903636 0.201160 0.792288 -0.126559
C38   C     C_R   0.197777 0.508558 0.695085 -0.106679
C39   C     C_R   0.070041 0.249444 0.069703 -0.128572
C40   C     C_R   0.976125 0.166060 0.968293 -0.101176
Cl1   Cl    Cl    0.847500 0.734730 0.861245 -0.750653
H1    H     H_    0.056867 0.899528 0.082207 0.119678
H2    H     H_    0.961023 0.217611 0.512097 0.108740
H3    H     H_    0.804498 0.019181 0.694310 0.118188
H4    H     H_    0.609540 0.445464 0.193520 0.092603
H5    H     H_    0.835437 0.850965 0.529036 0.111649
H6    H     H_    0.640183 0.688745 0.528448 0.111139
H7    H     H_    0.477187 0.698711 0.691190 0.115312
H8    H     H_    0.282491 0.523255 0.505951 0.110533
H9    H     H_    0.445691 0.511029 0.343805 0.109179
H10   H     H_    0.480576 0.340887 0.983948 0.123942
H11   H     H_    0.570170 0.469919 0.841391 0.135082
H12   H     H_    0.846486 0.147281 0.826029 0.091273
H13   H     H_    0.822290 0.977205 0.016734 0.173707
H14   H     H_    0.887782 0.045555 0.203717 0.132361
H15   H     H_    0.784523 0.528943 0.818664 0.158321
H16   H     H_    0.933793 0.694262 0.381014 0.090351
H17   H     H_    0.631858 0.355736 0.015193 0.087179
H18   H     H_    0.086804 0.886424 0.199510 0.083823
H19   H     H_    0.800254 0.587146 0.383238 0.088210
H20   H     H_    0.398735 0.550610 0.895888 0.097125
H21   H     H_    0.158446 0.486582 0.640594 0.094737
H22   H     H_    0.111289 0.263265 0.121137 0.089860
H23   H     H_    0.935871 0.103883 0.920657 0.107043
H24   H     H_    0.352779 0.654417 0.822791 0.093272
H25   H     H_    0.251954 0.366943 0.089767 0.092459
H26   H     H_    0.006518 0.339095 0.642133 0.090961
H27   H     H_    0.993932 0.048780 0.346509 0.104040
N1    N     N_R   0.037310 0.720000 0.995790 -0.061435
N2    N     N_R   0.824890 0.517960 0.936420 -0.047748
N3    N     N_R   0.003210 0.648190 0.211380 -0.038733
N4    N     N_R   0.774330 0.457010 0.995840 -0.049353
N5    N     N_R   0.053760 0.709140 0.151960 -0.036005
N6    N     N_R   0.853860 0.498840 0.211410 -0.040096
N7    N     N_R   0.974240 0.667310 0.936390 -0.084937
N8    N     N_R   0.225670 0.542990 0.004160 -0.047607
N9    N     N_R   0.946240 0.290860 0.848040 -0.041766
N10   N     N_R   0.146140 0.501160 0.788590 -0.041362
N11   N     N_R   0.025760 0.332690 0.063610 -0.040724
N12   N     N_R   0.962690 0.280000 0.004210 -0.046118
N13   N     N_R   0.209210 0.553840 0.847990 -0.040967
N14   N     N_R   0.175110 0.482040 0.063580 -0.042999
N15   N     N_R   0.996790 0.351810 0.788620 -0.040409
N16   N     N_R   0.790790 0.446160 0.152010 -0.041279
Ni1   Ni    Ni4+2 0.130310 0.630310 0.999970 0.213487
Ni2   Ni    Ni4+2 0.869690 0.369690 0.000030 0.209131
Ni3   Ni    Ni4+2 0.985640 0.509470 0.863740 0.238384
Ni4   Ni    Ni4+2 0.014360 0.490530 0.136260 0.217619

loop_
_geom_bond_atom_site_label_1
_geom_bond_atom_site_label_2
_ccdc_geom_bond_type
N10   Ni3   S    
N15   Ni3   S    
C27   C29   D    
C29   H14   S    
C19   C20   A    
C5    H26   S    
C2    H24   S    
C18   H6    S    
C21   H8    S    
C27   H13   S    
C28   H16   S    
C8    C20   S    
C18   C24   A    
N16   Ni2   S    
C32   N6    A    
C5    N15   A    
C31   N5    A    
C6    C25   S    
N9    N15   A    
C10   C17   A    
C9    C39   A    
C18   C19   A    
C23   C26   S    
C31   H18   S    
N12   Ni2   S    
C36   N8    A    
C33   N7    A    
C40   N12   A    
C11   H2    S    
C4    C12   A    
C22   H9    S    
C37   H12   S    
C3    C6    A    
C28   C34   A    
C13   C14   A    
C12   C32   A    
C8    C38   A    
N2    Ni3   S    
N11   Ni4   S    
C4    H4    S    
C23   C30   A    
C16   N2    A    
N8    N14   A    
C5    C7    A    
C19   H7    S    
C38   N10   A    
C27   C35   S    
C25   C26   D    
C37   N9    A    
C9    C40   A    
C1    N1    A    
N3    Ni4   S    
C39   N11   A    
C16   H15   S    
C26   H11   S    
C30   N4    A    
C4    N16   A    
C3    N14   A    
C7    C37   A    
C31   C34   A    
N5    Ni1   S    
N7    Ni3   S    
N9    Ni2   S    
C16   C23   A    
C22   C24   A    
C28   N3    A    
C17   C34   S    
C32   H19   S    
C36   H20   S    
N1    Ni1   S    
C1    C35   A    
C14   H3    S    
C15   C17   A    
C2    C8    A    
N6    N16   A    
N4    Ni2   S    
C10   H27   S    
C39   H22   S    
C12   C24   S    
C25   H10   S    
C40   H23   S    
C33   Cl1   S    
C11   C13   A    
N10   N13   A    
N14   Ni4   S    
C30   H17   S    
C33   C35   A    
C6    C36   A    
N1    N7    A    
C10   C11   A    
N11   N12   A    
C3    H25   S    
C1    H1    S    
C7    C13   S    
C20   C21   A    
N3    N5    A    
C14   C15   A    
C2    N13   A    
N2    N4    A    
C15   H5    S    
N6    Ni4   S    
C21   C22   A    
N8    Ni1   S    
N13   Ni1   S    
C38   H21   S    
