data_mof_unit_61892.cif
_audit_creation_date              2012-12-10T20:07:52-0500
_audit_creation_method            fapswitch 2.2
_symmetry_space_group_name_H-M    P1
_symmetry_Int_Tables_number       1
_space_group_crystal_system       triclinic
_cell_length_a                    22.528861
_cell_length_b                    36.216037
_cell_length_c                    22.507371
_cell_angle_alpha                 90.029161
_cell_angle_beta                  90.000059
_cell_angle_gamma                 89.999754
_cell_volume                      18363.8980947

loop_
_atom_site_label
_atom_site_type_symbol
_atom_type_description
_atom_site_fract_x
_atom_site_fract_y
_atom_site_fract_z
_atom_type_partial_charge
C1    C     C_R   0.500044 0.849572 0.750064 0.822886
C2    C     C_R   0.000029 0.849572 0.750010 0.823257
C3    C     C_R   0.339860 0.250000 0.749999 0.851658
C4    C     C_R   0.839853 0.750000 0.249999 0.845991
C5    C     C_R   0.839860 0.750000 0.749999 0.851650
C6    C     C_R   0.839853 0.250000 0.749999 0.845987
C7    C     C_R   0.839860 0.250000 0.249999 0.851657
C8    C     C_R   0.660138 0.750000 0.750000 0.844322
C9    C     C_R   0.660145 0.750000 0.250000 0.839831
C10   C     C_R   0.660138 0.250000 0.250000 0.844322
C11   C     C_R   0.660145 0.250000 0.750000 0.839831
C12   C     C_R   0.160138 0.750000 0.250000 0.844324
C13   C     C_R   0.000034 0.150429 0.749948 0.826250
C14   C     C_R   0.160145 0.750000 0.750000 0.839837
C15   C     C_R   0.160138 0.250000 0.750000 0.844333
C16   C     C_R   0.160145 0.250000 0.250000 0.839833
C17   C     C_1   0.723375 0.749999 0.750000 -0.126149
C18   C     C_1   0.723377 0.750001 0.249999 -0.128874
C19   C     C_1   0.723375 0.249999 0.250000 -0.126150
C20   C     C_1   0.723377 0.250001 0.749999 -0.128879
C21   C     C_1   0.223375 0.749999 0.250000 -0.126154
C22   C     C_1   0.223377 0.750001 0.749999 -0.128880
C23   C     C_1   0.223375 0.249999 0.750000 -0.126150
C24   C     C_R   0.000039 0.150426 0.250000 0.824049
C25   C     C_1   0.223377 0.250001 0.249999 -0.128873
C26   C     C_1   0.776624 0.749999 0.749999 -0.123488
C27   C     C_1   0.776622 0.750001 0.249999 -0.128004
C28   C     C_1   0.776624 0.249999 0.249999 -0.123490
C29   C     C_1   0.776622 0.250001 0.749999 -0.128008
C30   C     C_1   0.276624 0.749999 0.249999 -0.123496
C31   C     C_1   0.276622 0.750001 0.749999 -0.128004
C32   C     C_1   0.276624 0.249999 0.749999 -0.123491
C33   C     C_1   0.276622 0.250001 0.249999 -0.128001
C34   C     C_3   0.554550 0.521024 0.742126 -0.368475
C35   C     C_R   0.000044 0.349572 0.750064 0.822886
C36   C     C_3   0.554694 0.521061 0.250021 -0.363605
C37   C     C_3   0.553433 0.478959 0.260487 -0.391670
C38   C     C_3   0.555345 0.478892 0.752424 -0.366134
C39   C     C_3   0.554551 0.021024 0.242135 -0.368469
C40   C     C_3   0.554686 0.021061 0.750006 -0.363597
C41   C     C_3   0.553427 0.978959 0.760472 -0.391660
C42   C     C_3   0.555344 0.978892 0.252433 -0.366130
C43   C     C_3   0.054550 0.521024 0.242124 -0.368481
C44   C     C_3   0.054698 0.521061 0.749958 -0.363601
C45   C     C_3   0.053449 0.478958 0.760426 -0.391667
C46   C     C_R   0.000029 0.349572 0.250010 0.823242
C47   C     C_3   0.055345 0.478892 0.252422 -0.366124
C48   C     C_3   0.054580 0.021024 0.742259 -0.368459
C49   C     C_3   0.054699 0.021061 0.249972 -0.363598
C50   C     C_3   0.053448 0.978958 0.260439 -0.391670
C51   C     C_3   0.055349 0.978892 0.752560 -0.366121
C52   C     C_3   0.450457 0.522252 0.697140 -0.271262
C53   C     C_3   0.455507 0.522857 0.305275 -0.280719
C54   C     C_3   0.447670 0.477747 0.300977 -0.258444
C55   C     C_3   0.458249 0.477279 0.693263 -0.264942
C56   C     C_3   0.450463 0.022252 0.197134 -0.271266
C57   C     C_R   0.000033 0.650429 0.249948 0.826229
C58   C     C_3   0.455516 0.022858 0.805287 -0.280725
C59   C     C_3   0.447674 0.977748 0.800993 -0.258435
C60   C     C_3   0.458256 0.977279 0.193259 -0.264945
C61   C     C_3   0.950456 0.522252 0.197139 -0.271272
C62   C     C_3   0.955577 0.522857 0.805330 -0.280722
C63   C     C_3   0.947734 0.477748 0.801041 -0.258443
C64   C     C_3   0.958249 0.477279 0.193262 -0.264936
C65   C     C_3   0.950600 0.022252 0.697010 -0.271277
C66   C     C_3   0.955568 0.022857 0.305324 -0.280713
C67   C     C_3   0.947725 0.977748 0.301034 -0.258447
C68   C     C_R   0.000039 0.650426 0.750000 0.824049
C69   C     C_3   0.958403 0.977279 0.693154 -0.264951
C70   C     C_1   0.998299 0.889038 0.751457 0.013124
C71   C     C_1   0.998351 0.889039 0.248981 0.025467
C72   C     C_1   0.998207 0.110963 0.248465 0.015940
C73   C     C_1   0.998463 0.110960 0.750931 0.019933
C74   C     C_1   0.998297 0.389037 0.251461 0.013122
C75   C     C_1   0.998351 0.389039 0.748980 0.025466
C76   C     C_1   0.998206 0.610963 0.748464 0.015939
C77   C     C_1   0.998459 0.610960 0.250937 0.019929
C78   C     C_1   0.498296 0.889037 0.251462 0.013119
C79   C     C_3   0.490566 0.536894 0.751856 0.009402
C80   C     C_1   0.498345 0.889040 0.748977 0.025403
C81   C     C_1   0.498202 0.110962 0.748460 0.015885
C82   C     C_1   0.498458 0.110960 0.250938 0.019930
C83   C     C_1   0.498296 0.389037 0.751462 0.013123
C84   C     C_1   0.498349 0.389039 0.248977 0.025464
C85   C     C_1   0.498205 0.610963 0.248461 0.015938
C86   C     C_1   0.498458 0.610960 0.750938 0.019931
C87   C     C_2   0.386583 0.537477 0.704443 0.986341
C88   C     C_2   0.396334 0.542630 0.318462 1.014277
C89   C     C_2   0.384397 0.462174 0.292177 0.911405
C90   C     C_3   0.490025 0.536895 0.246242 0.028212
C91   C     C_2   0.399182 0.458171 0.678086 1.023507
C92   C     C_2   0.386588 0.037477 0.204429 0.986346
C93   C     C_2   0.396347 0.042631 0.818493 1.014281
C94   C     C_2   0.384399 0.962176 0.792209 0.911412
C95   C     C_2   0.399191 0.958171 0.178074 1.023506
C96   C     C_2   0.886582 0.537477 0.204443 0.986348
C97   C     C_2   0.896420 0.542630 0.818587 1.014273
C98   C     C_2   0.884452 0.462174 0.792317 0.911405
C99   C     C_2   0.899181 0.458171 0.178086 1.023505
C100  C     C_2   0.886708 0.037476 0.704152 0.986362
C101  C     C_3   0.489953 0.463093 0.247812 0.024002
C102  C     C_2   0.896408 0.042630 0.318570 1.014281
C103  C     C_2   0.884445 0.962174 0.292297 0.911400
C104  C     C_2   0.899373 0.958171 0.677828 1.023500
C105  C     C_2   0.467790 0.539689 0.636771 0.995094
C106  C     C_2   0.493695 0.536203 0.359321 0.921744
C107  C     C_2   0.462223 0.460155 0.361789 1.007975
C108  C     C_2   0.497797 0.463815 0.640409 0.920131
C109  C     C_2   0.467805 0.039689 0.136767 0.995092
C110  C     C_2   0.493718 0.036202 0.859326 0.921723
C111  C     C_2   0.462240 0.960156 0.861806 1.007969
C112  C     C_R   0.500029 0.849572 0.250010 0.823245
C113  C     C_3   0.490621 0.463116 0.753453 0.009637
C114  C     C_2   0.497810 0.963815 0.140410 0.920128
C115  C     C_2   0.967789 0.539689 0.136769 0.995088
C116  C     C_2   0.993830 0.536203 0.859330 0.921739
C117  C     C_2   0.962360 0.460155 0.861837 1.007968
C118  C     C_2   0.997795 0.463815 0.140407 0.920118
C119  C     C_2   0.968085 0.039688 0.636684 0.995083
C120  C     C_2   0.993809 0.036203 0.359332 0.921733
C121  C     C_2   0.962339 0.960155 0.361832 1.007958
C122  C     C_2   0.998082 0.963814 0.640400 0.920119
C123  C     C_2   0.516962 0.536170 0.861840 0.917244
C124  C     C_3   0.490565 0.036894 0.251856 0.009402
C125  C     C_2   0.491859 0.539451 0.129001 1.011545
C126  C     C_2   0.522235 0.463997 0.139483 0.943513
C127  C     C_2   0.486892 0.460258 0.870711 0.985868
C128  C     C_2   0.516947 0.036170 0.361844 0.917237
C129  C     C_2   0.491824 0.039450 0.628992 1.011559
C130  C     C_2   0.522206 0.963998 0.639471 0.943496
C131  C     C_2   0.486876 0.960258 0.370711 0.985868
C132  C     C_2   0.016964 0.536170 0.361838 0.917222
C133  C     C_2   0.991720 0.539451 0.629012 1.011522
C134  C     C_2   0.022108 0.463997 0.639458 0.943529
C135  C     C_3   0.490016 0.036895 0.746241 0.028251
C136  C     C_2   0.986893 0.460258 0.370710 0.985881
C137  C     C_2   0.016692 0.036170 0.861878 0.917280
C138  C     C_2   0.991745 0.039451 0.129014 1.011554
C139  C     C_2   0.022131 0.963997 0.139466 0.943527
C140  C     C_2   0.986600 0.960259 0.870675 0.985842
C141  C     C_2   0.413303 0.542177 0.841702 1.018950
C142  C     C_2   0.397938 0.539154 0.177591 1.020652
C143  C     C_2   0.418340 0.457666 0.153213 0.874089
C144  C     C_2   0.395852 0.462624 0.817323 0.984216
C145  C     C_2   0.413290 0.042177 0.341692 1.018951
C146  C     C_3   0.489944 0.963093 0.747813 0.024051
C147  C     C_2   0.397915 0.039152 0.677608 1.020691
C148  C     C_2   0.418312 0.957667 0.653224 0.874105
C149  C     C_2   0.395843 0.962624 0.317310 0.984214
C150  C     C_2   0.913304 0.542177 0.341702 1.018938
C151  C     C_2   0.897856 0.539154 0.677714 1.020636
C152  C     C_2   0.918229 0.457666 0.653312 0.874096
C153  C     C_2   0.895853 0.462624 0.317322 0.984218
C154  C     C_2   0.913084 0.042177 0.841480 1.018943
C155  C     C_2   0.897871 0.039154 0.177697 1.020645
C156  C     C_2   0.918250 0.957666 0.153299 0.874074
C157  C     C_3   0.490620 0.963117 0.253453 0.009638
C158  C     C_2   0.895694 0.962625 0.817058 0.984185
C159  C     C_3   0.990566 0.536894 0.251854 0.009407
C160  C     C_3   0.990025 0.536895 0.746255 0.028213
C161  C     C_3   0.989955 0.463093 0.747826 0.023998
C162  C     C_3   0.990621 0.463116 0.253452 0.009633
C163  C     C_3   0.990572 0.036894 0.751827 0.009391
C164  C     C_R   0.500033 0.150429 0.249948 0.826234
C165  C     C_3   0.990026 0.036895 0.246257 0.028205
C166  C     C_3   0.989957 0.963093 0.247827 0.024001
C167  C     C_3   0.990623 0.963117 0.753426 0.009640
C168  C     C_3   0.959961 0.977785 0.813948 -0.274541
C169  C     C_3   0.971264 0.977264 0.181990 -0.243153
C170  C     C_3   0.961628 0.022260 0.184417 -0.358349
C171  C     C_3   0.968587 0.022790 0.816568 -0.265064
C172  C     C_3   0.960112 0.477784 0.314050 -0.274562
C173  C     C_3   0.971249 0.477264 0.681993 -0.243161
C174  C     C_3   0.961615 0.522260 0.684421 -0.358352
C175  C     C_R   0.500039 0.150426 0.750000 0.824048
C176  C     C_3   0.968744 0.522789 0.316650 -0.265067
C177  C     C_3   0.460102 0.977784 0.314047 -0.274563
C178  C     C_3   0.471304 0.977263 0.681959 -0.243171
C179  C     C_3   0.461667 0.022260 0.684377 -0.358364
C180  C     C_3   0.468734 0.022789 0.316649 -0.265074
C181  C     C_3   0.460111 0.477784 0.814051 -0.274566
C182  C     C_3   0.471326 0.477264 0.181957 -0.243158
C183  C     C_3   0.461688 0.522260 0.184374 -0.358364
C184  C     C_3   0.468743 0.522789 0.816651 -0.265078
C185  C     C_1   0.995449 0.922230 0.752599 0.084155
C186  C     C_R   0.500044 0.349572 0.250063 0.822873
C187  C     C_1   0.995206 0.922232 0.248356 0.125949
C188  C     C_1   0.995150 0.077774 0.247235 0.094174
C189  C     C_1   0.995550 0.077763 0.751456 0.098390
C190  C     C_1   0.995447 0.422230 0.252611 0.084155
C191  C     C_1   0.995205 0.422232 0.748355 0.125947
C192  C     C_1   0.995148 0.577774 0.747233 0.094178
C193  C     C_1   0.995544 0.577764 0.251471 0.098404
C194  C     C_1   0.495446 0.922230 0.252613 0.084153
C195  C     C_1   0.495195 0.922233 0.748348 0.125881
C196  C     C_1   0.495141 0.077773 0.747224 0.094110
C197  C     C_R   0.500029 0.349572 0.750010 0.823242
C198  C     C_1   0.495543 0.077764 0.251472 0.098401
C199  C     C_1   0.495447 0.422230 0.752613 0.084155
C200  C     C_1   0.495203 0.422232 0.248347 0.125951
C201  C     C_1   0.495147 0.577774 0.247226 0.094174
C202  C     C_1   0.495544 0.577764 0.751472 0.098403
C203  C     C_1   0.499976 0.749988 0.526632 -0.124503
C204  C     C_1   0.499989 0.749995 0.473368 -0.124507
C205  C     C_1   0.499976 0.250012 0.473368 -0.124964
C206  C     C_1   0.499989 0.250005 0.526632 -0.124251
C207  C     C_1   0.499976 0.249988 0.026632 -0.124500
C208  C     C_R   0.500033 0.650429 0.749948 0.826232
C209  C     C_1   0.499989 0.249995 0.973368 -0.124504
C210  C     C_1   0.499976 0.750012 0.973368 -0.124965
C211  C     C_1   0.499989 0.750004 0.026632 -0.124251
C212  C     C_1   0.999976 0.749988 0.026632 -0.124504
C213  C     C_1   0.999989 0.749995 0.973368 -0.124508
C214  C     C_1   0.999976 0.250012 0.973368 -0.124970
C215  C     C_1   0.999989 0.250005 0.026632 -0.124256
C216  C     C_1   0.999976 0.249988 0.526632 -0.124498
C217  C     C_1   0.999989 0.249995 0.473368 -0.124501
C218  C     C_1   0.999976 0.750012 0.473368 -0.124961
C219  C     C_R   0.500039 0.650427 0.250000 0.824040
C220  C     C_1   0.999989 0.750004 0.526632 -0.124245
C221  C     C_R   0.499987 0.750008 0.910131 0.846859
C222  C     C_R   0.499998 0.750002 0.089869 0.845673
C223  C     C_R   0.499987 0.249992 0.089869 0.846715
C224  C     C_R   0.499998 0.249997 0.910131 0.846018
C225  C     C_R   0.499987 0.250007 0.410131 0.846858
C226  C     C_R   0.499998 0.250003 0.589869 0.845674
C227  C     C_R   0.499987 0.749992 0.589869 0.846713
C228  C     C_R   0.499998 0.749997 0.410131 0.846017
C229  C     C_R   0.999987 0.750008 0.410131 0.846860
C230  C     C_R   0.000044 0.849572 0.250064 0.822886
C231  C     C_R   0.999998 0.750002 0.589869 0.845676
C232  C     C_R   0.999987 0.249992 0.589869 0.846720
C233  C     C_R   0.999998 0.249997 0.410131 0.846019
C234  C     C_R   0.999987 0.250007 0.910131 0.846860
C235  C     C_R   0.999998 0.250003 0.089869 0.845672
C236  C     C_R   0.999987 0.749992 0.089869 0.846713
C237  C     C_R   0.999998 0.749997 0.910131 0.846016
C238  C     C_R   0.339853 0.750000 0.749999 0.845996
C239  C     C_R   0.339860 0.750000 0.249999 0.851656
C240  C     C_R   0.339853 0.250000 0.249999 0.845994
H1    H     H_    0.083308 0.965369 0.718198 0.204088
H2    H     H_    0.568260 0.972906 0.806273 0.255198
H3    H     H_    0.581147 0.034578 0.785553 0.197138
H4    H     H_    0.571513 0.027135 0.197099 0.258439
H5    H     H_    0.583218 0.465370 0.717992 0.204075
H6    H     H_    0.568250 0.472906 0.306294 0.255198
H7    H     H_    0.581143 0.534580 0.285576 0.197144
H8    H     H_    0.571507 0.527135 0.697088 0.258437
H9    H     H_    0.298826 0.529601 0.717741 0.371285
H10   H     H_    0.338289 0.583661 0.300778 0.371671
H11   H     H_    0.332971 0.416306 0.290187 0.369977
H12   H     H_    0.068311 0.972906 0.306231 0.255200
H13   H     H_    0.331321 0.453975 0.619655 0.369635
H14   H     H_    0.298830 0.029601 0.217717 0.371289
H15   H     H_    0.338283 0.083652 0.800818 0.371669
H16   H     H_    0.332962 0.916311 0.790242 0.369963
H17   H     H_    0.331337 0.953976 0.119635 0.369636
H18   H     H_    0.798826 0.529601 0.217742 0.371295
H19   H     H_    0.838353 0.583661 0.800972 0.371682
H20   H     H_    0.833023 0.416306 0.790388 0.369990
H21   H     H_    0.831319 0.453976 0.119656 0.369647
H22   H     H_    0.798918 0.029600 0.717228 0.371327
H23   H     H_    0.081183 0.034580 0.285500 0.197149
H24   H     H_    0.838345 0.083662 0.300943 0.371683
H25   H     H_    0.833016 0.916306 0.290358 0.369986
H26   H     H_    0.831661 0.953974 0.619225 0.369666
H27   H     H_    0.450372 0.542977 0.548814 0.374740
H28   H     H_    0.514002 0.578108 0.415390 0.360254
H29   H     H_    0.441288 0.457014 0.449000 0.374258
H30   H     H_    0.517828 0.422432 0.583248 0.360679
H31   H     H_    0.450399 0.042977 0.048808 0.374745
H32   H     H_    0.514034 0.078100 0.915405 0.360262
H33   H     H_    0.441330 0.957019 0.949027 0.374263
H34   H     H_    0.071650 0.027135 0.697264 0.258450
H35   H     H_    0.517847 0.922433 0.083249 0.360679
H36   H     H_    0.950371 0.542977 0.048812 0.374776
H37   H     H_    0.014204 0.578108 0.915374 0.360264
H38   H     H_    0.941529 0.457015 0.949072 0.374244
H39   H     H_    0.017824 0.422433 0.083244 0.360658
H40   H     H_    0.950889 0.042975 0.548683 0.374722
H41   H     H_    0.014170 0.078107 0.415382 0.360217
H42   H     H_    0.941492 0.957015 0.449064 0.374313
H43   H     H_    0.018257 0.922431 0.583290 0.360679
H44   H     H_    0.547573 0.577905 0.913348 0.364940
H45   H     H_    0.083217 0.465370 0.217989 0.204079
H46   H     H_    0.493833 0.542426 0.039296 0.375622
H47   H     H_    0.556555 0.422091 0.090693 0.362439
H48   H     H_    0.484086 0.457060 0.960364 0.380118
H49   H     H_    0.547550 0.077905 0.413357 0.364940
H50   H     H_    0.493780 0.042421 0.539282 0.375627
H51   H     H_    0.556514 0.922099 0.590657 0.362439
H52   H     H_    0.484058 0.957061 0.460363 0.380116
H53   H     H_    0.047576 0.577905 0.413345 0.364962
H54   H     H_    0.993589 0.542424 0.539305 0.375661
H55   H     H_    0.056368 0.422091 0.590625 0.362422
H56   H     H_    0.068321 0.472906 0.806214 0.255197
H57   H     H_    0.984088 0.457060 0.460362 0.380070
H58   H     H_    0.047172 0.077905 0.913466 0.364909
H59   H     H_    0.993630 0.042425 0.039307 0.375570
H60   H     H_    0.056403 0.922091 0.090643 0.362468
H61   H     H_    0.983573 0.957064 0.960321 0.380167
H62   H     H_    0.353543 0.583635 0.837501 0.360571
H63   H     H_    0.342509 0.494332 0.191482 0.339039
H64   H     H_    0.359378 0.415703 0.153189 0.360407
H65   H     H_    0.307125 0.470568 0.819340 0.374566
H66   H     H_    0.353530 0.083635 0.337482 0.360572
H67   H     H_    0.081189 0.534580 0.785481 0.197143
H68   H     H_    0.342480 0.994329 0.691515 0.339064
H69   H     H_    0.359336 0.915712 0.653213 0.360408
H70   H     H_    0.307115 0.970567 0.319317 0.374564
H71   H     H_    0.853544 0.583635 0.337501 0.360567
H72   H     H_    0.842444 0.494332 0.691673 0.339035
H73   H     H_    0.859267 0.415703 0.653359 0.360402
H74   H     H_    0.807126 0.470568 0.319341 0.374560
H75   H     H_    0.853332 0.083634 0.837127 0.360558
H76   H     H_    0.842456 0.994332 0.191645 0.339042
H77   H     H_    0.859287 0.915703 0.153334 0.360402
H78   H     H_    0.071506 0.527135 0.197086 0.258435
H79   H     H_    0.806961 0.970569 0.818850 0.374538
H80   H     H_    0.587787 0.534493 0.771471 0.208209
H81   H     H_    0.580665 0.527179 0.209546 0.256545
H82   H     H_    0.588087 0.465449 0.232879 0.200675
H83   H     H_    0.579436 0.472739 0.794071 0.259037
H84   H     H_    0.587783 0.034493 0.271484 0.208209
H85   H     H_    0.580652 0.027178 0.709529 0.256537
H86   H     H_    0.588078 0.965450 0.732858 0.200658
H87   H     H_    0.579430 0.972739 0.294082 0.259035
H88   H     H_    0.087787 0.534493 0.271468 0.208207
H89   H     H_    0.583221 0.965370 0.218004 0.204079
H90   H     H_    0.080621 0.527179 0.709452 0.256551
H91   H     H_    0.088071 0.465449 0.732776 0.200682
H92   H     H_    0.079437 0.472739 0.294068 0.259038
H93   H     H_    0.087744 0.034493 0.771687 0.208206
H94   H     H_    0.080631 0.027179 0.209471 0.256548
H95   H     H_    0.088075 0.965449 0.232797 0.200677
H96   H     H_    0.079336 0.972739 0.794266 0.259037
O1    O     O_3   0.499990 0.750000 0.750000 -0.509006
O2    O     O_R   0.534620 0.832000 0.284640 -0.629719
O3    O     O_R   0.965400 0.168000 0.284590 -0.613393
O4    O     O_R   0.965400 0.332000 0.784590 -0.612057
O5    O     O_R   0.965400 0.332000 0.215410 -0.610641
O6    O     O_R   0.965400 0.668000 0.215410 -0.610676
O7    O     O_R   0.965400 0.668000 0.784590 -0.613393
O8    O     O_2   0.378094 0.570693 0.698073 -0.567836
O9    O     O_R   0.337303 0.515157 0.715115 -0.753387
O10   O     O_2   0.368496 0.534137 0.363198 -0.503101
O11   O     O_R   0.376820 0.572845 0.285316 -0.763562
O12   O     O_2   0.340382 0.481701 0.290021 -0.587175
O13   O     O_R   0.534620 0.168000 0.284640 -0.633701
O14   O     O_R   0.376182 0.423808 0.293875 -0.749821
O15   O     O_2   0.381005 0.431594 0.706012 -0.579989
O16   O     O_R   0.368578 0.469040 0.626810 -0.707599
O17   O     O_2   0.378101 0.070693 0.198057 -0.567831
O18   O     O_R   0.337308 0.015157 0.215096 -0.753386
O19   O     O_2   0.368521 0.034135 0.863235 -0.503115
O20   O     O_R   0.376814 0.072841 0.785345 -0.763548
O21   O     O_2   0.340386 0.981706 0.790063 -0.587197
O22   O     O_R   0.376177 0.923811 0.793907 -0.749822
O23   O     O_2   0.381011 0.931594 0.205997 -0.579987
O24   O     O_R   0.534620 0.168000 0.715360 -0.628246
O25   O     O_R   0.368592 0.969040 0.126795 -0.707597
O26   O     O_2   0.878094 0.570693 0.198073 -0.567827
O27   O     O_R   0.837303 0.515157 0.215116 -0.753382
O28   O     O_2   0.868635 0.534137 0.863356 -0.503096
O29   O     O_R   0.876866 0.572845 0.785464 -0.763547
O30   O     O_2   0.840433 0.481701 0.790214 -0.587153
O31   O     O_R   0.876239 0.423808 0.794025 -0.749807
O32   O     O_2   0.881005 0.431594 0.206012 -0.579989
O33   O     O_R   0.868576 0.469040 0.126811 -0.707567
O34   O     O_2   0.878235 0.070693 0.697761 -0.567788
O35   O     O_R   0.534620 0.332000 0.215360 -0.634187
O36   O     O_R   0.837401 0.015157 0.714699 -0.753351
O37   O     O_2   0.868614 0.034137 0.363333 -0.503056
O38   O     O_R   0.876860 0.072845 0.285443 -0.763551
O39   O     O_2   0.840427 0.981701 0.290186 -0.587164
O40   O     O_R   0.876232 0.923808 0.294003 -0.749810
O41   O     O_2   0.881125 0.931595 0.705710 -0.579949
O42   O     O_R   0.868899 0.969039 0.626474 -0.707588
O43   O     O_2   0.507976 0.562238 0.632352 -0.613972
O44   O     O_R   0.435583 0.530002 0.585877 -0.718644
O45   O     O_2   0.532619 0.517024 0.381270 -0.607285
O46   O     O_R   0.534620 0.332000 0.784640 -0.629717
O47   O     O_R   0.486183 0.572172 0.381283 -0.786561
O48   O     O_2   0.501826 0.437348 0.367791 -0.618748
O49   O     O_R   0.428224 0.470101 0.411393 -0.722102
O50   O     O_2   0.538928 0.482337 0.621183 -0.604020
O51   O     O_R   0.488905 0.428483 0.616368 -0.785120
O52   O     O_2   0.507991 0.062238 0.132355 -0.613966
O53   O     O_R   0.435605 0.030002 0.085869 -0.718641
O54   O     O_2   0.532645 0.017021 0.881262 -0.607256
O55   O     O_R   0.486207 0.072169 0.881303 -0.786547
O56   O     O_2   0.501849 0.937352 0.867800 -0.618721
O57   O     O_R   0.534620 0.668000 0.784640 -0.633699
O58   O     O_R   0.428256 0.970103 0.911421 -0.722097
O59   O     O_2   0.538945 0.982337 0.121191 -0.604016
O60   O     O_R   0.488920 0.928484 0.116365 -0.785121
O61   O     O_2   0.007975 0.562238 0.132351 -0.613967
O62   O     O_R   0.935582 0.530002 0.085876 -0.718612
O63   O     O_2   0.032779 0.517024 0.881233 -0.607277
O64   O     O_R   0.986344 0.572173 0.881300 -0.786590
O65   O     O_2   0.001970 0.437348 0.867791 -0.618765
O66   O     O_R   0.928420 0.470102 0.911481 -0.722094
O67   O     O_2   0.038927 0.482337 0.121182 -0.604036
O68   O     O_R   0.534620 0.668000 0.215360 -0.628240
O69   O     O_R   0.988902 0.428484 0.116365 -0.785122
O70   O     O_2   0.008282 0.062237 0.632367 -0.613977
O71   O     O_R   0.936007 0.030000 0.585709 -0.718612
O72   O     O_2   0.032755 0.017024 0.381242 -0.607312
O73   O     O_R   0.986318 0.072173 0.381302 -0.786578
O74   O     O_2   0.001948 0.937348 0.367794 -0.618744
O75   O     O_R   0.928390 0.970102 0.411470 -0.722055
O76   O     O_2   0.039262 0.982336 0.621278 -0.603998
O77   O     O_R   0.989251 0.928482 0.616336 -0.785176
O78   O     O_2   0.559967 0.517205 0.874822 -0.599451
O79   O     O_R   0.034620 0.832000 0.215360 -0.634203
O80   O     O_R   0.513434 0.571931 0.885606 -0.785295
O81   O     O_2   0.531870 0.562145 0.133189 -0.604512
O82   O     O_R   0.471440 0.529540 0.072411 -0.714550
O83   O     O_2   0.565448 0.483210 0.128263 -0.610805
O84   O     O_R   0.520866 0.427979 0.116458 -0.780715
O85   O     O_2   0.526988 0.437521 0.868452 -0.602394
O86   O     O_R   0.463588 0.470107 0.926199 -0.716572
O87   O     O_2   0.559951 0.017205 0.374831 -0.599457
O88   O     O_R   0.513415 0.071931 0.385611 -0.785300
O89   O     O_2   0.531840 0.062140 0.633170 -0.604505
O90   O     O_R   0.034620 0.832000 0.784640 -0.629759
O91   O     O_R   0.471393 0.029539 0.572404 -0.714531
O92   O     O_2   0.565414 0.983212 0.628245 -0.610811
O93   O     O_R   0.520829 0.927983 0.616431 -0.780696
O94   O     O_2   0.526972 0.937521 0.368457 -0.602399
O95   O     O_R   0.463565 0.970107 0.426196 -0.716581
O96   O     O_2   0.059969 0.517204 0.374820 -0.599427
O97   O     O_R   0.013436 0.571931 0.385604 -0.785315
O98   O     O_2   0.031736 0.562145 0.633152 -0.604518
O99   O     O_R   0.971235 0.529540 0.572447 -0.714535
O100  O     O_2   0.065308 0.483209 0.628188 -0.610808
O101  O     O_R   0.034620 0.168000 0.784640 -0.633734
O102  O     O_R   0.020710 0.427979 0.616433 -0.780724
O103  O     O_2   0.026990 0.437522 0.368450 -0.602398
O104  O     O_R   0.963590 0.470107 0.426198 -0.716636
O105  O     O_2   0.059666 0.017205 0.874967 -0.599480
O106  O     O_R   0.013103 0.071931 0.885638 -0.785309
O107  O     O_2   0.031760 0.062145 0.133162 -0.604527
O108  O     O_R   0.971269 0.029540 0.072445 -0.714651
O109  O     O_2   0.065333 0.983210 0.128203 -0.610769
O110  O     O_R   0.020739 0.927979 0.116442 -0.780730
O111  O     O_2   0.026702 0.937523 0.868517 -0.602413
O112  O     O_3   0.499990 0.750000 0.250000 -0.510345
O113  O     O_R   0.034620 0.168000 0.215360 -0.628259
O114  O     O_R   0.963159 0.970109 0.926105 -0.716608
O115  O     O_2   0.393900 0.532484 0.890104 -0.514370
O116  O     O_R   0.388554 0.573246 0.814655 -0.776167
O117  O     O_2   0.394533 0.572380 0.168012 -0.529122
O118  O     O_R   0.343338 0.520753 0.179504 -0.691911
O119  O     O_2   0.400534 0.468244 0.104688 -0.521729
O120  O     O_R   0.393014 0.426069 0.178041 -0.783323
O121  O     O_2   0.388460 0.429313 0.823802 -0.578917
O122  O     O_R   0.345526 0.485019 0.815875 -0.742736
O123  O     O_2   0.393881 0.032484 0.390091 -0.514373
O124  O     O_R   0.034620 0.332000 0.715360 -0.634206
O125  O     O_R   0.388544 0.073246 0.314641 -0.776168
O126  O     O_2   0.394506 0.072378 0.668027 -0.529120
O127  O     O_R   0.343317 0.020749 0.679533 -0.691905
O128  O     O_2   0.400498 0.968248 0.604703 -0.521720
O129  O     O_R   0.392980 0.926074 0.678060 -0.783310
O130  O     O_2   0.388449 0.929313 0.323788 -0.578915
O131  O     O_R   0.345517 0.985019 0.315857 -0.742733
O132  O     O_2   0.893903 0.532484 0.390104 -0.514422
O133  O     O_R   0.888555 0.573246 0.314655 -0.776166
O134  O     O_2   0.894440 0.572380 0.668138 -0.529132
O135  O     O_R   0.034620 0.332000 0.284640 -0.629716
O136  O     O_R   0.843259 0.520753 0.679693 -0.691937
O137  O     O_2   0.900365 0.468244 0.604809 -0.521725
O138  O     O_R   0.892932 0.426069 0.678171 -0.783324
O139  O     O_2   0.888460 0.429313 0.323802 -0.578919
O140  O     O_R   0.845527 0.485019 0.315876 -0.742735
O141  O     O_2   0.893560 0.032484 0.889833 -0.514447
O142  O     O_R   0.888401 0.073246 0.814369 -0.776158
O143  O     O_2   0.894456 0.072380 0.168121 -0.529128
O144  O     O_R   0.843273 0.020752 0.179665 -0.691919
O145  O     O_2   0.900396 0.968244 0.104791 -0.521834
O146  O     O_R   0.034620 0.668000 0.284640 -0.633701
O147  O     O_R   0.892947 0.926069 0.178152 -0.783320
O148  O     O_2   0.888285 0.929314 0.823521 -0.578931
O149  O     O_R   0.845372 0.985020 0.815482 -0.742767
O150  O     O_R   0.034620 0.668000 0.715360 -0.628260
O151  O     O_R   0.465390 0.771500 0.882020 -0.629636
O152  O     O_R   0.465390 0.771500 0.117980 -0.630033
O153  O     O_R   0.465390 0.228500 0.117980 -0.628898
O154  O     O_R   0.465390 0.228500 0.882020 -0.629895
O155  O     O_R   0.465390 0.271500 0.382020 -0.629634
O156  O     O_3   0.499990 0.250000 0.250000 -0.509006
O157  O     O_R   0.465390 0.271500 0.617980 -0.630032
O158  O     O_R   0.465390 0.728500 0.617980 -0.628899
O159  O     O_R   0.465390 0.728500 0.382020 -0.629896
O160  O     O_R   0.965390 0.771500 0.382020 -0.629631
O161  O     O_R   0.965390 0.771500 0.617980 -0.630022
O162  O     O_R   0.965390 0.228500 0.617980 -0.628889
O163  O     O_R   0.965390 0.228500 0.382020 -0.629891
O164  O     O_R   0.965390 0.271500 0.882020 -0.629632
O165  O     O_R   0.965390 0.271500 0.117980 -0.630030
O166  O     O_R   0.965390 0.728500 0.117980 -0.628895
O167  O     O_3   0.499990 0.250000 0.750000 -0.510345
O168  O     O_R   0.965390 0.728500 0.882020 -0.629892
O169  O     O_R   0.367970 0.771500 0.784600 -0.630153
O170  O     O_R   0.367970 0.771500 0.215400 -0.626087
O171  O     O_R   0.367970 0.228500 0.215400 -0.626121
O172  O     O_R   0.367970 0.228500 0.784600 -0.628689
O173  O     O_R   0.367970 0.271500 0.284600 -0.630150
O174  O     O_R   0.367970 0.271500 0.715400 -0.626087
O175  O     O_R   0.367970 0.728500 0.715400 -0.626120
O176  O     O_R   0.367970 0.728500 0.284600 -0.628691
O177  O     O_R   0.867970 0.771500 0.284600 -0.630156
O178  O     O_3   0.999990 0.750000 0.250000 -0.509005
O179  O     O_R   0.867970 0.771500 0.715400 -0.626087
O180  O     O_R   0.867970 0.228500 0.715400 -0.626124
O181  O     O_R   0.867970 0.228500 0.284600 -0.628689
O182  O     O_R   0.867970 0.271500 0.784600 -0.630152
O183  O     O_R   0.867970 0.271500 0.215400 -0.626087
O184  O     O_R   0.867970 0.728500 0.215400 -0.626119
O185  O     O_R   0.867970 0.728500 0.784600 -0.628692
O186  O     O_R   0.632030 0.771500 0.715390 -0.631691
O187  O     O_R   0.632030 0.771500 0.284610 -0.632749
O188  O     O_R   0.632030 0.228500 0.284610 -0.631623
O189  O     O_3   0.999990 0.750000 0.750000 -0.510344
O190  O     O_R   0.632030 0.228500 0.715390 -0.630846
O191  O     O_R   0.632030 0.271500 0.215390 -0.631693
O192  O     O_R   0.632030 0.271500 0.784610 -0.632746
O193  O     O_R   0.632030 0.728500 0.784610 -0.631625
O194  O     O_R   0.632030 0.728500 0.215390 -0.630841
O195  O     O_R   0.132030 0.771500 0.215390 -0.631691
O196  O     O_R   0.132030 0.771500 0.784610 -0.632752
O197  O     O_R   0.132030 0.228500 0.784610 -0.631621
O198  O     O_R   0.132030 0.228500 0.215390 -0.630844
O199  O     O_R   0.132030 0.271500 0.715390 -0.631691
O200  O     O_3   0.999990 0.250000 0.750000 -0.509005
O201  O     O_R   0.132030 0.271500 0.284610 -0.632745
O202  O     O_R   0.132030 0.728500 0.284610 -0.631625
O203  O     O_R   0.132030 0.728500 0.715390 -0.630842
O204  O     O_R   0.534610 0.728510 0.882040 -0.628999
O205  O     O_R   0.534610 0.728510 0.117960 -0.627528
O206  O     O_R   0.534610 0.271490 0.117960 -0.629012
O207  O     O_R   0.534610 0.271490 0.882040 -0.627807
O208  O     O_R   0.534610 0.228510 0.382040 -0.629001
O209  O     O_R   0.534610 0.228510 0.617960 -0.627530
O210  O     O_R   0.534610 0.771490 0.617960 -0.629013
O211  O     O_3   0.999990 0.250000 0.250000 -0.510345
O212  O     O_R   0.534610 0.771490 0.382040 -0.627808
O213  O     O_R   0.034610 0.728510 0.382040 -0.629000
O214  O     O_R   0.034610 0.728510 0.617960 -0.627533
O215  O     O_R   0.034610 0.271490 0.617960 -0.629019
O216  O     O_R   0.034610 0.271490 0.382040 -0.627810
O217  O     O_R   0.034610 0.228510 0.882040 -0.629010
O218  O     O_R   0.034610 0.228510 0.117960 -0.627534
O219  O     O_R   0.034610 0.771490 0.117960 -0.629019
O220  O     O_R   0.034610 0.771490 0.882040 -0.627814
O221  O     O_R   0.465400 0.832000 0.784590 -0.612068
O222  O     O_R   0.534620 0.832000 0.715360 -0.634186
O223  O     O_R   0.465400 0.832000 0.215410 -0.610639
O224  O     O_R   0.465400 0.168000 0.215410 -0.610677
O225  O     O_R   0.465400 0.168000 0.784590 -0.613404
O226  O     O_R   0.465400 0.332000 0.284590 -0.612066
O227  O     O_R   0.465400 0.332000 0.715410 -0.610641
O228  O     O_R   0.465400 0.668000 0.715410 -0.610680
O229  O     O_R   0.465400 0.668000 0.284590 -0.613406
O230  O     O_R   0.965400 0.832000 0.284590 -0.612056
O231  O     O_R   0.965400 0.832000 0.715410 -0.610608
O232  O     O_R   0.965400 0.168000 0.715410 -0.610654
Zn1   Zn    Zn3+2 0.549450 0.719300 0.799470 1.009519
Zn2   Zn    Zn3+2 0.049450 0.719300 0.700530 1.012636
Zn3   Zn    Zn3+2 0.049450 0.280700 0.700530 1.008603
Zn4   Zn    Zn3+2 0.049450 0.280700 0.299470 1.010161
Zn5   Zn    Zn3+2 0.049450 0.219300 0.799470 1.009508
Zn6   Zn    Zn3+2 0.049450 0.219300 0.200530 1.012630
Zn7   Zn    Zn3+2 0.049450 0.780700 0.200530 1.008597
Zn8   Zn    Zn3+2 0.049450 0.780700 0.799470 1.010133
Zn9   Zn    Zn3+2 0.450550 0.780720 0.799450 1.020375
Zn10  Zn    Zn3+2 0.450550 0.780720 0.200550 1.026220
Zn11  Zn    Zn3+2 0.450550 0.219280 0.200550 1.026442
Zn12  Zn    Zn3+2 0.549450 0.719300 0.200530 1.012644
Zn13  Zn    Zn3+2 0.450550 0.219280 0.799450 1.022562
Zn14  Zn    Zn3+2 0.450550 0.280720 0.299450 1.020377
Zn15  Zn    Zn3+2 0.450550 0.280720 0.700550 1.026220
Zn16  Zn    Zn3+2 0.450550 0.719280 0.700550 1.026440
Zn17  Zn    Zn3+2 0.450550 0.719280 0.299450 1.022556
Zn18  Zn    Zn3+2 0.950550 0.780720 0.299450 1.020380
Zn19  Zn    Zn3+2 0.950550 0.780720 0.700550 1.026242
Zn20  Zn    Zn3+2 0.950550 0.219280 0.700550 1.026459
Zn21  Zn    Zn3+2 0.950550 0.219280 0.299450 1.022569
Zn22  Zn    Zn3+2 0.950550 0.280720 0.799450 1.020378
Zn23  Zn    Zn3+2 0.549450 0.280700 0.200530 1.008605
Zn24  Zn    Zn3+2 0.950550 0.280720 0.200550 1.026219
Zn25  Zn    Zn3+2 0.950550 0.719280 0.200550 1.026442
Zn26  Zn    Zn3+2 0.950550 0.719280 0.799450 1.022560
Zn27  Zn    Zn3+2 0.549450 0.280700 0.799470 1.010160
Zn28  Zn    Zn3+2 0.549450 0.219300 0.299470 1.009519
Zn29  Zn    Zn3+2 0.549450 0.219300 0.700530 1.012636
Zn30  Zn    Zn3+2 0.549450 0.780700 0.700530 1.008608
Zn31  Zn    Zn3+2 0.549450 0.780700 0.299470 1.010156
Zn32  Zn    Zn3+2 0.049450 0.719300 0.299470 1.009517

loop_
_geom_bond_atom_site_label_1
_geom_bond_atom_site_label_2
_ccdc_geom_bond_type
C48   H93   S    
C147  O126  D    
O200  Zn5   S    
H68   O127  S    
C97   O29   S    
O213  Zn32  S    
C88   O11   S    
C161  C191  S    
O165  Zn24  S    
C152  O137  D    
C203  C227  S    
C131  C177  S    
C101  C200  S    
C6    O182  A    
H28   O47   S    
O220  Zn8   S    
C229  O213  A    
C54   C107  S    
C2    O90   A    
C156  O147  S    
C82   C198  T    
C63   C98   S    
C13   O101  A    
C10   O191  A    
H76   O144  S    
C142  O117  D    
O1    Zn9   S    
C167  C185  S    
O4    Zn22  S    
O211  Zn24  S    
H61   O114  S    
C64   C118  S    
C79   C184  S    
C63   C161  S    
C77   C193  T    
C182  C183  S    
C70   C185  T    
C74   C190  T    
C53   C106  S    
C125  O81   D    
C149  O131  S    
O195  Zn7   S    
C139  O109  D    
C206  C226  S    
O155  Zn14  S    
C59   C111  S    
C128  C180  S    
C83   C197  S    
C86   C202  T    
O197  Zn5   S    
C4    O184  A    
C238  O175  A    
H30   O51   S    
O1    Zn16  S    
C15   O199  A    
C3    O174  A    
O225  Zn13  S    
O227  Zn15  S    
C127  O86   S    
C131  O95   S    
C42   H87   S    
O156  Zn14  S    
O208  Zn28  S    
C40   C135  S    
C11   C20   S    
C153  O139  D    
C51   H96   S    
H41   O73   S    
C144  O121  D    
C59   C94   S    
H36   O62   S    
O113  Zn6   S    
C65   C100  S    
O167  Zn13  S    
C217  C233  S    
C239  O176  A    
O200  Zn20  S    
C134  O100  D    
C38   H5    S    
C140  O114  S    
C164  O13   A    
O192  Zn27  S    
O164  Zn22  S    
C7    C28   S    
C111  O58   S    
C12   O202  A    
O211  Zn4   S    
C89   O12   D    
C230  O79   A    
C87   O8    D    
C218  C229  S    
C5    O185  A    
C43   H88   S    
C98   O30   D    
C227  O210  A    
C39   H84   S    
O215  Zn3   S    
C113  C199  S    
C92   O18   S    
C38   H83   S    
C143  O120  S    
C240  O173  A    
C10   O188  A    
C208  O228  A    
H70   O131  S    
C13   C73   S    
C164  O224  A    
C222  O205  A    
C219  O229  A    
C42   C157  S    
O2    Zn31  S    
C81   C175  S    
C162  C190  S    
C226  O209  A    
C50   H12   S    
C6    O180  A    
C150  O133  S    
C16   C25   S    
O153  Zn11  S    
C205  C206  T    
H65   O122  S    
C95   O25   S    
C58   C110  S    
C94   O21   D    
C71   C187  T    
O203  Zn2   S    
O112  Zn10  S    
O135  Zn4   S    
H31   O53   S    
O35   Zn23  S    
O57   Zn1   S    
C8    C17   S    
C102  O38   S    
C132  O97   S    
C46   O5    A    
C115  O62   S    
C155  O144  S    
C82   C164  S    
H59   O108  S    
H19   O29   S    
O156  Zn23  S    
C126  O84   S    
C139  C169  S    
C137  O105  D    
C119  O71   S    
C120  O72   D    
C208  O57   A    
C225  O155  A    
C60   C95   S    
C147  C179  S    
C9    O194  A    
C15   O197  A    
C212  C213  T    
H69   O129  S    
C209  C224  S    
O152  Zn10  S    
C133  O99   S    
C175  O24   A    
C43   C47   S    
C105  O44   S    
O183  Zn24  S    
C235  O218  A    
C48   H34   S    
C207  C223  S    
O216  Zn4   S    
H48   O86   S    
C54   C101  S    
C60   C114  S    
O160  Zn18  S    
C136  O104  S    
C178  C179  S    
C110  O55   S    
C61   C96   S    
H24   O38   S    
C53   C54   S    
C147  O127  S    
C64   C99   S    
O177  Zn18  S    
C44   H67   S    
C36   C37   S    
C56   C60   S    
C96   O27   S    
C88   O10   D    
C43   C159  S    
C151  O136  S    
O163  Zn21  S    
C78   C194  T    
C1    O222  A    
O182  Zn22  S    
C158  O148  D    
H18   O27   S    
C146  C178  S    
O210  Zn30  S    
O209  Zn29  S    
C45   C161  S    
C121  O75   S    
C135  C196  S    
C47   C162  S    
C122  O76   D    
C168  C171  S    
C113  C181  S    
C41   C146  S    
O189  Zn19  S    
C95   O23   D    
H35   O60   S    
C99   O33   S    
H16   O22   S    
H63   O118  S    
O178  Zn32  S    
H33   O58   S    
C14   O203  A    
C52   C79   S    
O179  Zn19  S    
O218  Zn6   S    
O167  Zn27  S    
O178  Zn18  S    
C45   H91   S    
H58   O106  S    
C154  O141  D    
C66   C67   S    
H39   O69   S    
C151  C174  S    
O230  Zn18  S    
O175  Zn16  S    
C232  O215  A    
H14   O18   S    
C24   O113  A    
O112  Zn12  S    
C145  O125  S    
C120  O73   S    
C212  C236  S    
C122  O77   S    
O24   Zn29  S    
O212  Zn31  S    
H10   O11   S    
C40   H3    S    
C143  C182  S    
C14   O196  A    
C60   C157  S    
C108  O51   S    
C128  O88   S    
O101  Zn5   S    
C41   H86   S    
C75   C191  T    
O112  Zn17  S    
C61   C115  S    
C76   C192  T    
O90   Zn8   S    
C34   C79   S    
C62   C97   S    
C11   O192  A    
O112  Zn31  S    
C218  C220  T    
C50   H95   S    
C65   C163  S    
C90   C183  S    
C19   C28   T    
H22   O36   S    
O150  Zn2   S    
O124  Zn3   S    
O167  Zn15  S    
C152  C173  S    
C129  O89   D    
C231  O161  A    
C31   C238  S    
C107  O48   D    
C159  C176  S    
C62   C160  S    
O157  Zn15  S    
C123  O80   S    
H46   O82   S    
C34   H8    S    
C56   C109  S    
C4    C27   S    
C143  O119  D    
C57   O6    A    
C24   C72   S    
H13   O16   S    
C36   C90   S    
C159  C193  S    
C144  C181  S    
O186  Zn30  S    
C148  C178  S    
H54   O99   S    
C223  O153  A    
C66   C165  S    
H21   O33   S    
C97   O28   D    
H9    O9    S    
C233  O163  A    
O190  Zn29  S    
C151  O134  D    
C152  O138  S    
C52   C105  S    
H62   O116  S    
C58   C135  S    
C68   C76   S    
O185  Zn26  S    
C8    O193  A    
C55   C108  S    
C14   C22   S    
O13   Zn28  S    
C33   C240  S    
C37   C101  S    
C142  O118  S    
O171  Zn11  S    
C69   C122  S    
O200  Zn3   S    
C153  C172  S    
C154  C171  S    
O168  Zn26  S    
O7    Zn26  S    
C40   H85   S    
C109  O53   S    
H66   O125  S    
C9    C18   S    
C162  C172  S    
C149  O130  D    
C228  O159  A    
C8    O186  A    
C49   C50   S    
O193  Zn1   S    
C207  C209  T    
C36   H7    S    
C104  O41   D    
C146  C195  S    
H32   O55   S    
O172  Zn13  S    
C172  C176  S    
C237  O168  A    
C25   C33   T    
C117  O66   S    
O222  Zn30  S    
C141  O116  S    
O174  Zn15  S    
C118  O69   S    
C154  O142  S    
O180  Zn20  S    
C116  O63   D    
C84   C186  S    
O217  Zn5   S    
C127  O85   D    
C37   H82   S    
C221  O151  A    
C109  O52   D    
C158  C168  S    
C228  O212  A    
C214  C234  S    
C114  O59   D    
O156  Zn11  S    
C44   H90   S    
C93   O20   S    
H77   O147  S    
C144  O122  S    
C57   O146  A    
C56   C124  S    
C219  O68   A    
C58   C93   S    
C238  O169  A    
C132  O96   D    
C63   C117  S    
C11   O190  A    
C125  C183  S    
H73   O138  S    
C124  C198  S    
O188  Zn28  S    
C132  C176  S    
C96   O26   D    
C42   H89   S    
C55   C91   S    
C98   O31   S    
C130  C178  S    
H60   O110  S    
O214  Zn2   S    
C51   C167  S    
C129  O91   S    
C136  C172  S    
C50   C166  S    
C44   C45   S    
C16   O198  A    
C35   O4    A    
H57   O104  S    
C205  C225  S    
O201  Zn4   S    
C163  C171  S    
O223  Zn10  S    
C220  C231  S    
C52   C55   S    
C85   C201  T    
C13   O232  A    
C142  C183  S    
O219  Zn7   S    
C51   H1    S    
C99   O32   D    
C7    O181  A    
C39   C42   S    
O46   Zn27  S    
C165  C188  S    
C67   C103  S    
C166  C187  S    
C230  O230  A    
C57   C77   S    
C3    O172  A    
C94   O22   S    
C240  O171  A    
C86   C208  S    
C167  C168  S    
C38   C113  S    
C148  O128  D    
O151  Zn9   S    
C58   C59   S    
O204  Zn1   S    
O158  Zn16  S    
C235  O165  A    
C37   H6    S    
O184  Zn25  S    
C112  O2    A    
C34   C38   S    
C61   C64   S    
C157  C194  S    
C69   C167  S    
C49   C165  S    
C123  C184  S    
O228  Zn16  S    
C223  O206  A    
C161  C173  S    
C155  O143  D    
C125  O82   S    
C10   C19   S    
C107  O49   S    
C139  O110  S    
O159  Zn17  S    
C65   C119  S    
C163  C189  S    
C7    O183  A    
C9    O187  A    
C160  C192  S    
O200  Zn22  S    
C118  O67   D    
H20   O31   S    
C47   H92   S    
C44   C160  S    
C45   H56   S    
O162  Zn20  S    
C111  O56   D    
H49   O88   S    
C138  O108  S    
O181  Zn21  S    
C5    O179  A    
C49   H94   S    
C105  O43   D    
C181  C184  S    
C89   O14   S    
C80   C195  T    
H47   O84   S    
C153  O140  S    
C91   O15   D    
C91   O16   S    
C160  C174  S    
H37   O64   S    
H26   O42   S    
H71   O133  S    
H53   O97   S    
C21   C30   T    
O1    Zn30  S    
O6    Zn25  S    
C23   C32   T    
C87   O9    S    
O226  Zn14  S    
C222  O152  A    
C197  O227  A    
C155  C170  S    
C1    O221  A    
O189  Zn8   S    
C65   C69   S    
O189  Zn26  S    
C158  O149  S    
O156  Zn28  S    
C68   O150  A    
C92   O17   D    
O224  Zn11  S    
C3    C32   S    
H11   O14   S    
H72   O136  S    
H55   O102  S    
C121  O74   D    
C39   C124  S    
C5    C26   S    
C236  O166  A    
C6    C29   S    
C100  O34   D    
C43   H78   S    
H52   O95   S    
O202  Zn32  S    
C234  O164  A    
C53   C90   S    
C145  O123  D    
C1    C80   S    
H29   O49   S    
O178  Zn25  S    
C78   C112  S    
C2    C70   S    
C106  O47   S    
O68   Zn12  S    
C73   C189  T    
H50   O91   S    
H17   O25   S    
C81   C196  T    
C145  C180  S    
C140  C168  S    
C150  C176  S    
C203  C204  T    
O232  Zn20  S    
C134  C173  S    
C138  C170  S    
C169  C170  S    
C66   C102  S    
H27   O44   S    
C30   C239  S    
C150  O132  D    
C34   H80   S    
C49   H23   S    
C186  O226  A    
C48   C163  S    
C173  C174  S    
C84   C200  T    
O199  Zn3   S    
C129  C179  S    
C35   C75   S    
C62   C63   S    
C102  O37   D    
C20   C29   T    
H64   O120  S    
O166  Zn25  S    
C17   C26   T    
H40   O71   S    
O167  Zn29  S    
C213  C237  S    
C2    O231  A    
C61   C159  S    
H15   O20   S    
C234  O217  A    
O191  Zn23  S    
C110  O54   D    
O194  Zn12  S    
C126  O83   D    
O205  Zn12  S    
C123  O78   D    
C156  C169  S    
H44   O80   S    
O207  Zn27  S    
C12   O195  A    
C137  O106  S    
O146  Zn32  S    
C72   C188  T    
H74   O140  S    
C48   C51   S    
O187  Zn31  S    
C67   C121  S    
C204  C228  S    
C133  C174  S    
C131  O94   D    
C233  O216  A    
H79   O149  S    
C90   C201  S    
O231  Zn19  S    
C79   C202  S    
C15   C23   S    
C210  C221  S    
C66   C120  S    
C148  O129  S    
C165  C170  S    
H42   O75   S    
O170  Zn10  S    
C136  O103  D    
O169  Zn9   S    
O176  Zn17  S    
C221  O204  A    
C103  O39   D    
C124  C180  S    
C22   C31   T    
H51   O93   S    
C224  O207  A    
C215  C235  S    
C216  C217  T    
C54   C89   S    
C64   C162  S    
C46   O135  A    
C47   H45   S    
C140  O111  D    
C214  C215  T    
O189  Zn2   S    
C55   C113  S    
C211  C222  S    
C12   C21   S    
C156  O145  D    
O196  Zn8   S    
C225  O208  A    
C62   C116  S    
H75   O142  S    
O198  Zn6   S    
C229  O160  A    
C103  O40   S    
C100  O36   S    
C177  C180  S    
C149  C177  S    
O211  Zn21  S    
O3    Zn21  S    
C157  C177  S    
C106  O45   D    
C166  C169  S    
O154  Zn13  S    
C232  O162  A    
O206  Zn23  S    
C67   C166  S    
C40   C41   S    
C24   O3    A    
C53   C88   S    
O221  Zn9   S    
C127  C181  S    
C35   O124  A    
C126  C182  S    
C104  O42   S    
C83   C199  T    
O79   Zn7   S    
C46   C74   S    
C112  O223  A    
O178  Zn7   S    
C117  O65   D    
C39   H4    S    
C141  O115  D    
C69   C104  S    
O1    Zn1   S    
C16   O201  A    
C224  O154  A    
C116  O64   S    
C52   C87   S    
O229  Zn17  S    
C18   C27   T    
O5    Zn24  S    
C130  O92   D    
C4    O177  A    
O173  Zn14  S    
C128  O87   D    
C114  O60   S    
H43   O77   S    
C93   O19   D    
C108  O50   D    
C237  O220  A    
C41   H2    S    
C141  C184  S    
C119  O70   D    
C85   C219  S    
C135  C179  S    
C175  O225  A    
C226  O157  A    
C239  O170  A    
C134  O102  S    
C216  C232  S    
C71   C230  S    
C197  O46   A    
C138  O107  D    
O211  Zn6   S    
C115  O61   D    
O161  Zn19  S    
C130  O93   S    
C186  O35   A    
C133  O98   D    
C137  C171  S    
C59   C146  S    
H38   O66   S    
C56   C92   S    
C231  O214  A    
C210  C211  T    
C236  O219  A    
H25   O40   S    
C36   H81   S    
C68   O7    A    
C227  O158  A    
C101  C182  S    
