data_mof_unit_16732.cif
_audit_creation_date              2013-03-05T15:56:13-0500
_audit_creation_method            fapswitch 2.2
_symmetry_space_group_name_H-M    P1
_symmetry_Int_Tables_number       1
_space_group_crystal_system       triclinic
_cell_length_a                    12.332334
_cell_length_b                    13.303533
_cell_length_c                    19.267661
_cell_angle_alpha                 77.062919
_cell_angle_beta                  101.568773
_cell_angle_gamma                 116.530504
_cell_volume                      2738.07029106

loop_
_atom_site_label
_atom_site_type_symbol
_atom_site_description
_atom_site_fract_x
_atom_site_fract_y
_atom_site_fract_z
_atom_type_partial_charge
O1    O     O_R   0.972510 0.318130 0.520450 -0.563431
O2    O     O_R   0.806530 0.359650 0.492990 -0.629583
C1    C     C_R   0.854889 0.287430 0.502435 0.867652
O3    O     O_R   0.083010 0.479220 0.613590 -0.599903
O4    O     O_R   0.917030 0.520740 0.586130 -0.555413
C2    C     C_R   0.003517 0.505645 0.632399 0.826735
Cu1   Cu    Cu3+1 0.098280 0.475420 0.516260 1.031097
Cu2   Cu    Cu3+1 0.901720 0.524580 0.483740 0.999364
O5    O     O_R   0.193470 0.640350 0.507010 -0.586119
O6    O     O_R   0.027490 0.681870 0.479550 -0.583853
O7    O     O_R   0.082970 0.479260 0.413870 -0.546479
O8    O     O_R   0.916990 0.520780 0.386410 -0.560539
C3    C     C_R   0.145032 0.713114 0.489848 0.855444
C4    C     C_R   0.001201 0.501956 0.367629 0.946631
C5    C     C_R   0.123420 0.530117 0.752395 -0.267611
H1    H     H_    0.198014 0.532807 0.729870 0.211826
C6    C     C_R   0.140200 0.540737 0.824904 0.357704
C7    C     C_R   0.046276 0.544671 0.854029 -0.119848
C8    C     C_R   0.941327 0.543695 0.809435 -0.209337
H2    H     H_    0.870741 0.550133 0.831426 0.211116
C9    C     C_R   0.925352 0.534591 0.736736 0.369980
C10   C     C_R   0.015473 0.522473 0.707940 -0.202377
N1    N     N_R   0.019981 0.617821 0.952574 -0.178954
N2    N     N_R   0.021003 0.616089 0.022013 -0.153356
C11   C     C_R   0.054279 0.542244 0.072091 0.499711
N3    N     N_R   0.085654 0.469597 0.050253 -0.176872
N4    N     N_R   0.085357 0.471795 0.980816 -0.156946
C12   C     C_R   0.052811 0.546164 0.930797 0.482932
C13   C     C_R   0.990042 0.427588 0.188127 -0.211434
H3    H     H_    0.956479 0.352683 0.162635 0.215520
C14   C     C_R   0.968186 0.415115 0.258660 0.309858
C15   C     C_R   0.008951 0.512925 0.291159 -0.281230
C16   C     C_R   0.070160 0.622103 0.252375 0.225908
C17   C     C_R   0.088816 0.633474 0.180606 0.288147
C18   C     C_R   0.047581 0.535203 0.148504 -0.160183
C19   C     C_R   0.263316 0.031246 0.444188 -0.061332
H4    H     H_    0.085072 0.894707 0.448360 0.169766
H5    H     H_    0.434434 0.235504 0.405486 0.163856
H6    H     H_    0.227481 0.094281 0.422140 0.177010
C20   C     C_R   0.227063 0.834336 0.481148 -0.063677
C21   C     C_R   0.819589 0.083229 0.517764 0.265878
C22   C     C_R   0.743865 0.970670 0.546098 -0.049306
C23   C     C_R   0.618013 0.940117 0.546493 0.268859
C24   C     C_R   0.564941 0.014790 0.506018 -0.022264
C25   C     C_R   0.643857 0.129070 0.482489 0.037392
C26   C     C_R   0.436281 0.980632 0.487885 0.129513
C27   C     C_R   0.389579 0.062814 0.457045 0.167603
C28   C     C_R   0.468866 0.173595 0.433939 -0.206024
C29   C     C_R   0.592844 0.203502 0.441571 -0.078433
C30   C     C_R   0.352899 0.866407 0.492905 -0.132026
C31   C     C_R   0.182238 0.917633 0.458478 -0.085845
C32   C     C_R   0.771869 0.165543 0.498857 -0.169346
H7    H     H_    0.384631 0.801077 0.501218 0.202249
H8    H     H_    0.646635 0.284807 0.412374 0.201330
C33   C     C_R   0.327632 0.299953 0.593616 0.269096
N5    N     N_R   0.246290 0.438200 0.540910 -0.225338
C34   C     C_R   0.760500 0.644796 0.403164 0.013629
C35   C     C_R   0.658946 0.666667 0.374651 -0.284417
C36   C     C_R   0.548738 0.604481 0.404688 0.325045
C37   C     C_R   0.543824 0.524418 0.468416 -0.084968
C38   C     C_R   0.648990 0.500759 0.492266 0.197935
C39   C     C_R   0.439803 0.464554 0.508643 -0.067630
C40   C     C_R   0.434334 0.367917 0.560386 -0.115302
C41   C     C_R   0.537909 0.344046 0.580474 0.304604
C42   C     C_R   0.643052 0.413191 0.548787 -0.158339
C43   C     C_R   0.342617 0.497980 0.501424 0.141849
C44   C     C_R   0.240732 0.342773 0.589569 0.255125
N6    N     N_R   0.754310 0.561190 0.459520 -0.203659
H9    H     H_    0.344542 0.574435 0.467059 0.176878
H10   H     H_    0.843326 0.691168 0.377683 0.200690
H11   H     H_    0.664462 0.728380 0.326541 0.219406
H12   H     H_    0.720091 0.395895 0.571290 0.218003
N7    N     N_R   0.941038 0.113181 0.502468 0.130570
O9    O     O_R   0.020737 0.091053 0.550724 -0.383892
O10   O     O_R   0.973593 0.166820 0.439551 -0.277232
N8    N     N_R   0.548487 0.840039 0.593163 0.105329
O11   O     O_R   0.494610 0.848989 0.641533 -0.272446
O12   O     O_R   0.528294 0.739336 0.582897 -0.388215
C45   C     C_3   0.796919 0.883760 0.574748 -0.254990
C46   C     C_3   0.809545 0.836373 0.513140 -0.684011
H13   H     H_    0.717548 0.788554 0.486171 0.248633
H14   H     H_    0.864751 0.905307 0.473294 0.264882
H15   H     H_    0.855062 0.778422 0.533611 0.272832
H16   H     H_    0.885578 0.920474 0.607777 0.247483
H17   H     H_    0.741209 0.812198 0.612776 0.268959
C47   C     C_3   0.152985 0.288745 0.646373 -0.343041
C48   C     C_3   0.216887 0.331759 0.717462 -0.689301
H18   H     H_    0.275481 0.424288 0.707972 0.261768
H19   H     H_    0.148083 0.314384 0.753134 0.248624
H20   H     H_    0.276371 0.289198 0.745544 0.302516
H21   H     H_    0.070314 0.302467 0.632127 0.239760
H22   H     H_    0.116285 0.194923 0.655074 0.252673
N9    N     N_R   0.544597 0.258124 0.639250 0.172502
O13   O     O_R   0.585074 0.186903 0.631029 -0.327512
O14   O     O_R   0.536078 0.266515 0.703731 -0.228978
N10   N     N_R   0.300083 0.182658 0.623164 0.162235
O15   O     O_R   0.295622 0.114587 0.582604 -0.309003
O16   O     O_R   0.287846 0.144947 0.690819 -0.283161
N11   N     N_R   0.254513 0.552011 0.866903 0.152692
O17   O     O_R   0.303863 0.621389 0.913901 -0.263737
O18   O     O_R   0.317397 0.504587 0.851787 -0.303832
N12   N     N_R   0.441560 0.613012 0.363763 0.103869
O19   O     O_R   0.347887 0.521629 0.346564 -0.338994
O20   O     O_R   0.445615 0.711887 0.332575 -0.294943
N13   N     N_R   0.819775 0.542739 0.693487 0.124974
O21   O     O_R   0.834325 0.630145 0.643676 -0.364656
O22   O     O_R   0.714088 0.486211 0.717583 -0.298252
N14   N     N_R   0.902024 0.302994 0.295670 0.158049
O23   O     O_R   0.822476 0.285870 0.337269 -0.381707
O24   O     O_R   0.907163 0.215400 0.279560 -0.275757
N15   N     N_R   0.118944 0.721098 0.286923 0.138489
O25   O     O_R   0.234221 0.789802 0.288052 -0.249542
O26   O     O_R   0.047204 0.745976 0.314080 -0.374549
N16   N     N_R   0.150719 0.744440 0.141030 0.171524
O27   O     O_R   0.240456 0.765255 0.106176 -0.255321
O28   O     O_R   0.119445 0.825812 0.140992 -0.239257

loop_
_geom_bond_atom_site_label_1
_geom_bond_atom_site_label_2
_geom_bond_distance
_ccdc_geom_bond_type
C48   H18   1.108347 S    
N9    O13   1.301323 A    
C21   C22   1.414780 A    
N15   O25   1.301006 A    
N16   O27   1.301303 A    
Cu1   Cu2   2.705527 S    
Cu1   O7    1.935031 S    
N13   O22   1.300228 A    
N3    N4    1.330956 A    
C13   H3    1.083843 S    
C8    C9    1.399836 A    
N8    O12   1.302611 A    
C41   N9    1.436330 S    
C7    C8    1.399112 A    
C47   H21   1.086129 S    
C46   H15   1.107557 S    
C45   H16   1.105460 S    
H4    C31   1.083209 S    
O7    C4    1.301165 A    
N5    C43   1.367512 A    
C35   H11   1.082857 S    
C43   H9    1.075497 S    
C5    H1    1.076859 S    
C2    C10   1.490181 S    
N14   O23   1.300250 A    
C19   C27   1.403577 A    
C37   C39   1.445808 A    
C17   C18   1.411501 A    
C14   N14   1.438408 S    
O5    C3    1.302792 A    
C3    C20   1.463478 S    
C5    C10   1.406025 A    
C27   C28   1.385544 A    
C33   C40   1.405290 A    
N1    N2    1.330559 A    
C16   N15   1.436516 S    
C34   H10   1.080529 S    
C21   C32   1.410430 A    
H5    C28   1.084472 S    
C36   C37   1.425637 A    
N9    O14   1.300768 A    
C9    C10   1.420034 A    
N7    O10   1.300731 A    
Cu1   N5    2.038852 S    
O3    Cu1   1.935834 S    
C24   C26   1.432043 A    
C16   C17   1.410977 A    
N7    O9    1.298685 A    
C30   H7    1.072621 S    
C39   C43   1.426585 A    
C7    C12   1.469224 S    
N2    C11   1.356994 A    
C46   H14   1.109305 S    
C47   C48   1.529634 S    
C46   H13   1.108461 S    
C25   C32   1.418337 A    
C11   N3    1.357294 A    
C45   C46   1.525661 S    
N10   O16   1.300823 A    
C37   C38   1.432890 A    
O1    C1    1.312872 A    
C23   C24   1.432709 A    
C42   H12   1.062535 S    
C39   C40   1.423686 A    
C33   C44   1.403954 A    
C14   C15   1.411442 A    
C25   C29   1.416286 A    
Cu2   O8    1.935833 S    
N10   O15   1.299605 A    
C6    C7    1.409724 A    
N15   O26   1.300330 A    
N1    C12   1.356750 A    
N8    O11   1.301126 A    
N12   O20   1.301234 A    
C6    N11   1.439665 S    
C19   C31   1.390697 A    
C11   C18   1.470852 S    
O3    C2    1.312787 A    
C28   C29   1.382093 A    
N11   O18   1.301630 A    
O8    C4    1.302244 A    
Cu2   N6    2.026996 S    
C48   H19   1.110568 S    
C22   C23   1.419127 A    
C34   N6    1.355967 A    
N5    C44   1.382193 A    
C45   H17   1.104754 S    
C24   C25   1.417964 A    
C23   N8    1.438658 S    
Cu1   O5    1.957529 S    
C13   C18   1.398694 A    
C26   C27   1.419334 A    
C44   C47   1.521001 S    
O1    Cu1   1.966216 S    
C36   N12   1.434442 S    
C19   H6    1.084097 S    
O2    Cu2   1.957529 S    
C4    C15   1.465966 S    
C33   N10   1.442461 S    
O6    C3    1.302567 A    
O4    Cu2   1.935033 S    
N16   O28   1.301223 A    
C1    C32   1.490290 S    
C5    C6    1.400333 A    
C17   N16   1.437439 S    
C20   C31   1.399301 A    
N13   O21   1.299391 A    
C26   C30   1.397876 A    
N11   O17   1.301400 A    
C15   C16   1.413733 A    
C8    H2    1.084158 S    
O2    C1    1.304589 A    
C35   C36   1.401144 A    
C13   C14   1.397535 A    
C47   H22   1.105857 S    
C41   C42   1.378673 A    
C38   N6    1.378446 A    
C34   C35   1.390304 A    
O4    C2    1.304803 A    
C20   C30   1.397273 A    
N14   O24   1.301583 A    
N12   O19   1.301734 A    
C21   N7    1.442301 S    
C40   C41   1.411119 A    
C38   C42   1.391465 A    
C22   C45   1.521441 S    
Cu2   O6    1.966217 S    
C48   H20   1.107334 S    
N4    C12   1.357002 A    
C9    N13   1.432434 S    
C29   H8    1.078281 S    
