data_mof_unit_53053.cif
_audit_creation_date              2012-12-11T16:08:33-0500
_audit_creation_method            fapswitch 2.2
_symmetry_space_group_name_H-M    P1
_symmetry_Int_Tables_number       1
_space_group_crystal_system       triclinic
_cell_length_a                    7.231619
_cell_length_b                    21.412556
_cell_length_c                    23.448598
_cell_angle_alpha                 90.000151
_cell_angle_beta                  90.00016
_cell_angle_gamma                 89.999447
_cell_volume                      3630.95553134

loop_
_atom_site_label
_atom_site_type_symbol
_atom_type_description
_atom_site_fract_x
_atom_site_fract_y
_atom_site_fract_z
_atom_type_partial_charge
O1    O     O_R   0.365470 0.806380 0.442440 -0.533535
O2    O     O_R   0.134530 0.193620 0.942440 -0.533554
O3    O     O_R   0.865470 0.693620 0.557560 -0.533550
O4    O     O_R   0.634530 0.306380 0.057560 -0.533545
O5    O     O_R   0.035730 0.813790 0.557160 -0.532203
O6    O     O_R   0.464270 0.186210 0.057160 -0.532188
O7    O     O_R   0.535730 0.686210 0.442840 -0.532198
O8    O     O_R   0.964270 0.313790 0.942840 -0.532202
C1    C     C_R   0.204260 0.828711 0.575875 0.707897
C2    C     C_R   0.295740 0.171289 0.075875 0.707867
C3    C     C_R   0.704261 0.671289 0.424126 0.707907
C4    C     C_R   0.795739 0.328711 0.924125 0.707895
O9    O     O_R   0.035760 0.813790 0.442850 -0.534280
O10   O     O_R   0.464240 0.186210 0.942850 -0.534292
O11   O     O_R   0.535760 0.686210 0.557150 -0.534285
O12   O     O_R   0.964240 0.313790 0.057150 -0.534279
O13   O     O_R   0.865450 0.693620 0.442430 -0.532358
O14   O     O_R   0.634550 0.306380 0.942430 -0.532367
O15   O     O_R   0.365450 0.806380 0.557570 -0.532364
O16   O     O_R   0.134550 0.193620 0.057570 -0.532330
C5    C     C_R   0.204296 0.828722 0.424144 0.714919
C6    C     C_R   0.295703 0.171278 0.924144 0.714890
C7    C     C_R   0.704298 0.671278 0.575856 0.714915
C8    C     C_R   0.795703 0.328722 0.075856 0.714967
O17   O     O_3   0.198970 0.710570 0.500000 -0.373824
O18   O     O_3   0.301030 0.289430 0.000000 -0.373826
O19   O     O_3   0.698970 0.789430 0.500000 -0.373818
O20   O     O_3   0.801030 0.210570 0.000000 -0.373820
V1    V     V_3+5 0.924120 0.757310 0.500000 1.444030
V2    V     V_3+5 0.575880 0.242690 0.000000 1.444041
V3    V     V_3+5 0.424120 0.742690 0.500000 1.444032
V4    V     V_3+5 0.075880 0.257310 0.000000 1.444058
C9    C     C_3   0.869891 0.564913 0.753942 -0.476592
C10   C     C_3   0.629850 0.435137 0.253892 -0.476623
C11   C     C_3   0.371215 0.935349 0.246311 -0.476665
C12   C     C_3   0.130163 0.064925 0.746048 -0.476595
C13   C     C_3   0.546303 0.528076 0.734112 -0.322294
C14   C     C_3   0.953650 0.471838 0.234181 -0.322199
C15   C     C_3   0.046551 0.971492 0.265541 -0.321780
C16   C     C_3   0.453708 0.028058 0.765901 -0.322313
C17   C     C_3   0.561221 0.479906 0.783629 -0.382261
C18   C     C_3   0.938731 0.520011 0.283696 -0.382048
C19   C     C_3   0.061469 0.019679 0.216038 -0.381185
C20   C     C_3   0.438784 0.979894 0.716379 -0.382275
H1    H     H_    0.823599 0.540414 0.842902 0.151338
H2    H     H_    0.675923 0.459604 0.342871 0.151311
H3    H     H_    0.326000 0.959677 0.157259 0.151236
H4    H     H_    0.176446 0.040413 0.657089 0.151320
H5    H     H_    0.817710 0.610423 0.770309 0.168361
H6    H     H_    0.681794 0.389602 0.270271 0.168338
H7    H     H_    0.320251 0.889709 0.229887 0.168286
H8    H     H_    0.182405 0.110426 0.729680 0.168356
H9    H     H_    0.447862 0.510422 0.701402 0.186808
H10   H     H_    0.052281 0.489452 0.201507 0.186768
H11   H     H_    0.947138 0.988936 0.298067 0.186599
H12   H     H_    0.552105 0.010389 0.798618 0.186814
H13   H     H_    0.488249 0.572604 0.750813 0.151621
H14   H     H_    0.011470 0.427284 0.250899 0.151638
H15   H     H_    0.989689 0.926832 0.248749 0.151779
H16   H     H_    0.511821 0.072580 0.749209 0.151609
H17   H     H_    0.509468 0.501536 0.823731 0.159545
H18   H     H_    0.990267 0.498357 0.323813 0.159546
H19   H     H_    0.010807 0.997934 0.175856 0.159568
H20   H     H_    0.490557 0.001527 0.676281 0.159537
H21   H     H_    0.469928 0.439287 0.774531 0.207381
H22   H     H_    0.030200 0.560594 0.274631 0.207414
H23   H     H_    0.969297 0.060116 0.224973 0.207571
H24   H     H_    0.530059 0.939269 0.725475 0.207372
C21   C     C_1   0.786425 0.374374 0.878387 -0.158062
C22   C     C_1   0.713574 0.625626 0.378387 -0.158061
C23   C     C_1   0.286429 0.125626 0.121614 -0.158012
C24   C     C_1   0.213572 0.874374 0.621613 -0.158084
C25   C     C_3   0.738475 0.540302 0.706638 0.151006
C26   C     C_3   0.761532 0.459699 0.206638 0.150970
C27   C     C_3   0.238438 0.959703 0.293365 0.150721
C28   C     C_3   0.261524 0.040302 0.793361 0.151053
C29   C     C_3   0.882586 0.517357 0.804428 0.145818
C30   C     C_3   0.617156 0.482691 0.304381 0.145803
C31   C     C_3   0.383892 0.982889 0.195812 0.145772
C32   C     C_3   0.117447 0.017365 0.695565 0.145800
C33   C     C_3   0.764449 0.457857 0.791735 0.123321
C34   C     C_3   0.735555 0.542144 0.291735 0.123240
C35   C     C_3   0.264430 0.042148 0.208269 0.122826
C36   C     C_3   0.235549 0.957857 0.708264 0.123347
C37   C     C_3   0.829831 0.428019 0.734450 0.264857
C38   C     C_3   0.670492 0.572017 0.234431 0.264803
C39   C     C_3   0.328211 0.072159 0.265650 0.264624
C40   C     C_3   0.170126 0.928025 0.765547 0.264858
C41   C     C_3   0.817541 0.476899 0.684565 0.229927
C42   C     C_3   0.682788 0.523138 0.184544 0.229870
C43   C     C_3   0.315869 0.023291 0.315544 0.229679
C44   C     C_3   0.182390 0.976908 0.815430 0.229931
C45   C     C_1   0.777083 0.412078 0.839684 0.038973
C46   C     C_1   0.722917 0.587921 0.339684 0.038990
C47   C     C_1   0.277084 0.087924 0.160318 0.039101
C48   C     C_1   0.222914 0.912079 0.660316 0.038941
C49   C     C_1   0.723956 0.587098 0.659605 -0.043248
C50   C     C_1   0.776049 0.412902 0.159604 -0.043241
C51   C     C_1   0.223936 0.912904 0.340397 -0.043216
C52   C     C_1   0.276046 0.087099 0.840395 -0.043238
C53   C     C_1   0.713832 0.625305 0.621332 -0.177215
C54   C     C_1   0.786170 0.374695 0.121332 -0.177207
C55   C     C_1   0.213823 0.874696 0.378669 -0.177205
C56   C     C_1   0.286170 0.125305 0.878668 -0.177241
H25   H     H_    0.961022 0.484851 0.668420 0.019359
H26   H     H_    0.539339 0.515250 0.168346 0.019439
H27   H     H_    0.459178 0.015662 0.331963 0.019764
H28   H     H_    0.038893 0.984873 0.831558 0.019315
H29   H     H_    0.976642 0.413014 0.739358 0.025213
H30   H     H_    0.523718 0.587081 0.239288 0.025286
H31   H     H_    0.474839 0.087460 0.260995 0.025587
H32   H     H_    0.023317 0.913023 0.760631 0.025220
H33   H     H_    0.009026 0.574211 0.735511 0.161879
H34   H     H_    0.490746 0.425904 0.235412 0.161870
H35   H     H_    0.510194 0.926383 0.264991 0.161876
H36   H     H_    0.991025 0.074244 0.764468 0.161884
O21   O     O_3   0.067290 0.502354 0.817771 -0.639301
H37   H     H_    0.131697 0.490541 0.782054 0.282979
O22   O     O_3   0.432461 0.497769 0.317664 -0.639325
H38   H     H_    0.368226 0.509618 0.281928 0.282978
O23   O     O_3   0.568540 0.998269 0.182762 -0.639385
H39   H     H_    0.632083 0.010262 0.218575 0.282982
O24   O     O_3   0.932735 0.002372 0.682223 -0.639308
H40   H     H_    0.868318 0.990570 0.717941 0.282975
O25   O     O_3   0.722513 0.374731 0.722477 -0.615065
H41   H     H_    0.793537 0.349266 0.694673 0.312289
O26   O     O_3   0.778047 0.625262 0.222502 -0.615091
H42   H     H_    0.707228 0.650757 0.194670 0.312267
O27   O     O_3   0.219720 0.125236 0.277400 -0.615129
H43   H     H_    0.289742 0.150858 0.305326 0.312271
O28   O     O_3   0.277429 0.874735 0.777529 -0.615069
H44   H     H_    0.206388 0.849275 0.805333 0.312291
O29   O     O_3   0.707136 0.453528 0.639907 -0.617306
H45   H     H_    0.750433 0.473529 0.604121 0.289808
O30   O     O_3   0.793450 0.546468 0.139929 -0.617324
H46   H     H_    0.750216 0.526491 0.104125 0.289815
O31   O     O_3   0.204140 0.046457 0.359977 -0.617374
H47   H     H_    0.247090 0.026572 0.395857 0.289810
O32   O     O_3   0.292725 0.953532 0.860101 -0.617331
H48   H     H_    0.249377 0.973530 0.895883 0.289769

loop_
_geom_bond_atom_site_label_1
_geom_bond_atom_site_label_2
_ccdc_geom_bond_type
O17   V3    S    
C51   C55   T    
C4    C21   S    
O1    C5    A    
C34   C46   S    
C39   C43   S    
O19   V1    S    
C19   C35   S    
O3    C7    A    
C18   C34   S    
C1    C24   S    
C17   H17   S    
C32   C36   S    
O15   V3    S    
C3    C22   S    
C19   H19   S    
O24   H40   S    
C26   C50   S    
C20   H20   S    
C25   C49   S    
C31   O23   S    
C11   C27   S    
C16   H16   S    
O9    V1    S    
C38   H30   S    
C14   C18   S    
C37   H29   S    
C14   C26   S    
O4    C8    A    
C24   C48   T    
C39   H31   S    
C9    H5    S    
O1    V3    S    
C6    C56   S    
O2    V4    S    
C36   C48   S    
O3    V1    S    
C12   C28   S    
C43   O31   S    
C37   O25   S    
C44   H28   S    
C52   C56   T    
C15   H11   S    
C40   C44   S    
C2    O16   A    
C16   H12   S    
O2    C6    A    
C11   H35   S    
O14   V2    S    
H3    C31   S    
C18   H18   S    
C12   H8    S    
C27   C43   S    
C13   H9    S    
C2    C23   S    
O11   C7    A    
O25   H41   S    
C17   C33   S    
O12   C8    A    
C14   H14   S    
C12   C32   S    
O10   V2    S    
C1    O15   A    
C33   C37   S    
O5    V1    S    
O32   H48   S    
C10   H6    S    
C41   O29   S    
O8    V4    S    
C43   H27   S    
C28   C52   S    
O30   H46   S    
O7    V3    S    
C42   H26   S    
C38   C42   S    
H2    C30   S    
C37   C41   S    
O18   V4    S    
C17   H21   S    
C50   C54   T    
O4    V2    S    
C16   C28   S    
C40   H32   S    
O7    C3    A    
O5    C1    A    
C33   C45   S    
C30   C34   S    
C14   H10   S    
C29   C33   S    
O8    C4    A    
C15   H15   S    
C27   C51   S    
O9    C5    A    
C35   C47   S    
O10   C6    A    
O23   H39   S    
C10   C26   S    
C9    C25   S    
O6    V2    S    
C28   C44   S    
C15   C27   S    
C11   H7    S    
O29   H45   S    
C20   H24   S    
C10   H34   S    
C41   H25   S    
O26   H42   S    
C12   H36   S    
O27   H43   S    
O16   V4    S    
C21   C45   T    
C13   C25   S    
C3    O13   A    
C22   C46   T    
C38   O26   S    
C9    H33   S    
C36   C40   S    
C20   C36   S    
C35   C39   S    
O6    C2    A    
C15   C19   S    
O22   H38   S    
O11   V3    S    
O12   V4    S    
O31   H47   S    
C29   O21   S    
C9    C29   S    
H4    C32   S    
O20   V2    S    
C30   O22   S    
C25   C41   S    
C34   C38   S    
O13   V1    S    
C10   C30   S    
C31   C35   S    
C42   O30   S    
C39   O27   S    
C7    C53   S    
C26   C42   S    
C11   C31   S    
C8    C54   S    
C13   C17   S    
C49   C53   T    
C5    C55   S    
C16   C20   S    
C23   C47   T    
C19   H23   S    
C4    O14   A    
C18   H22   S    
H1    C29   S    
C40   O28   S    
O21   H37   S    
C44   O32   S    
C13   H13   S    
O28   H44   S    
C32   O24   S    
