data_mof_unit_20356.cif
_audit_creation_date              2013-03-05T15:50:09-0500
_audit_creation_method            fapswitch 2.2
_symmetry_space_group_name_H-M    P1
_symmetry_Int_Tables_number       1
_space_group_crystal_system       triclinic
_cell_length_a                    18.36818
_cell_length_b                    25.861523
_cell_length_c                    18.225759
_cell_angle_alpha                 89.953211
_cell_angle_beta                  89.972937
_cell_angle_gamma                 90.010192
_cell_volume                      8657.76207826

loop_
_atom_site_label
_atom_site_type_symbol
_atom_site_description
_atom_site_fract_x
_atom_site_fract_y
_atom_site_fract_z
_atom_type_partial_charge
Zn1   Zn    Zn3+2 0.249990 0.293780 0.913250 0.951009
Zn2   Zn    Zn3+2 0.249990 0.706220 0.086750 0.956179
Zn3   Zn    Zn3+2 0.249990 0.706220 0.913250 0.951912
Zn4   Zn    Zn3+2 0.249990 0.293780 0.086750 0.957101
Zn5   Zn    Zn3+2 0.749990 0.793780 0.413250 0.953683
Zn6   Zn    Zn3+2 0.749990 0.206220 0.586750 0.954159
Zn7   Zn    Zn3+2 0.749990 0.206220 0.413250 0.957894
Zn8   Zn    Zn3+2 0.749990 0.793780 0.586750 0.948455
Zn9   Zn    Zn3+2 0.336760 0.206240 0.000000 0.959457
Zn10  Zn    Zn3+2 0.336760 0.793760 0.000000 0.963395
Zn11  Zn    Zn3+2 0.836760 0.706240 0.500000 0.958614
Zn12  Zn    Zn3+2 0.836760 0.293760 0.500000 0.963399
Zn13  Zn    Zn3+2 0.163250 0.206230 0.000000 0.969167
Zn14  Zn    Zn3+2 0.163250 0.793770 0.000000 0.956789
Zn15  Zn    Zn3+2 0.663250 0.706230 0.500000 0.967545
Zn16  Zn    Zn3+2 0.663250 0.293770 0.500000 0.950828
O1    O     O_3   0.249990 0.250010 0.000000 -0.488729
O2    O     O_3   0.249990 0.749990 0.000000 -0.487841
O3    O     O_3   0.749990 0.750010 0.500000 -0.486708
O4    O     O_3   0.749990 0.249990 0.500000 -0.486719
O5    O     O_R   0.335430 0.280650 0.146160 -0.634476
O6    O     O_R   0.335430 0.719350 0.853840 -0.639287
O7    O     O_R   0.335430 0.719350 0.146160 -0.635828
O8    O     O_R   0.335430 0.280650 0.853840 -0.641576
O9    O     O_R   0.835430 0.780650 0.646160 -0.645081
O10   O     O_R   0.835430 0.219350 0.353840 -0.634425
O11   O     O_R   0.835430 0.219350 0.646160 -0.639975
O12   O     O_R   0.835430 0.780650 0.353840 -0.637911
O13   O     O_R   0.164550 0.280640 0.853840 -0.640320
O14   O     O_R   0.164550 0.719360 0.146160 -0.636892
O15   O     O_R   0.164550 0.719360 0.853840 -0.640175
O16   O     O_R   0.164550 0.280640 0.146160 -0.636627
O17   O     O_R   0.664550 0.780640 0.353840 -0.638974
O18   O     O_R   0.664550 0.219360 0.646160 -0.637748
O19   O     O_R   0.664550 0.219360 0.353840 -0.634818
O20   O     O_R   0.664550 0.780640 0.646160 -0.644136
O21   O     O_R   0.396160 0.219380 0.914560 -0.636559
O22   O     O_R   0.396160 0.780620 0.085440 -0.634790
O23   O     O_R   0.396160 0.780620 0.914560 -0.632864
O24   O     O_R   0.396160 0.219380 0.085440 -0.638222
O25   O     O_R   0.896160 0.719380 0.414560 -0.638374
O26   O     O_R   0.896160 0.280620 0.585440 -0.630193
O27   O     O_R   0.896160 0.280620 0.414560 -0.636265
O28   O     O_R   0.896160 0.719380 0.585440 -0.633685
O29   O     O_R   0.103840 0.219370 0.085450 -0.631648
O30   O     O_R   0.103840 0.780630 0.914550 -0.637216
O31   O     O_R   0.103840 0.780630 0.085450 -0.635318
O32   O     O_R   0.103840 0.219370 0.914550 -0.630034
O33   O     O_R   0.603840 0.719370 0.585450 -0.630451
O34   O     O_R   0.603840 0.280630 0.414550 -0.634829
O35   O     O_R   0.603840 0.280630 0.585450 -0.643327
O36   O     O_R   0.603840 0.719370 0.414550 -0.632182
O37   O     O_R   0.310730 0.133160 0.000000 -0.636223
O38   O     O_R   0.310730 0.866840 0.000000 -0.635012
O39   O     O_R   0.810730 0.633160 0.500000 -0.642793
O40   O     O_R   0.810730 0.366840 0.500000 -0.637722
O41   O     O_R   0.249970 0.366860 0.060720 -0.644028
O42   O     O_R   0.249970 0.633140 0.939280 -0.645838
O43   O     O_R   0.249970 0.633140 0.060720 -0.644026
O44   O     O_R   0.249970 0.366860 0.939280 -0.646542
O45   O     O_R   0.749970 0.866860 0.560720 -0.643136
O46   O     O_R   0.749970 0.133140 0.439280 -0.647476
O47   O     O_R   0.749970 0.133140 0.560720 -0.643009
O48   O     O_R   0.749970 0.866860 0.439280 -0.647074
O49   O     O_R   0.189290 0.133150 0.000000 -0.633828
O50   O     O_R   0.189290 0.866850 0.000000 -0.640806
O51   O     O_R   0.689290 0.633150 0.500000 -0.632381
O52   O     O_R   0.689290 0.366850 0.500000 -0.650459
C1    C     C_R   0.389656 0.250111 0.139962 0.785416
C2    C     C_R   0.388455 0.751173 0.858926 0.787778
C3    C     C_R   0.389535 0.750115 0.140139 0.786801
C4    C     C_R   0.389926 0.250217 0.860288 0.782787
C5    C     C_R   0.889362 0.749854 0.640413 0.785135
C6    C     C_R   0.889733 0.249941 0.360129 0.789147
C7    C     C_R   0.888832 0.250813 0.640783 0.789492
C8    C     C_R   0.889338 0.749813 0.359738 0.787421
C9    C     C_R   0.111025 0.249451 0.859377 0.786228
C10   C     C_R   0.110362 0.750091 0.139995 0.786133
C11   C     C_R   0.110594 0.750131 0.859878 0.779643
C12   C     C_R   0.110092 0.250242 0.139677 0.787653
C13   C     C_R   0.610550 0.749881 0.359873 0.785616
C14   C     C_R   0.610550 0.250157 0.640201 0.780059
C15   C     C_R   0.610685 0.250391 0.359708 0.787123
C16   C     C_R   0.610596 0.749784 0.640202 0.786068
C17   C     C_R   0.250111 0.109333 0.999684 0.787633
C18   C     C_R   0.249780 0.890557 0.000215 0.787102
C19   C     C_R   0.750338 0.609314 0.500025 0.785057
C20   C     C_R   0.749644 0.390597 0.499807 0.786021
C21   C     C_R   0.250021 0.391431 0.999890 0.742022
C22   C     C_R   0.250021 0.608560 0.999929 0.743921
C23   C     C_R   0.749981 0.891434 0.499885 0.743434
C24   C     C_R   0.749977 0.108563 0.499924 0.742418
C25   C     C_3   0.181487 0.470045 0.039406 -0.393347
C26   C     C_3   0.249978 0.529744 0.919778 -0.376980
C27   C     C_3   0.181488 0.529859 0.039445 -0.394802
C28   C     C_3   0.249982 0.470331 0.919749 -0.377758
C29   C     C_3   0.681333 0.970047 0.539262 -0.392848
C30   C     C_3   0.750026 0.029752 0.419749 -0.376776
C31   C     C_3   0.681331 0.029864 0.539284 -0.392684
C32   C     C_3   0.750030 0.970336 0.419721 -0.377723
H1    H     H_    0.180085 0.455757 0.097008 0.186175
H2    H     H_    0.298843 0.543947 0.889712 0.181552
H3    H     H_    0.180097 0.544053 0.097061 0.186041
H4    H     H_    0.298849 0.456186 0.889678 0.180865
H5    H     H_    0.679838 0.955761 0.596864 0.186814
H6    H     H_    0.798940 0.043955 0.389764 0.181565
H7    H     H_    0.679831 0.044063 0.596894 0.186634
H8    H     H_    0.798947 0.956187 0.389733 0.181364
H9    H     H_    0.131463 0.455640 0.011682 0.152350
H10   H     H_    0.201042 0.543929 0.889876 0.181885
H11   H     H_    0.131461 0.544301 0.011750 0.152580
H12   H     H_    0.201045 0.456170 0.889843 0.182277
H13   H     H_    0.631357 0.955634 0.511461 0.152473
H14   H     H_    0.701138 0.043941 0.389765 0.181836
H15   H     H_    0.631365 0.044299 0.511471 0.152524
H16   H     H_    0.701144 0.956176 0.389731 0.181654
H17   H     H_    0.198633 0.904968 0.871976 0.144250
H18   H     H_    0.238693 0.093932 0.861660 0.136184
H19   H     H_    0.659737 0.406576 0.608638 0.181305
H20   H     H_    0.714811 0.592321 0.635230 0.141343
H21   H     H_    0.320374 0.455752 0.096747 0.189500
H22   H     H_    0.368730 0.544326 0.011286 0.154546
H23   H     H_    0.320337 0.544070 0.096793 0.187284
H24   H     H_    0.368765 0.455649 0.011266 0.154759
H25   H     H_    0.820096 0.955779 0.596838 0.185570
H26   H     H_    0.868610 0.044351 0.511483 0.151540
H27   H     H_    0.820060 0.044082 0.596897 0.186047
H28   H     H_    0.868616 0.955683 0.511402 0.150898
C33   C     C_3   0.318802 0.470047 0.039154 -0.386265
C34   C     C_3   0.318786 0.529874 0.039185 -0.388929
C35   C     C_3   0.818627 0.970070 0.539241 -0.394431
C36   C     C_3   0.818617 0.029889 0.539283 -0.394093
C37   C     C_3   0.250080 0.449147 0.999565 0.187818
C38   C     C_3   0.250073 0.550829 0.999618 0.188467
C39   C     C_3   0.749992 0.949153 0.499540 0.191971
C40   C     C_3   0.749989 0.050837 0.499592 0.191612
H29   H     H_    0.937562 0.384366 0.917852 0.138453
H30   H     H_    0.941058 0.610575 0.089417 0.142763
H31   H     H_    0.881167 0.706303 0.974586 0.150886
H32   H     H_    0.917243 0.368588 0.067415 0.136169
H33   H     H_    0.397104 0.838777 0.454776 0.141161
H34   H     H_    0.721306 0.289077 0.876507 0.161373
H35   H     H_    0.642632 0.400827 0.202659 0.149242
H36   H     H_    0.440257 0.886919 0.583794 0.135328
C41   C     C_R   0.123739 0.186469 0.730055 -0.136759
C42   C     C_R   0.104589 0.830446 0.248414 -0.144943
C43   C     C_R   0.144394 0.778408 0.711103 -0.152650
C44   C     C_R   0.124319 0.186396 0.267366 -0.140094
C45   C     C_R   0.638053 0.706350 0.217740 -0.144664
C46   C     C_R   0.464172 0.220170 0.605007 -0.142517
C47   C     C_R   0.496929 0.174847 0.362658 -0.153692
C48   C     C_R   0.621126 0.685142 0.767687 -0.164016
C49   C     C_R   0.130181 0.156053 0.667317 -0.141565
C50   C     C_R   0.101664 0.869920 0.300363 -0.136195
C51   C     C_R   0.161250 0.792180 0.639213 -0.137765
C52   C     C_R   0.131542 0.154881 0.328982 -0.133997
C53   C     C_R   0.651521 0.684492 0.149267 -0.145456
C54   C     C_R   0.393302 0.205738 0.587210 -0.141848
C55   C     C_R   0.440198 0.139223 0.366473 -0.151435
C56   C     C_R   0.627020 0.654351 0.830042 -0.103109
C57   C     C_R   0.596935 0.683082 0.096653 -0.149012
C58   C     C_R   0.339465 0.206089 0.640667 -0.142503
C59   C     C_R   0.385340 0.139911 0.314042 -0.134451
C60   C     C_R   0.570718 0.652086 0.880642 -0.168256
C61   C     C_R   0.074512 0.154765 0.615886 -0.152031
C62   C     C_R   0.049156 0.868891 0.355239 -0.155118
C63   C     C_R   0.107195 0.792636 0.586016 -0.146173
C64   C     C_R   0.077576 0.154505 0.382481 -0.137858
C65   C     C_R   0.528898 0.704374 0.111654 -0.139776
C66   C     C_R   0.356266 0.220772 0.712189 -0.146077
C67   C     C_R   0.387399 0.175698 0.256848 -0.139155
C68   C     C_R   0.509364 0.682813 0.871097 -0.147752
C69   C     C_R   0.012666 0.185005 0.625859 -0.138680
C70   C     C_R   0.998219 0.829016 0.357475 -0.154222
C71   C     C_R   0.036104 0.779077 0.604384 -0.144403
C72   C     C_R   0.016183 0.185724 0.374741 -0.145249
C73   C     C_R   0.514222 0.727752 0.180388 0.072108
C74   C     C_R   0.427827 0.236339 0.731547 0.070431
C75   C     C_R   0.444136 0.212660 0.252218 0.072624
C76   C     C_R   0.503757 0.716748 0.810275 0.079297
C77   C     C_R   0.005793 0.217641 0.687878 0.075036
C78   C     C_R   0.998367 0.789493 0.303673 0.072965
C79   C     C_R   0.017746 0.763807 0.676868 0.072883
C80   C     C_R   0.007630 0.218106 0.312601 0.069801
C81   C     C_R   0.061624 0.217874 0.741137 0.062452
C82   C     C_R   0.052779 0.789857 0.248958 0.071294
C83   C     C_R   0.072687 0.763538 0.730974 0.070357
C84   C     C_R   0.062373 0.218402 0.258203 0.069593
C85   C     C_R   0.569344 0.728335 0.234355 0.070656
C86   C     C_R   0.482530 0.236063 0.677194 0.070223
C87   C     C_R   0.499350 0.212424 0.306094 0.073845
C88   C     C_R   0.559698 0.717145 0.757150 0.061970
C89   C     C_R   0.445689 0.749970 0.196334 -0.134644
C90   C     C_R   0.446243 0.250175 0.804323 -0.141294
C91   C     C_R   0.445473 0.250659 0.196451 -0.130250
C92   C     C_R   0.444662 0.751147 0.802857 -0.130102
C93   C     C_R   0.945203 0.250648 0.696713 -0.129676
C94   C     C_R   0.944954 0.750171 0.303087 -0.132543
C95   C     C_R   0.945450 0.750875 0.696800 -0.143560
C96   C     C_R   0.945765 0.250022 0.303855 -0.128756
C97   C     C_R   0.431483 0.772996 0.265292 0.045520
C98   C     C_R   0.519008 0.261839 0.824273 0.046963
C99   C     C_R   0.498544 0.290298 0.196224 0.045138
C100  C     C_R   0.441611 0.787079 0.744250 0.044508
C101  C     C_R   0.940792 0.285351 0.756588 0.043257
C102  C     C_R   0.943228 0.712415 0.246974 0.052254
C103  C     C_R   0.926780 0.739872 0.770776 0.045403
C104  C     C_R   0.937817 0.282412 0.241795 0.049005
C105  C     C_R   0.996099 0.284883 0.810329 0.081870
C106  C     C_R   0.998681 0.712035 0.193465 0.079034
C107  C     C_R   0.982198 0.737823 0.824077 0.075343
C108  C     C_R   0.991997 0.282099 0.186975 0.074454
C109  C     C_R   0.486260 0.772818 0.319541 0.075579
C110  C     C_R   0.573479 0.262021 0.769837 0.075682
C111  C     C_R   0.553412 0.290223 0.250301 0.079936
C112  C     C_R   0.496210 0.786010 0.689783 0.081552
C113  C     C_R   0.055010 0.250247 0.803150 -0.134001
C114  C     C_R   0.053874 0.750100 0.195794 -0.138829
C115  C     C_R   0.054547 0.749784 0.803841 -0.145262
C116  C     C_R   0.054014 0.250327 0.195846 -0.134259
C117  C     C_R   0.554534 0.750296 0.303725 -0.138875
C118  C     C_R   0.554598 0.249846 0.696510 -0.146150
C119  C     C_R   0.554445 0.250484 0.303683 -0.136293
C120  C     C_R   0.554219 0.750525 0.696120 -0.134105
C121  C     C_R   0.364122 0.797330 0.280823 -0.229934
C122  C     C_R   0.538744 0.273132 0.897827 -0.238812
C123  C     C_R   0.497253 0.330600 0.143561 -0.260945
C124  C     C_R   0.386209 0.825007 0.739711 -0.243309
C125  C     C_R   0.883159 0.321444 0.763250 -0.242696
C126  C     C_R   0.886138 0.675717 0.242100 -0.243641
C127  C     C_R   0.853868 0.730838 0.793105 -0.241830
C128  C     C_R   0.876810 0.315407 0.233495 -0.237974
C129  C     C_R   0.350914 0.820399 0.349162 0.283779
C130  C     C_R   0.611265 0.281837 0.918150 0.276081
C131  C     C_R   0.547936 0.371092 0.145069 0.302087
C132  C     C_R   0.385011 0.861494 0.682514 0.288658
C133  C     C_R   0.880959 0.356897 0.821485 0.302979
C134  C     C_R   0.883219 0.639452 0.184905 0.273389
C135  C     C_R   0.835744 0.721893 0.866820 0.274494
C136  C     C_R   0.869034 0.347591 0.171980 0.288332
C137  C     C_R   0.936525 0.356254 0.873873 -0.169101
C138  C     C_R   0.940031 0.638541 0.133442 -0.168616
C139  C     C_R   0.892064 0.715930 0.917886 -0.158525
C140  C     C_R   0.922121 0.345546 0.116700 -0.156903
C141  C     C_R   0.405522 0.819961 0.402399 -0.157462
C142  C     C_R   0.664631 0.282749 0.863323 -0.156082
C143  C     C_R   0.602263 0.370533 0.199240 -0.163960
C144  C     C_R   0.438599 0.859051 0.627991 -0.163692
C145  C     C_R   0.992478 0.320287 0.869280 -0.212114
C146  C     C_R   0.996660 0.674238 0.137503 -0.222702
C147  C     C_R   0.964035 0.723271 0.896769 -0.202862
C148  C     C_R   0.982864 0.313700 0.124284 -0.211841
C149  C     C_R   0.472148 0.796500 0.388082 -0.208204
C150  C     C_R   0.645850 0.274408 0.790238 -0.220560
C151  C     C_R   0.605643 0.330402 0.250244 -0.211465
C152  C     C_R   0.492803 0.821611 0.631010 -0.216425
H37   H     H_    0.168391 0.185884 0.768792 0.112867
H38   H     H_    0.147259 0.832471 0.207544 0.111988
H39   H     H_    0.188160 0.780129 0.750667 0.131007
H40   H     H_    0.167654 0.185309 0.227126 0.110970
H41   H     H_    0.682015 0.705769 0.257230 0.119510
H42   H     H_    0.504262 0.217797 0.561694 0.133887
H43   H     H_    0.537923 0.173183 0.405226 0.114083
H44   H     H_    0.666328 0.685041 0.729552 0.113045
H45   H     H_    0.178764 0.133693 0.658035 0.154110
H46   H     H_    0.140713 0.901246 0.298439 0.133098
H47   H     H_    0.216418 0.802847 0.624938 0.139381
H48   H     H_    0.179174 0.130603 0.335149 0.122972
H49   H     H_    0.704454 0.668473 0.137007 0.150578
H50   H     H_    0.380331 0.193699 0.531846 0.140414
H51   H     H_    0.438435 0.111299 0.410726 0.127553
H52   H     H_    0.676432 0.633301 0.840163 0.175039
H53   H     H_    0.607420 0.665399 0.044002 0.129583
H54   H     H_    0.284597 0.194392 0.626862 0.137985
H55   H     H_    0.340640 0.112937 0.318255 0.114625
H56   H     H_    0.575212 0.627129 0.928087 0.125106
H57   H     H_    0.079588 0.130598 0.567725 0.121740
H58   H     H_    0.047754 0.899189 0.396164 0.128466
H59   H     H_    0.120125 0.804000 0.530379 0.140199
H60   H     H_    0.083254 0.129856 0.430129 0.119797
H61   H     H_    0.488151 0.702163 0.068914 0.119109
H62   H     H_    0.312687 0.218861 0.751979 0.132033
H63   H     H_    0.343354 0.174776 0.217435 0.107601
H64   H     H_    0.467463 0.680555 0.912741 0.114911
H65   H     H_    0.971073 0.183116 0.583902 0.112561
H66   H     H_    0.958327 0.829944 0.401167 0.115077
H67   H     H_    0.995886 0.781614 0.561251 0.133398
H68   H     H_    0.975658 0.184137 0.417821 0.111037
H69   H     H_    0.321318 0.798946 0.240085 0.116986
H70   H     H_    0.498441 0.274559 0.940945 0.136580
H71   H     H_    0.455844 0.331685 0.101351 0.118058
H72   H     H_    0.344422 0.827402 0.781490 0.107069
H73   H     H_    0.840070 0.322997 0.722787 0.108906
H74   H     H_    0.842496 0.675438 0.282041 0.104411
H75   H     H_    0.809580 0.731443 0.754181 0.142142
H76   H     H_    0.834684 0.316727 0.275017 0.107164
H77   H     H_    0.033901 0.321603 0.911457 0.129707
H78   H     H_    0.038309 0.672241 0.095569 0.129906
H79   H     H_    0.005001 0.717877 0.938672 0.146502
H80   H     H_    0.022553 0.314159 0.080360 0.128008
H81   H     H_    0.512759 0.797981 0.431020 0.135579
H82   H     H_    0.689337 0.276899 0.750419 0.150863
H83   H     H_    0.649059 0.331734 0.290336 0.128860
H84   H     H_    0.533218 0.821946 0.587769 0.127761
C153  C     C_R   0.273474 0.053622 0.133657 -0.141317
C154  C     C_R   0.275280 0.945864 0.133389 -0.148914
C155  C     C_R   0.818760 0.553315 0.381865 -0.156239
C156  C     C_R   0.815816 0.445807 0.380836 -0.150787
C157  C     C_R   0.284511 0.026467 0.198838 -0.129933
C158  C     C_R   0.285820 0.972752 0.198673 -0.144165
C159  C     C_R   0.853657 0.526050 0.326085 -0.128120
C160  C     C_R   0.851761 0.472450 0.325304 -0.138829
C161  C     C_R   0.262941 0.972619 0.066650 0.070800
C162  C     C_R   0.262526 0.027055 0.066610 0.070718
C163  C     C_R   0.783284 0.472568 0.440374 0.070344
C164  C     C_R   0.784403 0.526982 0.440821 0.070214
C165  C     C_R   0.248454 0.946139 0.000672 -0.112220
C166  C     C_R   0.250515 0.053571 0.999865 -0.115355
C167  C     C_R   0.747942 0.446188 0.498159 -0.121923
C168  C     C_R   0.751917 0.553562 0.500348 -0.123159
C169  C     C_R   0.231135 0.972666 0.935337 0.046980
C170  C     C_R   0.236588 0.026776 0.933803 0.019606
C171  C     C_R   0.713181 0.472929 0.556018 0.041541
C172  C     C_R   0.720943 0.526767 0.560249 0.022393
C173  C     C_R   0.207878 0.946276 0.871525 -0.273637
C174  C     C_R   0.229511 0.052672 0.865785 -0.215884
C175  C     C_R   0.672046 0.447261 0.610960 -0.277781
C176  C     C_R   0.701418 0.552022 0.626324 -0.209681
C177  C     C_R   0.194263 0.972801 0.806076 0.193482
C178  C     C_R   0.212125 0.025622 0.801420 0.270880
C179  C     C_R   0.646156 0.473515 0.672382 0.191319
C180  C     C_R   0.667889 0.524816 0.683715 0.261242
H85   H     H_    0.272875 0.095420 0.136574 0.111439
H86   H     H_    0.275659 0.904052 0.136107 0.112826
H87   H     H_    0.820033 0.595006 0.378286 0.137597
H88   H     H_    0.813934 0.404163 0.376134 0.131267
H89   H     H_    0.291646 0.047080 0.249798 0.119142
H90   H     H_    0.294381 0.951808 0.249409 0.132638
H91   H     H_    0.882392 0.546507 0.283261 0.165903
H92   H     H_    0.878095 0.451365 0.281464 0.151041
N1    N     N_2   0.825597 0.395426 0.824043 -0.306714
H93   H     H_    0.793832 0.399474 0.777772 0.220784
C181  C     C_3   0.787652 0.403356 0.892887 -0.864250
H94   H     H_    0.784604 0.445380 0.904677 0.253229
H95   H     H_    0.814544 0.383774 0.939767 0.242617
H96   H     H_    0.731717 0.387723 0.888638 0.248275
N2    N     N_2   0.823883 0.603624 0.182002 -0.323090
H97   H     H_    0.780434 0.611606 0.216057 0.214469
C182  C     C_3   0.804333 0.580508 0.112377 -0.840030
H98   H     H_    0.753089 0.558112 0.118645 0.244178
H99   H     H_    0.847278 0.553153 0.094308 0.249108
H100  H     H_    0.795754 0.610935 0.070208 0.236374
N3    N     N_2   0.760677 0.718782 0.887197 -0.321366
H101  H     H_    0.725780 0.736870 0.851063 0.236752
C183  C     C_3   0.740507 0.726020 0.963322 -0.786667
H102  H     H_    0.680271 0.727181 0.968070 0.250262
H103  H     H_    0.762734 0.763121 0.984336 0.254754
H104  H     H_    0.760213 0.693149 0.997063 0.230538
N4    N     N_2   0.806479 0.380307 0.166233 -0.313454
H105  H     H_    0.775096 0.382710 0.213063 0.210287
C184  C     C_3   0.813950 0.428981 0.127525 -0.842845
H106  H     H_    0.765205 0.453358 0.137527 0.243828
H107  H     H_    0.817822 0.422153 0.067585 0.246294
H108  H     H_    0.862677 0.450356 0.147077 0.245236
N5    N     N_2   0.284097 0.846502 0.362837 -0.318935
H109  H     H_    0.254208 0.854475 0.316354 0.210095
C185  C     C_3   0.240316 0.825145 0.421535 -0.791009
H110  H     H_    0.192340 0.850336 0.430988 0.236626
H111  H     H_    0.271610 0.823257 0.473550 0.236204
H112  H     H_    0.221070 0.785804 0.406546 0.253918
N6    N     N_2   0.629636 0.285809 0.994199 -0.300067
H113  H     H_    0.586312 0.283434 0.030067 0.228683
C186  C     C_3   0.683397 0.323845 0.015354 -0.777884
H114  H     H_    0.687924 0.324973 0.076081 0.263913
H115  H     H_    0.666845 0.362666 0.995599 0.238893
H116  H     H_    0.737806 0.313389 0.993644 0.248323
N7    N     N_2   0.541130 0.412036 0.092604 -0.305493
H117  H     H_    0.516993 0.402233 0.043429 0.211808
C187  C     C_3   0.596117 0.452031 0.088087 -0.826091
H118  H     H_    0.581085 0.480172 0.044602 0.239060
H119  H     H_    0.649732 0.434969 0.074109 0.244070
H120  H     H_    0.599557 0.473409 0.140783 0.251386
N8    N     N_2   0.333072 0.902529 0.683789 -0.306766
H121  H     H_    0.298203 0.902071 0.728004 0.217618
C188  C     C_3   0.298926 0.916881 0.615087 -0.810712
H122  H     H_    0.255755 0.946017 0.625389 0.258573
H123  H     H_    0.273911 0.882562 0.588656 0.232988
H124  H     H_    0.339016 0.934906 0.577419 0.240676
N9    N     N_2   0.216164 0.051292 0.732315 -0.324077
H125  H     H_    0.189127 0.033355 0.689874 0.246272
C189  C     C_3   0.289165 0.066556 0.711273 -0.829658
H126  H     H_    0.288285 0.084648 0.656020 0.229897
H127  H     H_    0.325403 0.032153 0.709094 0.266536
H128  H     H_    0.311491 0.095254 0.750584 0.251209
N10   N     N_2   0.164117 0.945868 0.745054 -0.331134
H129  H     H_    0.174802 0.906709 0.744981 0.225080
C190  C     C_3   0.087416 0.955640 0.733435 -0.795672
H130  H     H_    0.055174 0.940269 0.780261 0.254554
H131  H     H_    0.069417 0.935988 0.682409 0.241710
H132  H     H_    0.076653 0.997695 0.727522 0.245290
N11   N     N_2   0.663732 0.547296 0.754627 -0.309079
H133  H     H_    0.620609 0.534512 0.786015 0.254287
C191  C     C_3   0.732542 0.545050 0.793605 -0.843573
H134  H     H_    0.724138 0.553312 0.852773 0.229671
H135  H     H_    0.770891 0.574040 0.770539 0.254363
H136  H     H_    0.757426 0.505980 0.789340 0.259261
N12   N     N_2   0.597011 0.448487 0.721323 -0.315767
H137  H     H_    0.557786 0.427200 0.694324 0.240547
C192  C     C_3   0.630966 0.418779 0.778952 -0.830306
H138  H     H_    0.665040 0.387497 0.755196 0.237017
H139  H     H_    0.588356 0.400890 0.814009 0.251548
H140  H     H_    0.664431 0.444354 0.814010 0.265192

loop_
_geom_bond_atom_site_label_1
_geom_bond_atom_site_label_2
_geom_bond_distance
_ccdc_geom_bond_type
C162  C166  1.413391 A    
C189  H128  1.110584 S    
C87   C119  1.412245 A    
C94   C102  1.414921 A    
C109  C149  1.415557 A    
C148  H80   1.082542 S    
C130  N6    1.430464 S    
C176  C180  1.402318 A    
C149  H81   1.082088 S    
C99   C123  1.416521 A    
C75   C91   1.413397 A    
C97   C121  1.416792 A    
O26   C7    1.276055 A    
C154  C158  1.392215 A    
C73   C89   1.414038 A    
C66   C74   1.419434 A    
C99   C111  1.409988 A    
C191  H135  1.110846 S    
C133  N1    1.424601 S    
C190  H131  1.110626 S    
C132  N8    1.427323 S    
C4    C90   1.452395 S    
O30   C11   1.277339 A    
C22   C38   1.493027 S    
C30   H14   1.113503 S    
C91   C99   1.414506 A    
C178  N9    1.425156 S    
C136  C140  1.402827 A    
C89   C97   1.415373 A    
C157  H89   1.079310 S    
Zn12  O26   1.931754 S    
C110  C118  1.416535 A    
N11   C191  1.451327 S    
C51   C63   1.388122 A    
C19   C168  1.442141 S    
H34   C142  1.080964 S    
C20   C167  1.438300 S    
C173  C177  1.398227 A    
C92   C100  1.416345 A    
C43   C51   1.392230 A    
C76   C92   1.410048 A    
C32   C39   1.554080 S    
C29   H5    1.112978 S    
C96   C104  1.414583 A    
C34   C38   1.551509 S    
C31   H7    1.112957 S    
C44   H40   1.082482 S    
O11   C7    1.278021 A    
C154  H86   1.082423 S    
C45   H41   1.082051 S    
N3    C183  1.448185 S    
C42   C82   1.416769 A    
O34   C15   1.275780 A    
C55   H51   1.082625 S    
C184  H108  1.110905 S    
C167  C171  1.413738 A    
C62   C70   1.392841 A    
C41   H37   1.082550 S    
C171  C172  1.401782 A    
C137  C145  1.388846 A    
Zn14  O30   1.932386 S    
Zn1   O44   1.948970 S    
C25   H1    1.112969 S    
Zn2   O43   1.948970 S    
C18   C165  1.437669 S    
C108  C116  1.413948 A    
C141  C149  1.390720 A    
C153  C162  1.416787 A    
Zn5   O48   1.948970 S    
H32   C140  1.081310 S    
Zn6   O47   1.948970 S    
C112  C120  1.411073 A    
Zn7   O46   1.948219 S    
C46   C86   1.419458 A    
C74   C90   1.415251 A    
C11   C115  1.450520 S    
C183  H102  1.110185 S    
C42   C50   1.393919 A    
Zn16  O4    1.954742 S    
Zn12  O4    1.954716 S    
Zn1   O13   1.937234 S    
C71   H67   1.080986 S    
C98   C110  1.408725 A    
C26   C28   1.536516 S    
C72   H68   1.082433 S    
Zn4   O16   1.936095 S    
C57   H53   1.080570 S    
C104  C128  1.416686 A    
C9    C113  1.452642 S    
C33   C37   1.551586 S    
C6    C96   1.452647 S    
C180  N11   1.419634 S    
C28   H4    1.113488 S    
N9    H125  1.030048 S    
C125  C133  1.403705 A    
N8    H121  1.029198 S    
C63   H59   1.081799 S    
C13   C117  1.451536 S    
C64   H60   1.081950 S    
C71   C79   1.419009 A    
C72   C80   1.416801 A    
C14   C118  1.452072 S    
C44   C84   1.417029 A    
C45   C85   1.417019 A    
C30   H6    1.113491 S    
Zn10  O22   1.931754 S    
C105  C113  1.410948 A    
C48   C88   1.412529 A    
N5    H109  1.030459 S    
O25   C8    1.277635 A    
Zn13  O29   1.931622 S    
C129  C141  1.395931 A    
Zn10  O2    1.954716 S    
C31   C40   1.551186 S    
O29   C12   1.276240 A    
C171  C175  1.418548 A    
Zn15  O33   1.931622 S    
C151  H83   1.082439 S    
C152  H84   1.082435 S    
C75   C87   1.411982 A    
C26   H2    1.113509 S    
C169  C170  1.403187 A    
C41   C81   1.415105 A    
N4    H105  1.031650 S    
C129  N5    1.422805 S    
C135  C139  1.400343 A    
O48   C23   1.274803 A    
C192  H138  1.110917 S    
C156  H88   1.081018 S    
C10   C114  1.452520 S    
C188  H123  1.109816 S    
C175  C179  1.393266 A    
C182  H98   1.110895 S    
C132  C144  1.399841 A    
C101  C125  1.416722 A    
C168  C172  1.412024 A    
Zn16  O35   1.931106 S    
C77   C93   1.411953 A    
C70   C78   1.417014 A    
N11   H133  1.031090 S    
C82   C114  1.413507 A    
Zn7   O10   1.936052 S    
C123  H71   1.082454 S    
O33   C16   1.277194 A    
C25   C37   1.551380 S    
C86   C118  1.415558 A    
C78   C82   1.411555 A    
O40   C20   1.279332 A    
C128  H76   1.082622 S    
C52   C64   1.390140 A    
C70   H66   1.082185 S    
C1    C91   1.453396 S    
C102  C106  1.409879 A    
C153  H85   1.082366 S    
C80   C96   1.413606 A    
Zn5   O17   1.937234 S    
H33   C141  1.082879 S    
C185  H112  1.111374 S    
H31   C139  1.081350 S    
C65   H61   1.082062 S    
C150  H82   1.080847 S    
C57   C65   1.392813 A    
C53   H49   1.080270 S    
C25   C27   1.546887 S    
C103  C107  1.408399 A    
C67   C75   1.416476 A    
C61   H57   1.081972 S    
C65   C73   1.417204 A    
C27   H3    1.112983 S    
N1    C181  1.449783 S    
C32   H8    1.113517 S    
Zn8   O3    1.945270 S    
C21   C37   1.492610 S    
C124  H72   1.082741 S    
O38   C18   1.276648 A    
C187  H120  1.110388 S    
C146  H78   1.082391 S    
H22   C34   1.113090 S    
O5    C1    1.276306 A    
C47   C55   1.392458 A    
O32   C9    1.277645 A    
C156  C163  1.419252 A    
H25   C35   1.112967 S    
C52   H48   1.082817 S    
H26   C36   1.113086 S    
C36   C40   1.551222 S    
Zn15  O51   1.949627 S    
C111  C151  1.414126 A    
Zn11  O28   1.932133 S    
C192  H140  1.106582 S    
C183  H103  1.111112 S    
C182  H100  1.110805 S    
C121  H69   1.082462 S    
C181  H95   1.109166 S    
H23   C34   1.112940 S    
C42   H38   1.082261 S    
C29   C39   1.551309 S    
C159  H91   1.080041 S    
H28   C35   1.113095 S    
O8    C4    1.278857 A    
C63   C71   1.392628 A    
C33   C34   1.547221 S    
C64   C72   1.394152 A    
C49   C61   1.387912 A    
O50   C18   1.268938 A    
O37   C17   1.272517 A    
C161  C165  1.409753 A    
C107  C115  1.413134 A    
C100  C112  1.411060 A    
Zn1   O1    1.943769 S    
C122  C130  1.401009 A    
C133  C137  1.398035 A    
Zn2   O14   1.936504 S    
C15   C119  1.452855 S    
C190  H130  1.111745 S    
C58   H54   1.082030 S    
C68   C76   1.417123 A    
C170  C174  1.414578 A    
H29   C137  1.082755 S    
C153  C157  1.394445 A    
O9    C5    1.275515 A    
N12   C192  1.442892 S    
C43   H39   1.081106 S    
O36   C13   1.276504 A    
N7    C187  1.447822 S    
C60   C68   1.389969 A    
O13   C9    1.275483 A    
Zn1   O8    1.936460 S    
C2    C92   1.452288 S    
Zn2   O7    1.937191 S    
Zn3   O6    1.936052 S    
O18   C14   1.276800 A    
O31   C10   1.274862 A    
C106  C146  1.413790 A    
C156  C160  1.390364 A    
C25   H9    1.113114 S    
C110  C150  1.417212 A    
C93   C101  1.415763 A    
C32   H16   1.113473 S    
C181  H94   1.109446 S    
N3    H101  1.031211 S    
C187  H118  1.110572 S    
C98   C122  1.419476 A    
C59   H55   1.079953 S    
Zn15  O3    1.954414 S    
C184  H107  1.109027 S    
Zn11  O3    1.955045 S    
O41   C21   1.277417 A    
C56   C60   1.386518 A    
C66   H62   1.080974 S    
Zn16  O34   1.932386 S    
C186  H115  1.108873 S    
C31   H15   1.113073 S    
C74   C86   1.410700 A    
C3    C89   1.453906 S    
Zn2   O2    1.943767 S    
N6    H113  1.031405 S    
C90   C98   1.417777 A    
C189  H127  1.111951 S    
Zn8   O20   1.936095 S    
O10   C6    1.278242 A    
C109  C117  1.412531 A    
C191  H134  1.110233 S    
C174  C178  1.403252 A    
C108  C148  1.414314 A    
C59   C67   1.393906 A    
C47   H43   1.082256 S    
C48   H44   1.082551 S    
C7    C93   1.453349 S    
C69   C77   1.416835 A    
C163  C164  1.407413 A    
C112  C152  1.413352 A    
Zn8   O9    1.936979 S    
C24   C40   1.492905 S    
C84   C116  1.412646 A    
C56   H52   1.074373 S    
C166  C170  1.413126 A    
C138  C146  1.392673 A    
O7    C3    1.277568 A    
C191  H136  1.111842 S    
C88   C120  1.411091 A    
C95   C103  1.419618 A    
C16   C120  1.452720 S    
C190  H132  1.110612 S    
N2    H97   1.031801 S    
O19   C15   1.278569 A    
C83   C115  1.414219 A    
C142  C150  1.393104 A    
C43   C83   1.418795 A    
N1    H93   1.030979 S    
C26   H10   1.113467 S    
C27   C38   1.551219 S    
C147  H79   1.081358 S    
Zn6   O18   1.936504 S    
Zn10  O23   1.931372 S    
C49   H45   1.076813 S    
C179  C180  1.400899 A    
C79   C83   1.411324 A    
C58   C66   1.392776 A    
C172  C176  1.416485 A    
O14   C10   1.278747 A    
C185  H111  1.109930 S    
Zn15  O36   1.932007 S    
O15   C11   1.275916 A    
C134  N2    1.431423 S    
C136  N4    1.430878 S    
C97   C109  1.410985 A    
C28   C37   1.554027 S    
C46   H42   1.081079 S    
Zn4   O1    1.945270 S    
C30   C32   1.536594 S    
C186  H116  1.108321 S    
Zn9   O37   1.949420 S    
C35   C36   1.547035 S    
O12   C8    1.276037 A    
C53   C57   1.388216 A    
Zn11  O39   1.949420 S    
C188  H122  1.110019 S    
C46   C54   1.392656 A    
C154  C161  1.417276 A    
C60   H56   1.081807 S    
H21   C33   1.112976 S    
N10   H129  1.031594 S    
Zn5   O3    1.943769 S    
Zn13  O1    1.954414 S    
Zn6   O4    1.943767 S    
C163  C167  1.412114 A    
C54   H50   1.082861 S    
C164  C168  1.416488 A    
C121  C129  1.402534 A    
C139  C147  1.389642 A    
C8    C94   1.452145 S    
C130  C142  1.399629 A    
C161  C162  1.407812 A    
H19   C175  1.077016 S    
H35   C143  1.080475 S    
H24   C33   1.113194 S    
C155  C159  1.393652 A    
Zn9   O24   1.932133 S    
O28   C5    1.281315 A    
C131  N7    1.431676 S    
C135  N3    1.430047 S    
Zn3   O42   1.948219 S    
C165  C169  1.410279 A    
C23   C39   1.492730 S    
Zn7   O4    1.945272 S    
O21   C4    1.275294 A    
N9    C189  1.449134 S    
C50   C62   1.389342 A    
C44   C52   1.393449 A    
C45   C53   1.392506 A    
C105  C145  1.413760 A    
C143  C151  1.394132 A    
C145  H77   1.082382 S    
C159  C160  1.386707 A    
C48   C56   1.391416 A    
C102  C126  1.417088 A    
C177  C178  1.407294 A    
Zn14  O2    1.954742 S    
C185  H110  1.109463 S    
C78   C94   1.412967 A    
C189  H126  1.110195 S    
Zn13  O49   1.949627 S    
C157  C158  1.389391 A    
C28   H12   1.113499 S    
C81   C113  1.412297 A    
Zn12  O27   1.931372 S    
C35   C39   1.551369 S    
N5    C185  1.447179 S    
C85   C117  1.412797 A    
C187  H119  1.108851 S    
O16   C12   1.277705 A    
C61   C69   1.391211 A    
C30   C40   1.554423 S    
Zn3   O2    1.945272 S    
C127  C135  1.402997 A    
H27   C36   1.112971 S    
C26   C38   1.554373 S    
C17   C166  1.442107 S    
C179  N12   1.423926 S    
N6    C186  1.446396 S    
O46   C24   1.274552 A    
O47   C24   1.277860 A    
N12   H137  1.031950 S    
Zn16  O52   1.949462 S    
C192  H139  1.110739 S    
H30   C138  1.080849 S    
C104  C108  1.409892 A    
Zn8   O45   1.948219 S    
C188  H124  1.108940 S    
C41   C49   1.393417 A    
O27   C6    1.276301 A    
C47   C87   1.416854 A    
C182  H99   1.109733 S    
O39   C19   1.269084 A    
C67   H63   1.082436 S    
C131  C143  1.404175 A    
C29   C31   1.546980 S    
C160  H92   1.081748 S    
C73   C85   1.411998 A    
O24   C1    1.278491 A    
C76   C88   1.411550 A    
C77   C81   1.412416 A    
C177  N10   1.424934 S    
C79   C95   1.416493 A    
C80   C84   1.411783 A    
O43   C22   1.277806 A    
H18   C174  1.082805 S    
Zn4   O41   1.948219 S    
Zn3   O15   1.937022 S    
N8    C188  1.448831 S    
C127  H75   1.079738 S    
N2    C182  1.448504 S    
Zn5   O12   1.936460 S    
O42   C22   1.274676 A    
Zn6   O11   1.937191 S    
C101  C105  1.411548 A    
Zn9   O21   1.930856 S    
Zn14  O50   1.949462 S    
H17   C173  1.081709 S    
N4    C184  1.448929 S    
C125  H73   1.082787 S    
O35   C14   1.277060 A    
N7    H117  1.031895 S    
Zn12  O40   1.949585 S    
Zn9   O1    1.955045 S    
H20   C176  1.083175 S    
H36   C144  1.080857 S    
O52   C20   1.267251 A    
C55   C59   1.389143 A    
C126  C134  1.403825 A    
C100  C124  1.415934 A    
C29   H13   1.113084 S    
C158  H90   1.082827 S    
O44   C21   1.274851 A    
O22   C3    1.276573 A    
C140  C148  1.393753 A    
Zn7   O19   1.937022 S    
C50   H46   1.082469 S    
C111  C119  1.414744 A    
C12   C116  1.451904 S    
Zn13  O32   1.932007 S    
C144  C152  1.390012 A    
O49   C17   1.275826 A    
Zn14  O31   1.931106 S    
C123  C131  1.401332 A    
C184  H106  1.110205 S    
C134  C138  1.402994 A    
O51   C19   1.279700 A    
C106  C114  1.413657 A    
C126  H74   1.082593 S    
C27   H11   1.113068 S    
C186  H114  1.110371 S    
Zn4   O5    1.936979 S    
N10   C190  1.447020 S    
C103  C127  1.418812 A    
O20   C16   1.276987 A    
C169  C173  1.415120 A    
C5    C95   1.455764 S    
C122  H70   1.080037 S    
O23   C2    1.276513 A    
O6    C2    1.278460 A    
Zn11  O25   1.930856 S    
Zn10  O38   1.949585 S    
C155  H87   1.080380 S    
C124  C132  1.405725 A    
C54   C58   1.387920 A    
C68   H64   1.082216 S    
C183  H104  1.109668 S    
C69   H65   1.082320 S    
C181  H96   1.106818 S    
C128  C136  1.403150 A    
C155  C164  1.419367 A    
C107  C147  1.416664 A    
O17   C13   1.275997 A    
C62   H58   1.082556 S    
C51   H47   1.081748 S    
O45   C23   1.277521 A    
