data_mof_unit_60681.cif
_audit_creation_date              2013-03-05T15:44:20-0500
_audit_creation_method            fapswitch 2.2
_symmetry_space_group_name_H-M    P1
_symmetry_Int_Tables_number       1
_space_group_crystal_system       triclinic
_cell_length_a                    21.772357
_cell_length_b                    21.746023
_cell_length_c                    22.328227
_cell_angle_alpha                 119.914002
_cell_angle_beta                  119.546355
_cell_angle_gamma                 89.466209
_cell_volume                      7568.97395583

loop_
_atom_site_label
_atom_site_type_symbol
_atom_site_description
_atom_site_fract_x
_atom_site_fract_y
_atom_site_fract_z
_atom_type_partial_charge
O1    O     O_R   0.447780 0.090160 0.499990 -0.566381
O2    O     O_R   0.552220 0.909840 0.500010 -0.582633
O3    O     O_R   0.552200 0.090180 0.499980 -0.571055
O4    O     O_R   0.447800 0.909820 0.500020 -0.563480
C1    C     C_R   0.499936 0.118928 0.500560 0.856286
C2    C     C_R   0.499426 0.880537 0.498190 0.858321
O5    O     O_R   0.508070 0.060270 0.620570 -0.569879
O6    O     O_R   0.491930 0.939730 0.379430 -0.575595
O7    O     O_R   0.612490 0.060290 0.620560 -0.564712
O8    O     O_R   0.387510 0.939710 0.379440 -0.568066
C3    C     C_R   0.579943 0.079434 0.659774 0.835948
C4    C     C_R   0.420055 0.919920 0.340168 0.828355
Cu1   Cu    Cu3+1 0.438180 0.999990 0.500010 1.078448
Cu2   Cu    Cu3+1 0.561820 0.000010 0.499990 1.065346
C5    C     C_R   0.764086 0.628814 0.646938 -0.189370
C6    C     C_R   0.271985 0.358501 0.413165 -0.211391
C7    C     C_R   0.683458 0.467450 0.425232 0.329333
C8    C     C_R   0.299493 0.564485 0.538459 0.341510
C9    C     C_R   0.686980 0.515068 0.500132 -0.205666
C10   C     C_R   0.313012 0.496929 0.498129 -0.181571
C11   C     C_R   0.823112 0.558442 0.578451 0.093014
C12   C     C_R   0.191015 0.426230 0.445146 0.107479
H1    H     H_    0.715878 0.643914 0.644078 0.188816
H2    H     H_    0.325421 0.357427 0.422209 0.174228
C13   C     C_3   0.689020 0.278844 0.952479 -0.306530
C14   C     C_3   0.339490 0.764734 0.047828 -0.326782
C15   C     C_3   0.794561 0.226234 0.950958 0.162515
C16   C     C_3   0.231766 0.717218 0.047420 0.168402
C17   C     C_3   0.843817 0.278485 0.048979 -0.307673
C18   C     C_3   0.184884 0.666768 0.949293 -0.306993
H3    H     H_    0.773021 0.382499 0.070334 0.197538
H4    H     H_    0.298073 0.657962 0.929223 0.193340
H5    H     H_    0.692045 0.310737 0.927187 0.238475
H6    H     H_    0.375813 0.735873 0.072656 0.227931
H7    H     H_    0.807076 0.172208 0.930075 0.137195
H8    H     H_    0.194261 0.738358 0.068190 0.125129
H9    H     H_    0.872730 0.334379 0.070489 0.207915
H10   H     H_    0.196419 0.612433 0.927079 0.208559
C19   C     C_1   0.875996 0.374326 0.250525 -0.101524
C20   C     C_1   0.124458 0.624861 0.749356 -0.107691
C21   C     C_3   0.710154 0.206661 0.916987 0.088676
C22   C     C_3   0.290585 0.787771 0.082689 0.088086
C23   C     C_3   0.740149 0.328667 0.049315 -0.353808
C24   C     C_3   0.290305 0.714062 0.950894 -0.346996
C25   C     C_3   0.793592 0.289085 0.082727 0.067279
C26   C     C_3   0.206938 0.706217 0.916963 0.066652
C27   C     C_3   0.747614 0.210137 0.046851 0.214807
C28   C     C_3   0.196777 0.785443 0.953567 0.216689
C29   C     C_3   0.697106 0.162787 0.949379 -0.498745
C30   C     C_3   0.247559 0.833476 0.050848 -0.485820
C31   C     C_1   0.838881 0.336072 0.175149 -0.002597
C32   C     C_1   0.161734 0.661457 0.824658 -0.008614
C33   C     C_1   0.663100 0.160838 0.824775 0.015666
C34   C     C_1   0.337294 0.834692 0.175005 0.005196
C35   C     C_1   0.624968 0.123608 0.749410 -0.060590
C36   C     C_1   0.375137 0.873666 0.250428 -0.069661
H11   H     H_    0.637335 0.147157 0.925655 0.236310
H12   H     H_    0.287785 0.884603 0.075560 0.231112
H13   H     H_    0.709757 0.109367 0.923952 0.168617
H14   H     H_    0.212505 0.852241 0.075553 0.184421
H15   H     H_    0.630237 0.263748 0.932227 0.203316
H16   H     H_    0.377448 0.815627 0.069088 0.195633
H17   H     H_    0.706047 0.343442 0.075496 0.232999
H18   H     H_    0.309207 0.736560 0.925683 0.229747
H19   H     H_    0.787745 0.180615 0.065112 0.123092
H20   H     H_    0.138070 0.777856 0.934671 0.119828
C37   C     C_R   0.401161 0.113258 0.350251 -0.162415
C38   C     C_R   0.611680 0.886478 0.642908 -0.195797
H21   H     H_    0.381346 0.068964 0.351888 0.129931
H22   H     H_    0.625451 0.930133 0.637257 0.149954
C39   C     C_R   0.365735 0.105609 0.273942 0.014264
C40   C     C_R   0.656989 0.896851 0.720037 -0.017240
C41   C     C_R   0.395346 0.158322 0.268614 -0.050929
C42   C     C_R   0.636958 0.845805 0.732935 -0.083602
C43   C     C_R   0.453786 0.223701 0.342441 -0.018929
C44   C     C_R   0.574518 0.781128 0.665594 -0.052306
C45   C     C_R   0.476554 0.239579 0.421643 0.040711
C46   C     C_R   0.537623 0.762622 0.582137 0.022049
C47   C     C_R   0.458763 0.179273 0.424429 0.030537
C48   C     C_R   0.550540 0.820953 0.574224 0.020574
C49   C     C_R   0.499911 0.185988 0.500843 -0.221618
C50   C     C_R   0.500156 0.814174 0.499047 -0.218722
C51   C     C_R   0.552522 0.254404 0.575276 0.232523
C52   C     C_R   0.441919 0.747561 0.429145 0.224272
C53   C     C_R   0.560007 0.318020 0.574564 0.235013
C54   C     C_R   0.436796 0.684990 0.431811 0.244819
C55   C     C_R   0.517519 0.312066 0.498092 -0.269520
C56   C     C_R   0.487720 0.690345 0.506439 -0.225246
C57   C     C_R   0.748781 0.460976 0.429390 -0.230158
C58   C     C_R   0.235119 0.562323 0.537087 -0.227235
C59   C     C_R   0.817614 0.504309 0.504819 -0.120258
C60   C     C_R   0.181255 0.494551 0.491626 -0.146960
O9    O     O_R   0.910000 0.552200 0.500000 -0.572256
O10   O     O_R   0.090000 0.447800 0.500000 -0.588030
O11   O     O_R   0.909970 0.447830 0.500020 -0.564254
O12   O     O_R   0.090030 0.552170 0.499980 -0.570812
C61   C     C_R   0.882387 0.501057 0.501478 0.795353
C62   C     C_R   0.116573 0.497633 0.496049 0.796035
O13   O     O_R   0.939920 0.491910 0.379430 -0.570669
O14   O     O_R   0.060080 0.508090 0.620570 -0.572985
O15   O     O_R   0.939890 0.387530 0.379440 -0.574163
O16   O     O_R   0.060110 0.612470 0.620560 -0.558681
C63   C     C_R   0.920343 0.419810 0.340173 0.799365
C64   C     C_R   0.079878 0.580081 0.659786 0.795316
Cu3   Cu    Cu3+1 0.000200 0.561800 0.499990 1.047526
Cu4   Cu    Cu3+1 0.999800 0.438200 0.500010 1.028510
O17   O     O_R   0.625100 0.534890 0.569750 -0.583260
O18   O     O_R   0.374900 0.465110 0.430250 -0.563004
O19   O     O_R   0.555310 0.465120 0.430190 -0.531158
O20   O     O_R   0.444690 0.534880 0.569810 -0.565518
C65   C     C_R   0.619215 0.506505 0.500034 0.801388
C66   C     C_R   0.380816 0.499265 0.499807 0.851588
O21   O     O_R   0.534910 0.444720 0.569790 -0.530602
O22   O     O_R   0.465090 0.555280 0.430210 -0.524760
O23   O     O_R   0.465120 0.374940 0.430230 -0.601001
O24   O     O_R   0.534880 0.625060 0.569770 -0.616030
C67   C     C_R   0.507600 0.380629 0.499471 0.829017
C68   C     C_R   0.494651 0.620058 0.501449 0.869118
Cu5   Cu    Cu3+1 0.541330 0.541310 0.582630 1.100329
Cu6   Cu    Cu3+1 0.458670 0.458690 0.417370 1.140141
C69   C     C_R   0.757324 0.566696 0.575611 0.015790
C70   C     C_R   0.259298 0.427258 0.452305 -0.006611
H23   H     H_    0.746035 0.424418 0.372256 0.188090
H24   H     H_    0.226118 0.614445 0.570418 0.206175
C71   C     C_R   0.892970 0.605614 0.654391 -0.195994
C72   C     C_R   0.134031 0.357135 0.390246 -0.201927
H25   H     H_    0.944260 0.598943 0.659399 0.139031
H26   H     H_    0.078614 0.353684 0.376305 0.172778
C73   C     C_R   0.898104 0.662948 0.725350 -0.157831
C74   C     C_R   0.146611 0.290210 0.349660 -0.177700
H27   H     H_    0.952665 0.698205 0.782421 0.191394
H28   H     H_    0.101762 0.238365 0.308660 0.197452
C75   C     C_R   0.833857 0.676207 0.721999 0.372641
C76   C     C_R   0.216126 0.290025 0.362170 0.392086
N1    N     N_R   0.839323 0.738048 0.794257 0.141487
O25   O     O_R   0.903971 0.783671 0.862768 -0.305609
O26   O     O_R   0.779771 0.748864 0.792610 -0.350106
N2    N     N_R   0.229785 0.220678 0.322313 0.132352
O27   O     O_R   0.178048 0.157039 0.274616 -0.320651
O28   O     O_R   0.294439 0.220577 0.333907 -0.378704
N3    N     N_R   0.703956 0.214954 0.081562 0.149394
O29   O     O_R   0.721319 0.192964 0.130828 -0.308248
O30   O     O_R   0.645597 0.237131 0.060481 -0.322585
N4    N     N_R   0.209791 0.824033 0.920479 0.153113
O31   O     O_R   0.154604 0.836361 0.871828 -0.304017
O32   O     O_R   0.276362 0.849985 0.942629 -0.336591
N5    N     N_R   0.598368 0.259435 0.651940 0.149873
O33   O     O_R   0.568317 0.235465 0.677416 -0.351671
O34   O     O_R   0.670220 0.288874 0.697057 -0.239103
N6    N     N_R   0.388088 0.743128 0.354676 0.161509
O35   O     O_R   0.409672 0.762156 0.319651 -0.326428
O36   O     O_R   0.317327 0.718845 0.320887 -0.233611
C77   C     C_1   0.297680 0.045171 0.202701 0.308726
N7    N     N_1   0.242222 0.997887 0.145787 -0.230116
C78   C     C_1   0.721100 0.963140 0.786794 0.262218
N8    N     N_1   0.772545 0.016064 0.840136 -0.254443
C79   C     C_1   0.365777 0.145540 0.187844 0.291872
N9    N     N_1   0.342167 0.135331 0.123374 -0.170815
C80   C     C_1   0.678587 0.861577 0.816296 0.316310
N10   N     N_1   0.711755 0.874197 0.882753 -0.172208
C81   C     C_1   0.498850 0.265675 0.336140 0.272223
N11   N     N_1   0.535079 0.298695 0.330916 -0.170703
C82   C     C_1   0.541023 0.745854 0.687618 0.374432
N12   N     N_1   0.515733 0.718560 0.706972 -0.161527
N13   N     N_R   0.612335 0.388059 0.651540 0.176217
O37   O     O_R   0.609486 0.414404 0.716466 -0.262885
O38   O     O_R   0.665765 0.423347 0.658275 -0.299217
N14   N     N_R   0.378635 0.616316 0.358591 0.173743
O39   O     O_R   0.370322 0.587339 0.287070 -0.235393
O40   O     O_R   0.331567 0.584599 0.362463 -0.273156
N15   N     N_R   0.614998 0.430128 0.343746 0.150366
O41   O     O_R   0.573320 0.468993 0.324032 -0.297601
O42   O     O_R   0.604560 0.364063 0.283847 -0.291395
N16   N     N_R   0.348321 0.635625 0.577114 0.131661
O43   O     O_R   0.356341 0.694783 0.642443 -0.323380
O44   O     O_R   0.371569 0.644239 0.537349 -0.359386
N17   N     N_R   0.811368 0.259494 0.915265 0.152792
O45   O     O_R   0.808195 0.326169 0.934869 -0.304827
O46   O     O_R   0.832784 0.223161 0.865784 -0.282361
N18   N     N_R   0.265988 0.674364 0.082056 0.156850
O47   O     O_R   0.307734 0.637449 0.062313 -0.320586
O48   O     O_R   0.251583 0.670024 0.130123 -0.230431
C83   C     C_1   0.903395 0.248903 0.083747 0.247973
N19   N     N_1   0.950024 0.225815 0.111026 -0.209139
C84   C     C_1   0.104399 0.648112 0.913977 0.243635
N20   N     N_1   0.041422 0.633527 0.886285 -0.203832

loop_
_geom_bond_atom_site_label_1
_geom_bond_atom_site_label_2
_geom_bond_distance
_ccdc_geom_bond_type
C38   C48   1.413030 A    
O13   C63   1.296727 A    
O12   Cu3   1.965148 S    
N13   O37   1.301281 A    
C2    C50   1.452587 S    
C41   C79   1.449996 S    
C15   C17   1.568033 S    
O18   Cu6   1.975151 S    
C33   C35   1.205086 T    
C19   C31   1.205126 T    
N5    O33   1.300956 A    
N15   O41   1.301652 A    
C6    C76   1.403512 A    
C13   C23   1.549265 S    
C81   N11   1.155942 T    
C60   C62   1.458199 S    
N1    O25   1.301648 A    
C27   C29   1.559390 S    
O10   C62   1.293912 A    
C74   C76   1.397438 A    
C24   H18   1.110194 S    
O5    C3    1.298460 A    
N15   O42   1.301626 A    
C18   H10   1.112661 S    
C79   N9    1.157258 T    
H3    C23   1.113225 S    
C42   C80   1.452176 S    
O1    C1    1.293062 A    
N5    O34   1.301205 A    
C44   C46   1.435769 A    
C55   C67   1.491768 S    
O19   C65   1.288926 A    
C11   C59   1.407568 A    
C46   C48   1.413686 A    
N14   O40   1.301316 A    
C12   C72   1.413258 A    
C37   C39   1.396150 A    
C25   C31   1.477727 S    
C39   C77   1.442112 S    
C26   C32   1.476561 S    
O14   C64   1.294779 A    
C29   H11   1.112844 S    
C28   N4    1.469556 S    
O16   Cu3   1.941097 S    
C25   C27   1.568650 S    
O17   Cu5   1.975154 S    
O4    Cu1   1.970151 S    
C6    C70   1.415193 A    
N16   O43   1.301742 A    
O9    Cu3   1.976985 S    
C1    C49   1.455164 S    
O21   Cu5   1.969503 S    
C14   H6    1.109958 S    
O10   Cu4   1.976987 S    
C82   N12   1.157063 T    
N18   O48   1.301035 A    
O23   C67   1.289201 A    
O12   C62   1.296771 A    
C72   H26   1.079950 S    
Cu3   Cu4   2.688128 S    
C57   C59   1.387267 A    
C17   C83   1.479339 S    
C10   C70   1.420117 A    
C38   C40   1.389605 A    
C5    H1    1.077933 S    
C28   C30   1.556138 S    
N17   O46   1.301097 A    
N13   O38   1.301435 A    
C40   C78   1.445891 S    
C10   C66   1.458853 S    
Cu1   Cu2   2.692158 S    
C75   N1    1.440574 S    
C41   C43   1.408966 A    
O2    C2    1.292555 A    
O17   C65   1.291098 A    
C21   C29   1.552416 S    
C49   C51   1.405597 A    
C24   C26   1.555079 S    
C12   C70   1.413838 A    
N16   O44   1.300205 A    
C45   C47   1.410093 A    
O13   Cu3   1.936716 S    
C34   C36   1.205910 T    
C53   C55   1.418433 A    
C14   C24   1.550102 S    
C30   H12   1.112343 S    
C18   C84   1.479357 S    
C16   H8    1.116705 S    
C7    C57   1.389359 A    
C40   C42   1.398952 A    
C13   C21   1.552133 S    
C39   C41   1.403265 A    
O7    Cu2   1.939303 S    
C7    C9    1.422231 A    
C57   H23   1.084933 S    
C15   H7    1.115730 S    
C20   C32   1.204415 T    
O18   C66   1.278386 A    
C17   C25   1.565714 S    
C37   H21   1.083375 S    
C8    C58   1.387447 A    
C74   H28   1.082648 S    
C83   N19   1.157324 T    
O11   Cu4   1.965145 S    
C20   C64   1.432043 S    
C43   C45   1.421941 A    
C15   C21   1.565755 S    
C58   C60   1.394183 A    
C80   N10   1.157315 T    
O6    C4    1.298402 A    
O11   C61   1.292355 A    
H4    C24   1.113170 S    
C54   N14   1.436947 S    
C13   H15   1.113221 S    
C59   C61   1.447771 S    
O16   C64   1.298578 A    
C16   N18   1.469445 S    
C21   C33   1.474479 S    
O22   C68   1.304248 A    
O3    Cu2   1.970152 S    
O8    C4    1.298826 A    
C22   C30   1.549662 S    
C51   N5    1.438251 S    
C8    N16   1.436069 S    
N4    O32   1.301448 A    
N14   O39   1.301319 A    
C51   C53   1.403303 A    
C73   C75   1.398638 A    
C50   C52   1.403397 A    
O7    C3    1.298062 A    
N6    O36   1.301174 A    
O4    C2    1.294846 A    
O1    Cu1   1.974126 S    
C42   C44   1.413325 A    
C11   C71   1.411173 A    
O9    C61   1.291542 A    
C3    C35   1.433310 S    
N18   O47   1.301327 A    
C14   C22   1.552142 S    
C47   C49   1.407613 A    
O15   C63   1.297258 A    
O21   C67   1.293563 A    
C46   C56   1.441743 A    
O15   Cu4   1.941097 S    
N1    O26   1.301431 A    
C9    C69   1.430242 A    
O6    Cu2   1.938530 S    
C5    C69   1.417575 A    
C58   H24   1.084118 S    
C18   C26   1.566781 S    
C12   C60   1.415377 A    
C15   N17   1.469582 S    
C52   C54   1.399136 A    
N4    O31   1.301077 A    
O3    C1    1.295777 A    
O8    Cu1   1.939303 S    
O20   Cu5   1.974892 S    
C76   N2    1.438283 S    
Cu5   Cu6   2.642171 S    
C7    N15   1.437292 S    
C19   C63   1.433266 S    
N2    O28   1.299862 A    
C9    C65   1.487635 S    
C5    C75   1.405037 A    
C27   N3    1.469351 S    
O14   Cu4   1.936715 S    
C29   H13   1.112718 S    
O24   Cu5   1.973853 S    
C43   C81   1.447935 S    
C53   N13   1.435946 S    
N3    O30   1.301429 A    
C14   H16   1.113242 S    
C30   H14   1.112750 S    
C16   C18   1.569609 S    
C23   C25   1.554689 S    
N3    O29   1.301067 A    
C22   C34   1.475890 S    
C84   N20   1.157286 T    
C54   C56   1.416397 A    
C16   C22   1.565559 S    
C4    C36   1.434762 S    
C48   C50   1.408130 A    
O24   C68   1.274599 A    
C8    C10   1.410528 A    
C11   C69   1.415933 A    
O2    Cu2   1.974126 S    
O20   C66   1.282880 A    
N2    O27   1.301585 A    
N17   O45   1.301382 A    
C26   C28   1.565863 S    
C71   C73   1.391021 A    
O5    Cu1   1.938529 S    
C45   C55   1.426515 A    
C6    H2    1.080442 S    
O23   Cu6   1.973857 S    
C23   H17   1.110195 S    
C17   H9    1.112725 S    
C78   N8    1.157060 T    
C71   H25   1.081945 S    
C38   H22   1.081272 S    
C72   C74   1.391468 A    
N6    O35   1.300959 A    
C44   C82   1.449957 S    
C28   H20   1.114270 S    
C77   N7    1.156131 T    
C56   C68   1.487899 S    
C27   H19   1.114042 S    
C37   C47   1.410785 A    
O22   Cu6   1.969500 S    
O19   Cu6   1.974891 S    
C13   H5    1.110137 S    
C73   H27   1.082755 S    
C52   N6    1.438027 S    
