data_mof_unit_64770.cif
_audit_creation_date              2012-10-26T17:15:24-0400
_audit_creation_method            fapswitch 2.2
_symmetry_space_group_name_H-M    P1
_symmetry_Int_Tables_number       1
_space_group_crystal_system       triclinic
_cell_length_a                    21.932115
_cell_length_b                    21.945783
_cell_length_c                    22.303509
_cell_angle_alpha                 59.712462
_cell_angle_beta                  119.103776
_cell_angle_gamma                 90.504308
_cell_volume                      7691.16486005

loop_
_atom_site_label
_atom_site_type_symbol
_atom_type_description
_atom_site_fract_x
_atom_site_fract_y
_atom_site_fract_z
_atom_type_partial_charge
C1    C     C_R   0.616310 0.501232 0.497580 0.556240
C2    C     C_2   0.818789 0.504013 0.505044 -0.116008
C3    C     C_2   0.694737 0.564368 0.454621 -0.159849
C4    C     C_R   0.419799 0.580485 0.339620 0.553442
C5    C     C_2   0.680031 0.501742 0.492587 -0.114601
C6    C     C_3   0.719128 0.200214 0.029711 -0.099609
C7    C     C_3   0.684630 0.285857 0.972875 -0.098141
C8    C     C_1   0.625363 0.373964 0.750316 -0.026939
C9    C     C_1   0.875902 0.124985 0.249688 -0.002279
C10   C     C_3   0.743380 0.205262 0.973091 -0.101092
C11   C     C_3   0.709574 0.290216 0.917640 0.049933
C12   C     C_3   0.290385 0.709863 0.082498 0.047767
C13   C     C_3   0.817367 0.212626 0.027149 -0.102375
C14   C     C_3   0.792411 0.208274 0.082370 0.050186
C15   C     C_3   0.782856 0.298282 0.970297 -0.100398
C16   C     C_R   0.383767 0.498228 0.502563 0.557033
C17   C     C_3   0.758602 0.293227 0.026916 -0.094535
C18   C     C_1   0.663350 0.336046 0.825809 -0.058829
C19   C     C_1   0.838388 0.162593 0.174197 -0.049910
C20   C     C_2   0.243555 0.506767 0.554098 -0.159881
C21   C     C_2   0.181356 0.508757 0.494964 -0.114261
C22   C     C_2   0.306266 0.516841 0.545905 -0.158889
C23   C     C_3   0.182636 0.740712 0.973656 -0.106021
C24   C     C_2   0.320393 0.492525 0.508238 -0.114255
C25   C     C_R   0.000761 0.881136 0.502575 0.550555
C26   C     C_R   0.079841 0.919776 0.660388 0.546132
C27   C     C_R   0.997744 0.120083 0.494206 0.595822
C28   C     C_R   0.580196 0.419503 0.660409 0.553347
C29   C     C_R   0.920146 0.080116 0.339587 0.581395
C30   C     C_R   0.001460 0.618044 0.499244 0.560080
C31   C     C_R   0.882746 0.501623 0.500794 0.554768
C32   C     C_R   0.994800 0.382066 0.500882 0.577597
C33   C     C_R   0.117274 0.502345 0.499166 0.563149
C34   C     C_3   0.207503 0.792018 0.917466 0.040999
C35   C     C_2   0.060718 0.689452 0.554204 -0.158978
C36   C     C_2   0.003608 0.686244 0.495164 -0.114003
C37   C     C_2   0.062622 0.760335 0.545973 -0.158101
C38   C     C_2   0.000694 0.812114 0.508261 -0.113743
C39   C     C_2   0.946386 0.316550 0.434714 -0.183209
C40   C     C_3   0.281049 0.730862 0.971455 -0.086677
C41   C     C_2   0.979592 0.314935 0.505047 -0.004160
C42   C     C_2   0.936459 0.250336 0.434076 -0.025125
C43   C     C_2   0.996703 0.190559 0.485322 -0.097487
C44   C     C_3   0.314285 0.761218 0.025648 0.050850
C45   C     C_3   0.216802 0.770984 0.028277 -0.112313
C46   C     C_1   0.374579 0.626009 0.249776 -0.029069
C47   C     C_1   0.124050 0.875079 0.750243 -0.027689
C48   C     C_3   0.256881 0.678975 0.029145 -0.112114
C49   C     C_3   0.390062 0.771819 0.057246 -0.278850
C50   C     C_3   0.396396 0.826579 0.984915 -0.441219
C51   C     C_3   0.995238 0.248757 0.588190 -0.274190
C52   C     C_3   0.943928 0.267171 0.608775 -0.428584
C53   C     C_2   0.862739 0.257707 0.369980 0.236927
C54   C     C_3   0.240823 0.823211 0.970557 -0.087042
C55   C     C_1   0.336551 0.663946 0.174325 -0.064862
C56   C     C_1   0.161533 0.837592 0.825704 -0.061665
C57   C     C_2   0.757298 0.562442 0.446275 -0.157485
Cu1   Cu    Cu3+1 0.500050 0.438990 0.500010 0.941079
Cu2   Cu    Cu3+1 0.499950 0.561010 0.499990 0.937274
Cu3   Cu    Cu3+1 0.061010 0.999870 0.499990 0.942805
Cu4   Cu    Cu3+1 0.938990 0.999980 0.500010 0.986350
Cu5   Cu    Cu3+1 0.958560 0.541440 0.417120 0.928810
Cu6   Cu    Cu3+1 0.041440 0.458560 0.582880 0.919339
H1    H     H_    0.711815 0.449165 0.513988 0.105762
H2    H     H_    0.343307 0.540654 0.575178 0.145312
H3    H     H_    0.307192 0.714921 0.947370 0.103818
H4    H     H_    0.288133 0.461408 0.487137 0.108078
H5    H     H_    0.108438 0.640513 0.606894 0.142974
H6    H     H_    0.959592 0.736651 0.437999 0.105625
H7    H     H_    0.115695 0.768120 0.575244 0.145222
H8    H     H_    0.948467 0.800973 0.487149 0.107164
H9    H     H_    0.928049 0.367979 0.374974 0.135544
H10   H     H_    0.050054 0.194867 0.521396 0.083536
H11   H     H_    0.234058 0.882811 0.945733 0.101994
H12   H     H_    0.629553 0.316432 0.949628 0.109098
H13   H     H_    0.190765 0.786871 0.052477 0.109337
H14   H     H_    0.127668 0.732737 0.951121 0.112657
H15   H     H_    0.263728 0.619355 0.054059 0.110458
H16   H     H_    0.754059 0.611030 0.393554 0.143334
H17   H     H_    0.825315 0.459060 0.562346 0.102792
H18   H     H_    0.658119 0.617947 0.424927 0.143661
H19   H     H_    0.388003 0.805920 0.945983 0.152287
H20   H     H_    0.354945 0.881804 0.945247 0.151348
H21   H     H_    0.452008 0.832965 0.010047 0.140067
H22   H     H_    0.399685 0.792842 0.096140 0.145934
H23   H     H_    0.693373 0.159405 0.055087 0.109124
H24   H     H_    0.432591 0.717298 0.096869 0.145680
H25   H     H_    0.952694 0.312858 0.617255 0.177767
H26   H     H_    0.885721 0.283673 0.557795 0.149013
H27   H     H_    0.954748 0.217407 0.667825 0.132684
H28   H     H_    0.987764 0.198579 0.588923 0.146953
H29   H     H_    0.053281 0.233051 0.639039 0.151666
H30   H     H_    0.815780 0.303284 0.339747 0.099485
H31   H     H_    0.765341 0.328949 0.049994 0.116120
H32   H     H_    0.808609 0.339093 0.944919 0.109529
H33   H     H_    0.872447 0.182047 0.050409 0.108610
H34   H     H_    0.736642 0.169533 0.950023 0.108655
H35   H     H_    0.247259 0.501704 0.606883 0.142905
H36   H     H_    0.174663 0.521989 0.437727 0.107214
O1    O     O_R   0.589060 0.448490 0.499990 -0.508490
O2    O     O_R   0.034920 0.554020 0.569980 -0.503412
O3    O     O_R   0.875990 0.534990 0.430030 -0.504280
O4    O     O_R   0.588980 0.551530 0.499980 -0.502843
O5    O     O_R   0.945970 0.465000 0.570010 -0.516120
O6    O     O_R   0.965080 0.445980 0.430020 -0.513153
O7    O     O_R   0.035060 0.375990 0.570000 -0.510795
O8    O     O_R   0.054030 0.535000 0.429990 -0.505073
O9    O     O_R   0.124010 0.465010 0.569970 -0.503478
O10   O     O_R   0.439580 0.508940 0.379080 -0.502932
O11   O     O_R   0.439510 0.611990 0.379070 -0.505435
O12   O     O_R   0.948460 0.910940 0.500030 -0.514311
O13   O     O_R   0.411020 0.448470 0.500020 -0.507114
O14   O     O_R   0.410940 0.551510 0.500010 -0.503203
O15   O     O_R   0.560490 0.388010 0.620930 -0.503510
O16   O     O_R   0.560420 0.491060 0.620920 -0.504489
O17   O     O_R   0.051510 0.910850 0.500010 -0.506893
O18   O     O_2   0.853635 0.215875 0.347729 -0.490837
O19   O     O_R   0.111980 0.939430 0.620910 -0.509796
O20   O     O_R   0.008930 0.939520 0.620930 -0.510047
O21   O     O_R   0.051540 0.088910 0.499970 -0.516415
O22   O     O_R   0.948490 0.089000 0.499990 -0.463800
O23   O     O_R   0.991070 0.060330 0.379070 -0.509981
O24   O     O_R   0.888020 0.060420 0.379090 -0.473398
O25   O     O_R   0.964940 0.624010 0.430000 -0.509044

loop_
_geom_bond_atom_site_label_1
_geom_bond_atom_site_label_2
_ccdc_geom_bond_type
C44   C49   S    
C43   H10   S    
C4    O10   A    
C11   C18   S    
C34   C56   S    
C23   C45   S    
C34   C40   S    
Cu4   O20   S    
Cu1   O10   S    
C57   H16   S    
C52   H27   S    
C35   C36   D    
C33   O8    A    
C12   C48   S    
C16   O14   A    
Cu5   O25   S    
C27   O22   A    
C2    C57   D    
C50   H21   S    
C39   C41   D    
Cu5   O6    S    
C4    C46   S    
C27   O21   A    
C7    C11   S    
C50   H19   S    
Cu5   Cu6   S    
C45   H13   S    
C1    C5    S    
C35   C37   S    
C42   C53   S    
C15   H32   S    
C51   H29   S    
C53   O18   D    
C21   C33   S    
Cu2   O11   S    
Cu4   O22   S    
C48   H15   S    
C49   H24   S    
C24   H4    S    
C51   H28   S    
C54   H11   S    
C11   C15   S    
C9    C19   T    
C7    C17   S    
C46   C55   T    
C3    H18   S    
C39   H9    S    
Cu3   O19   S    
C1    O4    A    
Cu6   O2    S    
C16   C24   S    
C40   H3    S    
C13   C14   S    
C14   C17   S    
C52   H26   S    
C33   O9    A    
C1    O1    A    
C50   H20   S    
C39   C42   S    
C13   H33   S    
C53   H30   S    
C51   C52   S    
C31   O3    A    
C49   H22   S    
C52   H25   S    
Cu1   O1    S    
C26   O20   A    
C25   O17   A    
Cu6   O5    S    
C7    H12   S    
Cu5   O8    S    
Cu1   Cu2   S    
C8    C18   T    
C5    H1    S    
Cu3   Cu4   S    
C10   H34   S    
C22   H2    S    
C37   C38   D    
C28   O16   A    
C44   C54   S    
C25   C38   S    
C6    C14   S    
C32   C41   S    
C23   C34   S    
C29   O23   A    
C23   H14   S    
Cu6   O7    S    
Cu3   O23   S    
Cu2   O14   S    
C28   O15   A    
C26   C47   S    
C3    C57   S    
C30   O25   A    
C45   C54   S    
C34   C54   S    
C32   O6    A    
C13   C15   S    
C8    C28   S    
Cu1   O13   S    
Cu3   O17   S    
C42   C43   D    
Cu4   O12   S    
C36   H6    S    
C16   O13   A    
C40   C48   S    
C4    O11   A    
C38   H8    S    
C23   C48   S    
C14   C19   S    
C26   O19   A    
C20   C22   S    
C12   C45   S    
C3    C5    D    
C10   C13   S    
C6    C10   S    
C15   C17   S    
C6    C7    S    
C9    C29   S    
C6    H23   S    
C30   C36   S    
Cu4   O24   S    
Cu2   O4    S    
C31   O5    A    
C12   C44   S    
C35   H5    S    
C21   H36   S    
C29   O24   A    
C30   O2    A    
Cu3   O21   S    
C22   C24   D    
C12   C55   S    
C2    H17   S    
C10   C11   S    
C25   O12   A    
C27   C43   S    
C40   C44   S    
C20   H35   S    
C20   C21   D    
Cu2   O16   S    
C49   C50   S    
Cu1   O15   S    
C2    C31   S    
C32   O7    A    
C17   H31   S    
Cu6   O9    S    
C37   H7    S    
C41   C51   S    
C47   C56   T    
Cu5   O3    S    
