data_mof_unit_26915.cif
_audit_creation_date              2012-12-11T14:49:47-0500
_audit_creation_method            fapswitch 2.2
_symmetry_space_group_name_H-M    P1
_symmetry_Int_Tables_number       1
_space_group_crystal_system       triclinic
_cell_length_a                    16.894682
_cell_length_b                    7.009252
_cell_length_c                    16.905773
_cell_angle_alpha                 90.000112
_cell_angle_beta                  101.0659
_cell_angle_gamma                 90.000019
_cell_volume                      1964.74373184

loop_
_atom_site_label
_atom_site_type_symbol
_atom_type_description
_atom_site_fract_x
_atom_site_fract_y
_atom_site_fract_z
_atom_type_partial_charge
O1    O     O_R   0.579510 0.506290 0.439030 -0.549176
O2    O     O_R   0.420490 0.006290 0.560970 -0.549175
O3    O     O_R   0.412540 0.170090 0.405290 -0.538238
O4    O     O_R   0.587460 0.670090 0.594710 -0.538238
C1    C     C_R   0.384200 0.345936 0.382758 0.646293
C2    C     C_R   0.615800 0.845936 0.617242 0.646296
O5    O     O_R   0.578390 0.176230 0.429330 -0.535692
O6    O     O_R   0.421610 0.676230 0.570670 -0.535691
O7    O     O_R   0.587530 0.011250 0.585190 -0.540420
O8    O     O_R   0.412470 0.511250 0.414810 -0.540420
C3    C     C_R   0.603859 0.344454 0.412283 0.695223
C4    C     C_R   0.396141 0.844454 0.587717 0.695225
O9    O     O_3   0.502800 0.340940 0.551110 -0.367472
O10   O     O_3   0.497200 0.840940 0.448890 -0.367475
V1    V     V_3+5 0.499480 0.064020 0.490520 1.404996
V2    V     V_3+5 0.500520 0.564020 0.509480 1.404997
C5    C     C_R   0.167022 0.928659 0.861618 -0.057966
C6    C     C_R   0.832978 0.428660 0.138382 -0.057970
C7    C     C_R   0.336061 0.844211 0.642610 -0.134087
C8    C     C_R   0.663939 0.344211 0.357390 -0.134085
C9    C     C_R   0.239521 0.655018 0.700915 -0.186433
C10   C     C_R   0.760481 0.155019 0.299086 -0.186435
C11   C     C_R   0.289939 0.677284 0.645236 -0.156207
C12   C     C_R   0.710062 0.177285 0.354764 -0.156211
C13   C     C_R   0.329006 0.994294 0.697409 -0.080961
C14   C     C_R   0.670992 0.494293 0.302590 -0.080962
C15   C     C_R   0.275665 0.972957 0.752975 0.126590
C16   C     C_R   0.724335 0.472957 0.247025 0.126595
C17   C     C_R   0.231761 0.800704 0.755229 0.148399
C18   C     C_R   0.768240 0.300705 0.244771 0.148399
C19   C     C_R   0.179003 0.778124 0.810356 -0.240634
C20   C     C_R   0.820998 0.278125 0.189645 -0.240635
C21   C     C_R   0.210066 0.099558 0.857950 -0.106247
C22   C     C_R   0.789935 0.599557 0.142051 -0.106250
C23   C     C_R   0.263409 0.121273 0.805307 -0.161856
C24   C     C_R   0.736591 0.621273 0.194694 -0.161855
H1    H     H_    0.145051 0.647060 0.810980 0.116997
H2    H     H_    0.854951 0.147061 0.189021 0.116997
H3    H     H_    0.201628 0.220489 0.895337 0.164026
H4    H     H_    0.798373 0.720488 0.104665 0.164033
H5    H     H_    0.206047 0.523134 0.701066 0.105711
H6    H     H_    0.793955 0.023137 0.298936 0.105711
H7    H     H_    0.293013 0.257929 0.804830 0.164131
H8    H     H_    0.706987 0.757928 0.195170 0.164130
H9    H     H_    0.293582 0.560327 0.604218 0.114031
H10   H     H_    0.706418 0.060329 0.395783 0.114032
C25   C     C_3   0.734322 0.826704 0.840684 -0.122228
C26   C     C_3   0.265678 0.326692 0.159315 -0.122235
H11   H     H_    0.715829 0.934350 0.882173 0.144817
H12   H     H_    0.284175 0.434336 0.117829 0.144824
C27   C     C_3   0.662687 0.801652 0.767722 -0.354079
C28   C     C_3   0.337311 0.301624 0.232279 -0.354064
H13   H     H_    0.610475 0.888329 0.778265 0.159667
H14   H     H_    0.389528 0.388278 0.221735 0.159664
H15   H     H_    0.641500 0.650877 0.761511 0.146718
H16   H     H_    0.358487 0.150840 0.238493 0.146719
H17   H     H_    0.853259 0.629210 0.771681 0.132300
H18   H     H_    0.146740 0.129216 0.228323 0.132298
H19   H     H_    0.742663 0.589470 0.670887 0.139580
H20   H     H_    0.257328 0.089485 0.329126 0.139575
C29   C     C_3   0.832982 0.770763 0.745877 -0.326904
C30   C     C_3   0.167016 0.270773 0.254125 -0.326895
C31   C     C_3   0.787985 0.100624 0.771063 -0.349844
C32   C     C_3   0.212020 0.600628 0.228934 -0.349847
C33   C     C_3   0.811473 0.905848 0.812110 0.041889
C34   C     C_3   0.188527 0.405849 0.187889 0.041890
H21   H     H_    0.840413 0.163688 0.749371 0.139897
H22   H     H_    0.159594 0.663697 0.250628 0.139899
H23   H     H_    0.770727 0.201575 0.815495 0.141558
H24   H     H_    0.229276 0.701575 0.184499 0.141558
C35   C     C_3   0.687049 0.865482 0.688149 0.092602
C36   C     C_3   0.312951 0.365482 0.311850 0.092601
C37   C     C_3   0.759909 0.742921 0.675306 -0.335523
C38   C     C_3   0.240087 0.242939 0.324699 -0.335526
C39   C     C_3   0.716480 0.077572 0.699319 -0.290404
C40   C     C_3   0.283527 0.577578 0.300674 -0.290403
H25   H     H_    0.666215 0.171023 0.709845 0.159434
H26   H     H_    0.333795 0.671013 0.290141 0.159437
H27   H     H_    0.735269 0.128649 0.643355 0.130029
H28   H     H_    0.264744 0.628676 0.356638 0.130032
H29   H     H_    0.884482 0.831791 0.721961 0.129454
H30   H     H_    0.115515 0.331805 0.278038 0.129450
H31   H     H_    0.777676 0.783145 0.617479 0.121708
H32   H     H_    0.222319 0.283189 0.382523 0.121710
O11   O     O_R   0.087500 0.266000 0.085220 -0.541313
O12   O     O_R   0.912500 0.766000 0.914780 -0.541307
O13   O     O_R   0.921600 0.589950 0.070670 -0.542106
O14   O     O_R   0.078400 0.089950 0.929330 -0.542110
C41   C     C_R   0.895064 0.423195 0.086402 0.726947
C42   C     C_R   0.104936 0.923195 0.913598 0.726936
O15   O     O_R   0.087460 0.596020 0.094710 -0.541633
O16   O     O_R   0.912540 0.096020 0.905290 -0.541634
O17   O     O_R   0.079520 0.760970 0.939020 -0.538041
O18   O     O_R   0.920480 0.260970 0.060980 -0.538040
C43   C     C_R   0.116665 0.425824 0.117541 0.659122
C44   C     C_R   0.883335 0.925823 0.882458 0.659131
O19   O     O_3   0.997180 0.425140 0.948910 -0.374379
O20   O     O_3   0.002820 0.925140 0.051090 -0.374379
V3    V     V_3+5 0.000520 0.702080 0.009480 1.410803
V4    V     V_3+5 0.999480 0.202080 0.990520 1.410797
C45   C     C_2   0.379053 0.168535 0.698613 0.356817
H33   H     H_    0.375529 0.253939 0.644607 0.065565
O21   O     O_2   0.425379 0.216316 0.760019 -0.513047
C46   C     C_2   0.620942 0.668530 0.301383 0.356811
H34   H     H_    0.624462 0.753938 0.355387 0.065571
O22   O     O_2   0.574618 0.716304 0.239974 -0.513046
C47   C     C_2   0.748992 0.641030 0.886398 0.401190
H35   H     H_    0.771915 0.518157 0.859218 0.034963
O23   O     O_2   0.733946 0.626737 0.953875 -0.536575
C48   C     C_2   0.251004 0.141020 0.113598 0.401180
H36   H     H_    0.228066 0.018157 0.140770 0.034967
O24   O     O_2   0.266064 0.126721 0.046127 -0.536569

loop_
_geom_bond_atom_site_label_1
_geom_bond_atom_site_label_2
_ccdc_geom_bond_type
H18   C30   S    
C26   C48   S    
C31   C33   S    
C45   H33   S    
C11   H9    S    
C15   C17   A    
O1    C3    A    
C36   C40   S    
O2    C4    A    
C2    O7    A    
C46   O22   D    
C25   H11   S    
O5    C3    A    
C21   H3    S    
C27   C35   S    
O12   V3    S    
C32   H22   S    
C40   H26   S    
C1    C36   S    
O16   C44   A    
H20   C38   S    
C41   O18   A    
C48   H36   S    
C14   C46   S    
C33   C44   S    
C8    C12   A    
C47   H35   S    
C20   H2    S    
C18   C20   A    
C23   H7    S    
O17   V3    S    
C27   H15   S    
C26   H12   S    
C30   H30   S    
O6    V2    S    
C47   O23   D    
C5    C21   A    
C46   H34   S    
O19   V3    S    
C28   H14   S    
O13   V3    S    
C2    C35   S    
C31   H21   S    
C3    C8    S    
C30   C34   S    
C31   H23   S    
C36   C38   S    
C35   C37   S    
C25   C27   S    
C15   C23   A    
C9    C17   A    
C19   H1    S    
C27   H13   S    
C32   C34   S    
O4    V2    S    
C7    C11   A    
C28   C36   S    
C39   H25   S    
O18   V4    S    
O6    C4    A    
C32   C40   S    
O1    V2    S    
O2    V1    S    
C6    C22   A    
O14   V4    S    
O12   C44   A    
C9    H5    S    
O4    C2    A    
O14   C42   A    
C32   H24   S    
C9    C11   A    
C5    C19   A    
C22   H4    S    
C24   H8    S    
C6    C20   A    
C31   C39   S    
O19   V4    S    
O3    V1    S    
O16   V4    S    
C42   O17   A    
H19   C37   S    
C10   C18   A    
C6    C41   S    
C14   C16   A    
C5    C42   S    
C40   H28   S    
C38   H32   S    
O3    C1    A    
H17   C29   S    
C13   C15   A    
C25   C47   S    
C29   C37   S    
C16   C18   A    
O7    V1    S    
C12   H10   S    
C1    O8    A    
C17   C19   A    
O11   V4    S    
C29   H29   S    
C35   C39   S    
O11   C43   A    
C13   C45   S    
C10   H6    S    
C8    C14   A    
C4    C7    S    
O5    V1    S    
C21   C23   A    
C22   C24   A    
C25   C33   S    
C10   C12   A    
C7    C13   A    
O20   V4    S    
C48   O24   D    
O15   C43   A    
C29   C33   S    
C26   C28   S    
C16   C24   A    
C45   O21   D    
O20   V3    S    
O9    V2    S    
O13   C41   A    
O10   V1    S    
C30   C38   S    
O8    V2    S    
C26   C34   S    
O15   V3    S    
C39   H27   S    
C37   H31   S    
C28   H16   S    
C34   C43   S    
