data_mof_unit_8770.cif
_audit_creation_date              2012-12-10T22:16:28-0500
_audit_creation_method            fapswitch 2.2
_symmetry_space_group_name_H-M    P1
_symmetry_Int_Tables_number       1
_space_group_crystal_system       cubic
_cell_length_a                    26.663693
_cell_length_b                    26.663693
_cell_length_c                    26.663693
_cell_angle_alpha                 90.0
_cell_angle_beta                  90.0
_cell_angle_gamma                 90.0
_cell_volume                      18956.6198481

loop_
_atom_site_label
_atom_site_type_symbol
_atom_type_description
_atom_site_fract_x
_atom_site_fract_y
_atom_site_fract_z
_atom_type_partial_charge
C1    C     C_R   0.570922 0.297541 0.297541 0.954982
C2    C     C_R   0.429078 0.297541 0.297541 0.954982
C3    C     C_R   0.177081 0.887366 0.322919 -0.327432
C4    C     C_R   0.322919 0.112634 0.822919 -0.327433
C5    C     C_R   0.677081 0.887366 0.177081 -0.327433
C6    C     C_R   0.177081 0.112634 0.322919 -0.327433
C7    C     C_R   0.822919 0.887366 0.677081 -0.327433
C8    C     C_R   0.677081 0.887366 0.822919 -0.327432
C9    C     C_R   0.322919 0.112634 0.177081 -0.327432
C10   C     C_R   0.822919 0.887366 0.322919 -0.327433
C11   C     C_R   0.177081 0.112634 0.677081 -0.327433
C12   C     C_R   0.322919 0.887366 0.177081 -0.327433
C13   C     C_R   0.702459 0.702459 0.429078 0.954982
C14   C     C_R   0.677081 0.112634 0.822919 -0.327433
C15   C     C_R   0.177081 0.887366 0.677081 -0.327433
C16   C     C_R   0.822919 0.112634 0.322919 -0.327433
C17   C     C_R   0.887366 0.822919 0.677081 -0.327433
C18   C     C_R   0.112634 0.177081 0.322919 -0.327433
C19   C     C_R   0.887366 0.322919 0.822919 -0.327433
C20   C     C_R   0.112634 0.677081 0.177081 -0.327433
C21   C     C_R   0.887366 0.177081 0.322919 -0.327432
C22   C     C_R   0.112634 0.822919 0.677081 -0.327432
C23   C     C_R   0.887366 0.677081 0.177081 -0.327433
C24   C     C_R   0.297541 0.297541 0.570922 0.954982
C25   C     C_R   0.112634 0.322919 0.822919 -0.327433
C26   C     C_R   0.112634 0.177081 0.677081 -0.327433
C27   C     C_R   0.887366 0.822919 0.322919 -0.327433
C28   C     C_R   0.112634 0.677081 0.822919 -0.327433
C29   C     C_R   0.887366 0.322919 0.177081 -0.327433
C30   C     C_R   0.112634 0.822919 0.322919 -0.327433
C31   C     C_R   0.887366 0.177081 0.677081 -0.327433
C32   C     C_R   0.112634 0.322919 0.177081 -0.327432
C33   C     C_R   0.887366 0.677081 0.822919 -0.327432
C34   C     C_R   0.177081 0.322919 0.887366 -0.327432
C35   C     C_R   0.429078 0.702459 0.297541 0.954982
C36   C     C_R   0.822919 0.677081 0.112634 -0.327432
C37   C     C_R   0.677081 0.177081 0.887366 -0.327432
C38   C     C_R   0.322919 0.822919 0.112634 -0.327433
C39   C     C_R   0.822919 0.677081 0.887366 -0.327432
C40   C     C_R   0.177081 0.322919 0.112634 -0.327432
C41   C     C_R   0.322919 0.822919 0.887366 -0.327433
C42   C     C_R   0.677081 0.177081 0.112634 -0.327433
C43   C     C_R   0.822919 0.322919 0.112634 -0.327433
C44   C     C_R   0.177081 0.677081 0.887366 -0.327432
C45   C     C_R   0.322919 0.177081 0.112634 -0.327432
C46   C     C_R   0.570922 0.297541 0.702459 0.954982
C47   C     C_R   0.677081 0.822919 0.887366 -0.327432
C48   C     C_R   0.177081 0.677081 0.112634 -0.327433
C49   C     C_R   0.822919 0.322919 0.887366 -0.327433
C50   C     C_R   0.677081 0.822919 0.112634 -0.327432
C51   C     C_R   0.322919 0.177081 0.887366 -0.327432
C52   C     C_R   0.177081 0.612634 0.177081 -0.327433
C53   C     C_R   0.822919 0.387366 0.822919 -0.327433
C54   C     C_R   0.822919 0.612634 0.177081 -0.327432
C55   C     C_R   0.177081 0.387366 0.822919 -0.327432
C56   C     C_R   0.822919 0.612634 0.822919 -0.327433
C57   C     C_R   0.297541 0.702459 0.570922 0.954982
C58   C     C_R   0.177081 0.387366 0.177081 -0.327433
C59   C     C_R   0.177081 0.612634 0.822919 -0.327433
C60   C     C_R   0.822919 0.387366 0.177081 -0.327433
C61   C     C_R   0.387366 0.822919 0.177081 -0.327433
C62   C     C_R   0.612634 0.177081 0.822919 -0.327433
C63   C     C_R   0.387366 0.822919 0.822919 -0.327433
C64   C     C_R   0.612634 0.177081 0.177081 -0.327433
C65   C     C_R   0.387366 0.177081 0.822919 -0.327432
C66   C     C_R   0.612634 0.822919 0.177081 -0.327432
C67   C     C_R   0.387366 0.177081 0.177081 -0.327433
C68   C     C_R   0.702459 0.297541 0.429078 0.954982
C69   C     C_R   0.612634 0.822919 0.822919 -0.327433
C70   C     C_R   0.177081 0.822919 0.387366 -0.327432
C71   C     C_R   0.822919 0.177081 0.612634 -0.327432
C72   C     C_R   0.177081 0.177081 0.387366 -0.327432
C73   C     C_R   0.822919 0.822919 0.612634 -0.327433
C74   C     C_R   0.822919 0.177081 0.387366 -0.327432
C75   C     C_R   0.177081 0.822919 0.612634 -0.327432
C76   C     C_R   0.822919 0.822919 0.387366 -0.327433
C77   C     C_R   0.177081 0.177081 0.612634 -0.327433
C78   C     C_R   0.677081 0.612634 0.677081 -0.327433
C79   C     C_R   0.702459 0.429078 0.702459 0.954982
C80   C     C_R   0.322919 0.387366 0.322919 -0.327433
C81   C     C_R   0.322919 0.612634 0.677081 -0.327432
C82   C     C_R   0.677081 0.387366 0.322919 -0.327432
C83   C     C_R   0.322919 0.612634 0.322919 -0.327433
C84   C     C_R   0.677081 0.387366 0.677081 -0.327433
C85   C     C_R   0.677081 0.612634 0.322919 -0.327433
C86   C     C_R   0.322919 0.387366 0.677081 -0.327433
C87   C     C_R   0.387366 0.322919 0.677081 -0.327433
C88   C     C_R   0.612634 0.677081 0.322919 -0.327433
C89   C     C_R   0.387366 0.322919 0.322919 -0.327433
C90   C     C_R   0.297541 0.570922 0.297541 0.954982
C91   C     C_R   0.612634 0.677081 0.677081 -0.327433
C92   C     C_R   0.387366 0.677081 0.322919 -0.327432
C93   C     C_R   0.612634 0.322919 0.677081 -0.327432
C94   C     C_R   0.387366 0.677081 0.677081 -0.327433
C95   C     C_R   0.612634 0.322919 0.322919 -0.327433
C96   C     C_R   0.677081 0.322919 0.387366 -0.327432
C97   C     C_R   0.322919 0.677081 0.612634 -0.327432
C98   C     C_R   0.677081 0.677081 0.387366 -0.327432
C99   C     C_R   0.322919 0.322919 0.612634 -0.327433
C100  C     C_R   0.322919 0.677081 0.387366 -0.327432
C101  C     C_R   0.702459 0.570922 0.297541 0.954982
C102  C     C_R   0.677081 0.322919 0.612634 -0.327432
C103  C     C_R   0.322919 0.322919 0.387366 -0.327433
C104  C     C_R   0.677081 0.677081 0.612634 -0.327433
C105  C     C_R   0.698008 0.133754 0.133754 0.482213
C106  C     C_R   0.301992 0.866246 0.866246 0.482213
C107  C     C_R   0.866246 0.133754 0.698008 0.482213
C108  C     C_R   0.133754 0.866246 0.301992 0.482213
C109  C     C_R   0.301992 0.133754 0.866246 0.482213
C110  C     C_R   0.698008 0.866246 0.133754 0.482213
C111  C     C_R   0.133754 0.133754 0.301992 0.482214
C112  C     C_R   0.429078 0.702459 0.702459 0.954982
C113  C     C_R   0.297541 0.429078 0.702459 0.954982
C114  C     C_R   0.866246 0.866246 0.698008 0.482214
C115  C     C_R   0.698008 0.866246 0.866246 0.482213
C116  C     C_R   0.301992 0.133754 0.133754 0.482213
C117  C     C_R   0.866246 0.866246 0.301992 0.482214
C118  C     C_R   0.133754 0.133754 0.698008 0.482214
C119  C     C_R   0.301992 0.866246 0.133754 0.482213
C120  C     C_R   0.698008 0.133754 0.866246 0.482213
C121  C     C_R   0.133754 0.866246 0.698008 0.482213
C122  C     C_R   0.866246 0.133754 0.301992 0.482213
C123  C     C_R   0.866246 0.301992 0.866246 0.482213
C124  C     C_R   0.297541 0.570922 0.702459 0.954982
C125  C     C_R   0.133754 0.698008 0.133754 0.482213
C126  C     C_R   0.866246 0.698008 0.133754 0.482213
C127  C     C_R   0.133754 0.301992 0.866246 0.482213
C128  C     C_R   0.133754 0.698008 0.866246 0.482213
C129  C     C_R   0.866246 0.301992 0.133754 0.482213
C130  C     C_R   0.133754 0.301992 0.133754 0.482213
C131  C     C_R   0.866246 0.698008 0.866246 0.482213
C132  C     C_R   0.198008 0.633754 0.133754 0.482213
C133  C     C_R   0.801992 0.366246 0.866246 0.482213
C134  C     C_R   0.866246 0.633754 0.198008 0.482213
C135  C     C_R   0.702459 0.429078 0.297541 0.954982
C136  C     C_R   0.133754 0.366246 0.801992 0.482213
C137  C     C_R   0.801992 0.633754 0.866246 0.482213
C138  C     C_R   0.198008 0.366246 0.133754 0.482213
C139  C     C_R   0.133754 0.633754 0.801992 0.482214
C140  C     C_R   0.866246 0.366246 0.198008 0.482214
C141  C     C_R   0.198008 0.366246 0.866246 0.482213
C142  C     C_R   0.801992 0.633754 0.133754 0.482213
C143  C     C_R   0.866246 0.366246 0.801992 0.482214
C144  C     C_R   0.133754 0.633754 0.198008 0.482214
C145  C     C_R   0.801992 0.366246 0.133754 0.482213
C146  C     C_R   0.297541 0.429078 0.297541 0.954982
C147  C     C_R   0.198008 0.633754 0.866246 0.482213
C148  C     C_R   0.133754 0.366246 0.198008 0.482213
C149  C     C_R   0.866246 0.633754 0.801992 0.482213
C150  C     C_R   0.366246 0.866246 0.198008 0.482214
C151  C     C_R   0.633754 0.133754 0.801992 0.482214
C152  C     C_R   0.366246 0.801992 0.866246 0.482213
C153  C     C_R   0.633754 0.198008 0.133754 0.482213
C154  C     C_R   0.366246 0.133754 0.801992 0.482213
C155  C     C_R   0.633754 0.866246 0.198008 0.482213
C156  C     C_R   0.366246 0.198008 0.133754 0.482213
C157  C     C_R   0.702459 0.570922 0.702459 0.954982
C158  C     C_R   0.633754 0.801992 0.866246 0.482213
C159  C     C_R   0.633754 0.133754 0.198008 0.482214
C160  C     C_R   0.366246 0.866246 0.801992 0.482214
C161  C     C_R   0.633754 0.198008 0.866246 0.482213
C162  C     C_R   0.366246 0.801992 0.133754 0.482213
C163  C     C_R   0.633754 0.866246 0.801992 0.482213
C164  C     C_R   0.366246 0.133754 0.198008 0.482213
C165  C     C_R   0.633754 0.801992 0.133754 0.482213
C166  C     C_R   0.366246 0.198008 0.866246 0.482213
C167  C     C_R   0.133754 0.801992 0.366246 0.482213
C168  C     C_R   0.070922 0.797541 0.297541 0.954982
C169  C     C_R   0.866246 0.198008 0.633754 0.482213
C170  C     C_R   0.198008 0.133754 0.366246 0.482213
C171  C     C_R   0.801992 0.866246 0.633754 0.482213
C172  C     C_R   0.866246 0.198008 0.366246 0.482213
C173  C     C_R   0.133754 0.801992 0.633754 0.482213
C174  C     C_R   0.801992 0.866246 0.366246 0.482213
C175  C     C_R   0.198008 0.133754 0.633754 0.482213
C176  C     C_R   0.866246 0.801992 0.633754 0.482213
C177  C     C_R   0.133754 0.198008 0.366246 0.482213
C178  C     C_R   0.801992 0.133754 0.633754 0.482213
C179  C     C_R   0.929078 0.202459 0.702459 0.954982
C180  C     C_R   0.198008 0.866246 0.366246 0.482213
C181  C     C_R   0.133754 0.198008 0.633754 0.482213
C182  C     C_R   0.866246 0.801992 0.366246 0.482213
C183  C     C_R   0.198008 0.866246 0.633754 0.482213
C184  C     C_R   0.801992 0.133754 0.366246 0.482213
C185  C     C_R   0.698008 0.633754 0.633754 0.482213
C186  C     C_R   0.301992 0.366246 0.366246 0.482213
C187  C     C_R   0.366246 0.633754 0.698008 0.482213
C188  C     C_R   0.633754 0.366246 0.301992 0.482213
C189  C     C_R   0.301992 0.633754 0.366246 0.482213
C190  C     C_R   0.702459 0.797541 0.070922 0.954982
C191  C     C_R   0.698008 0.366246 0.633754 0.482213
C192  C     C_R   0.633754 0.633754 0.301992 0.482214
C193  C     C_R   0.366246 0.366246 0.698008 0.482214
C194  C     C_R   0.698008 0.366246 0.366246 0.482213
C195  C     C_R   0.301992 0.633754 0.633754 0.482213
C196  C     C_R   0.366246 0.366246 0.301992 0.482214
C197  C     C_R   0.633754 0.633754 0.698008 0.482214
C198  C     C_R   0.301992 0.366246 0.633754 0.482213
C199  C     C_R   0.698008 0.633754 0.366246 0.482213
C200  C     C_R   0.633754 0.366246 0.698008 0.482213
C201  C     C_R   0.297541 0.202459 0.929078 0.954982
C202  C     C_R   0.366246 0.633754 0.301992 0.482213
C203  C     C_R   0.366246 0.301992 0.366246 0.482213
C204  C     C_R   0.633754 0.698008 0.633754 0.482213
C205  C     C_R   0.366246 0.698008 0.633754 0.482213
C206  C     C_R   0.633754 0.301992 0.366246 0.482213
C207  C     C_R   0.633754 0.698008 0.366246 0.482213
C208  C     C_R   0.366246 0.301992 0.633754 0.482213
C209  C     C_R   0.633754 0.301992 0.633754 0.482213
C210  C     C_R   0.366246 0.698008 0.366246 0.482213
C211  C     C_R   0.929078 0.797541 0.702459 0.954982
C212  C     C_R   0.702459 0.297541 0.570922 0.954982
C213  C     C_R   0.070922 0.202459 0.297541 0.954982
C214  C     C_R   0.297541 0.797541 0.929078 0.954982
C215  C     C_R   0.702459 0.202459 0.070922 0.954982
C216  C     C_R   0.070922 0.202459 0.702459 0.954982
C217  C     C_R   0.929078 0.797541 0.297541 0.954982
C218  C     C_R   0.702459 0.202459 0.929078 0.954982
C219  C     C_R   0.297541 0.797541 0.070922 0.954982
C220  C     C_R   0.929078 0.202459 0.297541 0.954982
C221  C     C_R   0.070922 0.797541 0.702459 0.954982
C222  C     C_R   0.297541 0.202459 0.070922 0.954982
C223  C     C_R   0.297541 0.702459 0.429078 0.954982
C224  C     C_R   0.702459 0.797541 0.929078 0.954982
C225  C     C_R   0.202459 0.702459 0.070922 0.954982
C226  C     C_R   0.797541 0.297541 0.929078 0.954982
C227  C     C_R   0.202459 0.929078 0.702459 0.954982
C228  C     C_R   0.797541 0.070922 0.297541 0.954982
C229  C     C_R   0.202459 0.297541 0.929078 0.954982
C230  C     C_R   0.797541 0.702459 0.070922 0.954982
C231  C     C_R   0.202459 0.070922 0.297541 0.954982
C232  C     C_R   0.797541 0.929078 0.702459 0.954982
C233  C     C_R   0.797541 0.297541 0.070922 0.954982
C234  C     C_R   0.429078 0.297541 0.702459 0.954982
C235  C     C_R   0.202459 0.702459 0.929078 0.954982
C236  C     C_R   0.797541 0.070922 0.702459 0.954982
C237  C     C_R   0.202459 0.929078 0.297541 0.954982
C238  C     C_R   0.797541 0.702459 0.929078 0.954982
C239  C     C_R   0.202459 0.297541 0.070922 0.954982
C240  C     C_R   0.797541 0.929078 0.297541 0.954982
C241  C     C_R   0.202459 0.070922 0.702459 0.954982
C242  C     C_R   0.297541 0.929078 0.202459 0.954982
C243  C     C_R   0.702459 0.070922 0.797541 0.954982
C244  C     C_R   0.070922 0.297541 0.202459 0.954982
C245  C     C_R   0.570922 0.702459 0.297541 0.954982
C246  C     C_R   0.929078 0.702459 0.797541 0.954982
C247  C     C_R   0.702459 0.070922 0.202459 0.954982
C248  C     C_R   0.297541 0.929078 0.797541 0.954982
C249  C     C_R   0.929078 0.702459 0.202459 0.954982
C250  C     C_R   0.070922 0.297541 0.797541 0.954982
C251  C     C_R   0.702459 0.929078 0.797541 0.954982
C252  C     C_R   0.297541 0.070922 0.202459 0.954982
C253  C     C_R   0.929078 0.297541 0.797541 0.954982
C254  C     C_R   0.070922 0.702459 0.202459 0.954982
C255  C     C_R   0.297541 0.070922 0.797541 0.954982
C256  C     C_R   0.297541 0.297541 0.429078 0.954982
C257  C     C_R   0.702459 0.929078 0.202459 0.954982
C258  C     C_R   0.070922 0.702459 0.797541 0.954982
C259  C     C_R   0.929078 0.297541 0.202459 0.954982
C260  C     C_R   0.570922 0.797541 0.797541 0.954982
C261  C     C_R   0.429078 0.202459 0.202459 0.954982
C262  C     C_R   0.202459 0.797541 0.570922 0.954982
C263  C     C_R   0.797541 0.202459 0.429078 0.954982
C264  C     C_R   0.429078 0.797541 0.202459 0.954982
C265  C     C_R   0.570922 0.202459 0.797541 0.954982
C266  C     C_R   0.797541 0.797541 0.429078 0.954982
C267  C     C_R   0.702459 0.702459 0.570922 0.954982
C268  C     C_R   0.202459 0.202459 0.570922 0.954982
C269  C     C_R   0.570922 0.202459 0.202459 0.954982
C270  C     C_R   0.429078 0.797541 0.797541 0.954982
C271  C     C_R   0.202459 0.202459 0.429078 0.954982
C272  C     C_R   0.797541 0.797541 0.570922 0.954982
C273  C     C_R   0.429078 0.202459 0.797541 0.954982
C274  C     C_R   0.570922 0.797541 0.202459 0.954982
C275  C     C_R   0.797541 0.202459 0.570922 0.954982
C276  C     C_R   0.202459 0.797541 0.429078 0.954982
C277  C     C_R   0.202459 0.429078 0.202459 0.954982
C278  C     C_R   0.570922 0.702459 0.702459 0.954982
C279  C     C_R   0.797541 0.570922 0.797541 0.954982
C280  C     C_R   0.202459 0.570922 0.797541 0.954982
C281  C     C_R   0.797541 0.429078 0.202459 0.954982
C282  C     C_R   0.797541 0.570922 0.202459 0.954982
C283  C     C_R   0.202459 0.429078 0.797541 0.954982
C284  C     C_R   0.797541 0.429078 0.797541 0.954982
C285  C     C_R   0.202459 0.570922 0.202459 0.954982
C286  C     C_R   0.677081 0.112634 0.177081 -0.327433
C287  C     C_R   0.322919 0.887366 0.822919 -0.327433
C288  C     C_R   0.822919 0.112634 0.677081 -0.327432
F1    F     F_    0.739483 0.112773 0.112773 -0.587564
F2    F     F_    0.260517 0.112773 0.112773 -0.587565
F3    F     F_    0.887227 0.887227 0.260517 -0.587565
F4    F     F_    0.112773 0.112773 0.739483 -0.587565
F5    F     F_    0.260517 0.887227 0.112773 -0.587564
F6    F     F_    0.739483 0.112773 0.887227 -0.587564
F7    F     F_    0.112773 0.887227 0.739483 -0.587565
F8    F     F_    0.887227 0.112773 0.260517 -0.587565
F9    F     F_    0.887227 0.260517 0.887227 -0.587564
F10   F     F_    0.112773 0.739483 0.112773 -0.587564
F11   F     F_    0.887227 0.739483 0.112773 -0.587565
F12   F     F_    0.260517 0.887227 0.887227 -0.587564
F13   F     F_    0.112773 0.260517 0.887227 -0.587565
F14   F     F_    0.112773 0.739483 0.887227 -0.587564
F15   F     F_    0.887227 0.260517 0.112773 -0.587564
F16   F     F_    0.112773 0.260517 0.112773 -0.587565
F17   F     F_    0.887227 0.739483 0.887227 -0.587565
F18   F     F_    0.239483 0.612773 0.112773 -0.587564
F19   F     F_    0.760517 0.387227 0.887227 -0.587564
F20   F     F_    0.887227 0.612773 0.239483 -0.587565
F21   F     F_    0.112773 0.387227 0.760517 -0.587565
F22   F     F_    0.760517 0.612773 0.887227 -0.587565
F23   F     F_    0.887227 0.112773 0.739483 -0.587565
F24   F     F_    0.239483 0.387227 0.112773 -0.587565
F25   F     F_    0.112773 0.612773 0.760517 -0.587565
F26   F     F_    0.887227 0.387227 0.239483 -0.587565
F27   F     F_    0.239483 0.387227 0.887227 -0.587565
F28   F     F_    0.760517 0.612773 0.112773 -0.587565
F29   F     F_    0.887227 0.387227 0.760517 -0.587565
F30   F     F_    0.112773 0.612773 0.239483 -0.587565
F31   F     F_    0.760517 0.387227 0.112773 -0.587564
F32   F     F_    0.239483 0.612773 0.887227 -0.587564
F33   F     F_    0.112773 0.387227 0.239483 -0.587565
F34   F     F_    0.112773 0.887227 0.260517 -0.587565
F35   F     F_    0.887227 0.612773 0.760517 -0.587565
F36   F     F_    0.387227 0.887227 0.239483 -0.587565
F37   F     F_    0.612773 0.112773 0.760517 -0.587565
F38   F     F_    0.387227 0.760517 0.887227 -0.587564
F39   F     F_    0.612773 0.239483 0.112773 -0.587564
F40   F     F_    0.387227 0.112773 0.760517 -0.587565
F41   F     F_    0.612773 0.887227 0.239483 -0.587565
F42   F     F_    0.387227 0.239483 0.112773 -0.587565
F43   F     F_    0.612773 0.760517 0.887227 -0.587565
F44   F     F_    0.612773 0.112773 0.239483 -0.587565
F45   F     F_    0.260517 0.112773 0.887227 -0.587565
F46   F     F_    0.387227 0.887227 0.760517 -0.587565
F47   F     F_    0.612773 0.239483 0.887227 -0.587564
F48   F     F_    0.387227 0.760517 0.112773 -0.587564
F49   F     F_    0.612773 0.887227 0.760517 -0.587565
F50   F     F_    0.387227 0.112773 0.239483 -0.587565
F51   F     F_    0.612773 0.760517 0.112773 -0.587565
F52   F     F_    0.387227 0.239483 0.887227 -0.587565
F53   F     F_    0.112773 0.760517 0.387227 -0.587565
F54   F     F_    0.887227 0.239483 0.612773 -0.587565
F55   F     F_    0.239483 0.112773 0.387227 -0.587564
F56   F     F_    0.739483 0.887227 0.112773 -0.587565
F57   F     F_    0.760517 0.887227 0.612773 -0.587564
F58   F     F_    0.887227 0.239483 0.387227 -0.587565
F59   F     F_    0.112773 0.760517 0.612773 -0.587565
F60   F     F_    0.760517 0.887227 0.387227 -0.587564
F61   F     F_    0.239483 0.112773 0.612773 -0.587564
F62   F     F_    0.887227 0.760517 0.612773 -0.587564
F63   F     F_    0.112773 0.239483 0.387227 -0.587564
F64   F     F_    0.760517 0.112773 0.612773 -0.587565
F65   F     F_    0.239483 0.887227 0.387227 -0.587565
F66   F     F_    0.112773 0.239483 0.612773 -0.587564
F67   F     F_    0.112773 0.112773 0.260517 -0.587565
F68   F     F_    0.887227 0.760517 0.387227 -0.587564
F69   F     F_    0.239483 0.887227 0.612773 -0.587565
F70   F     F_    0.760517 0.112773 0.387227 -0.587565
F71   F     F_    0.739483 0.612773 0.612773 -0.587564
F72   F     F_    0.260517 0.387227 0.387227 -0.587564
F73   F     F_    0.387227 0.612773 0.739483 -0.587565
F74   F     F_    0.612773 0.387227 0.260517 -0.587565
F75   F     F_    0.260517 0.612773 0.387227 -0.587565
F76   F     F_    0.739483 0.387227 0.612773 -0.587565
F77   F     F_    0.612773 0.612773 0.260517 -0.587565
F78   F     F_    0.887227 0.887227 0.739483 -0.587565
F79   F     F_    0.387227 0.387227 0.739483 -0.587565
F80   F     F_    0.739483 0.387227 0.387227 -0.587565
F81   F     F_    0.260517 0.612773 0.612773 -0.587565
F82   F     F_    0.387227 0.387227 0.260517 -0.587565
F83   F     F_    0.612773 0.612773 0.739483 -0.587565
F84   F     F_    0.260517 0.387227 0.612773 -0.587564
F85   F     F_    0.739483 0.612773 0.387227 -0.587564
F86   F     F_    0.612773 0.387227 0.739483 -0.587565
F87   F     F_    0.387227 0.612773 0.260517 -0.587565
F88   F     F_    0.387227 0.260517 0.387227 -0.587564
F89   F     F_    0.739483 0.887227 0.887227 -0.587565
F90   F     F_    0.612773 0.739483 0.612773 -0.587564
F91   F     F_    0.387227 0.739483 0.612773 -0.587565
F92   F     F_    0.612773 0.260517 0.387227 -0.587565
F93   F     F_    0.612773 0.739483 0.387227 -0.587564
F94   F     F_    0.387227 0.260517 0.612773 -0.587564
F95   F     F_    0.612773 0.260517 0.612773 -0.587565
F96   F     F_    0.387227 0.739483 0.387227 -0.587565
O1    O     O_R   0.553790 0.256330 0.314650 -0.559715
O2    O     O_R   0.446210 0.256330 0.314650 -0.559715
O3    O     O_R   0.814650 0.743670 0.946210 -0.559715
O4    O     O_R   0.946210 0.256330 0.185350 -0.559715
O5    O     O_R   0.053790 0.743670 0.814650 -0.559715
O6    O     O_R   0.814650 0.256330 0.946210 -0.559715
O7    O     O_R   0.185350 0.743670 0.053790 -0.559716
O8    O     O_R   0.053790 0.743670 0.185350 -0.559715
O9    O     O_R   0.946210 0.256330 0.814650 -0.559715
O10   O     O_R   0.185350 0.743670 0.946210 -0.559715
O11   O     O_R   0.814650 0.256330 0.053790 -0.559716
O12   O     O_R   0.946210 0.743670 0.814650 -0.559715
O13   O     O_R   0.685350 0.743670 0.446210 -0.559715
O14   O     O_R   0.053790 0.256330 0.185350 -0.559715
O15   O     O_R   0.814650 0.743670 0.053790 -0.559715
O16   O     O_R   0.185350 0.256330 0.946210 -0.559715
O17   O     O_R   0.743670 0.185350 0.053790 -0.559716
O18   O     O_R   0.256330 0.814650 0.946210 -0.559715
O19   O     O_R   0.743670 0.946210 0.185350 -0.559715
O20   O     O_R   0.256330 0.053790 0.814650 -0.559715
O21   O     O_R   0.743670 0.814650 0.946210 -0.559715
O22   O     O_R   0.256330 0.185350 0.053790 -0.559715
O23   O     O_R   0.743670 0.053790 0.814650 -0.559715
O24   O     O_R   0.314650 0.256330 0.553790 -0.559716
O25   O     O_R   0.256330 0.946210 0.185350 -0.559715
O26   O     O_R   0.256330 0.814650 0.053790 -0.559716
O27   O     O_R   0.743670 0.185350 0.946210 -0.559715
O28   O     O_R   0.256330 0.053790 0.185350 -0.559715
O29   O     O_R   0.743670 0.946210 0.814650 -0.559715
O30   O     O_R   0.256330 0.185350 0.946210 -0.559715
O31   O     O_R   0.743670 0.814650 0.053790 -0.559715
O32   O     O_R   0.256330 0.946210 0.814650 -0.559715
O33   O     O_R   0.743670 0.053790 0.185350 -0.559715
O34   O     O_R   0.814650 0.946210 0.743670 -0.559715
O35   O     O_R   0.446210 0.743670 0.314650 -0.559715
O36   O     O_R   0.185350 0.053790 0.256330 -0.559715
O37   O     O_R   0.053790 0.814650 0.743670 -0.559715
O38   O     O_R   0.946210 0.185350 0.256330 -0.559715
O39   O     O_R   0.185350 0.053790 0.743670 -0.559715
O40   O     O_R   0.814650 0.946210 0.256330 -0.559715
O41   O     O_R   0.946210 0.185350 0.743670 -0.559715
O42   O     O_R   0.053790 0.814650 0.256330 -0.559715
O43   O     O_R   0.185350 0.946210 0.256330 -0.559715
O44   O     O_R   0.814650 0.053790 0.743670 -0.559715
O45   O     O_R   0.946210 0.814650 0.256330 -0.559715
O46   O     O_R   0.553790 0.256330 0.685350 -0.559715
O47   O     O_R   0.053790 0.185350 0.743670 -0.559715
O48   O     O_R   0.814650 0.053790 0.256330 -0.559715
O49   O     O_R   0.185350 0.946210 0.743670 -0.559715
O50   O     O_R   0.053790 0.185350 0.256330 -0.559715
O51   O     O_R   0.946210 0.814650 0.743670 -0.559715
O52   O     O_R   0.553790 0.756330 0.814650 -0.559715
O53   O     O_R   0.446210 0.243670 0.185350 -0.559715
O54   O     O_R   0.185350 0.756330 0.553790 -0.559715
O55   O     O_R   0.814650 0.243670 0.446210 -0.559715
O56   O     O_R   0.446210 0.756330 0.185350 -0.559715
O57   O     O_R   0.314650 0.743670 0.553790 -0.559715
O58   O     O_R   0.553790 0.243670 0.814650 -0.559715
O59   O     O_R   0.814650 0.756330 0.446210 -0.559715
O60   O     O_R   0.185350 0.243670 0.553790 -0.559716
O61   O     O_R   0.553790 0.243670 0.185350 -0.559715
O62   O     O_R   0.446210 0.756330 0.814650 -0.559715
O63   O     O_R   0.185350 0.243670 0.446210 -0.559715
O64   O     O_R   0.814650 0.756330 0.553790 -0.559716
O65   O     O_R   0.446210 0.243670 0.814650 -0.559715
O66   O     O_R   0.553790 0.756330 0.185350 -0.559715
O67   O     O_R   0.814650 0.243670 0.553790 -0.559715
O68   O     O_R   0.685350 0.256330 0.446210 -0.559715
O69   O     O_R   0.185350 0.756330 0.446210 -0.559715
O70   O     O_R   0.243670 0.185350 0.553790 -0.559716
O71   O     O_R   0.756330 0.814650 0.446210 -0.559715
O72   O     O_R   0.243670 0.446210 0.185350 -0.559715
O73   O     O_R   0.756330 0.553790 0.814650 -0.559715
O74   O     O_R   0.243670 0.814650 0.446210 -0.559715
O75   O     O_R   0.756330 0.185350 0.553790 -0.559715
O76   O     O_R   0.243670 0.553790 0.814650 -0.559715
O77   O     O_R   0.756330 0.446210 0.185350 -0.559715
O78   O     O_R   0.756330 0.814650 0.553790 -0.559716
O79   O     O_R   0.743670 0.685350 0.553790 -0.559716
O80   O     O_R   0.243670 0.185350 0.446210 -0.559715
O81   O     O_R   0.756330 0.553790 0.185350 -0.559715
O82   O     O_R   0.243670 0.446210 0.814650 -0.559715
O83   O     O_R   0.756330 0.185350 0.446210 -0.559715
O84   O     O_R   0.243670 0.814650 0.553790 -0.559715
O85   O     O_R   0.756330 0.446210 0.814650 -0.559715
O86   O     O_R   0.243670 0.553790 0.185350 -0.559715
O87   O     O_R   0.814650 0.446210 0.243670 -0.559715
O88   O     O_R   0.185350 0.553790 0.756330 -0.559715
O89   O     O_R   0.553790 0.814650 0.243670 -0.559715
O90   O     O_R   0.256330 0.314650 0.446210 -0.559715
O91   O     O_R   0.446210 0.185350 0.756330 -0.559715
O92   O     O_R   0.185350 0.553790 0.243670 -0.559715
O93   O     O_R   0.814650 0.446210 0.756330 -0.559715
O94   O     O_R   0.446210 0.185350 0.243670 -0.559715
O95   O     O_R   0.553790 0.814650 0.756330 -0.559715
O96   O     O_R   0.185350 0.446210 0.756330 -0.559715
O97   O     O_R   0.814650 0.553790 0.243670 -0.559715
O98   O     O_R   0.446210 0.814650 0.756330 -0.559715
O99   O     O_R   0.553790 0.185350 0.243670 -0.559715
O100  O     O_R   0.814650 0.553790 0.756330 -0.559715
O101  O     O_R   0.743670 0.446210 0.685350 -0.559715
O102  O     O_R   0.185350 0.446210 0.243670 -0.559715
O103  O     O_R   0.553790 0.185350 0.756330 -0.559715
O104  O     O_R   0.446210 0.814650 0.243670 -0.559715
O105  O     O_R   0.446210 0.743670 0.685350 -0.559715
O106  O     O_R   0.256330 0.553790 0.314650 -0.559715
O107  O     O_R   0.743670 0.314650 0.446210 -0.559715
O108  O     O_R   0.256330 0.685350 0.553790 -0.559715
O109  O     O_R   0.743670 0.553790 0.314650 -0.559715
O110  O     O_R   0.256330 0.446210 0.685350 -0.559715
O111  O     O_R   0.256330 0.314650 0.553790 -0.559716
O112  O     O_R   0.743670 0.685350 0.446210 -0.559715
O113  O     O_R   0.256330 0.553790 0.685350 -0.559715
O114  O     O_R   0.743670 0.446210 0.314650 -0.559715
O115  O     O_R   0.256330 0.685350 0.446210 -0.559715
O116  O     O_R   0.685350 0.256330 0.553790 -0.559715
O117  O     O_R   0.743670 0.314650 0.553790 -0.559715
O118  O     O_R   0.256330 0.446210 0.314650 -0.559715
O119  O     O_R   0.743670 0.553790 0.685350 -0.559715
O120  O     O_R   0.314650 0.446210 0.743670 -0.559715
O121  O     O_R   0.685350 0.553790 0.256330 -0.559715
O122  O     O_R   0.553790 0.314650 0.743670 -0.559715
O123  O     O_R   0.446210 0.685350 0.256330 -0.559715
O124  O     O_R   0.685350 0.553790 0.743670 -0.559715
O125  O     O_R   0.314650 0.446210 0.256330 -0.559715
O126  O     O_R   0.446210 0.685350 0.743670 -0.559715
O127  O     O_R   0.314650 0.743670 0.446210 -0.559715
O128  O     O_R   0.553790 0.314650 0.256330 -0.559715
O129  O     O_R   0.685350 0.446210 0.256330 -0.559715
O130  O     O_R   0.314650 0.553790 0.743670 -0.559715
O131  O     O_R   0.446210 0.314650 0.256330 -0.559715
O132  O     O_R   0.553790 0.685350 0.743670 -0.559715
O133  O     O_R   0.314650 0.553790 0.256330 -0.559715
O134  O     O_R   0.685350 0.446210 0.743670 -0.559715
O135  O     O_R   0.553790 0.685350 0.256330 -0.559715
O136  O     O_R   0.446210 0.314650 0.743670 -0.559715
O137  O     O_R   0.053790 0.756330 0.314650 -0.559715
O138  O     O_R   0.446210 0.256330 0.685350 -0.559715
O139  O     O_R   0.946210 0.243670 0.685350 -0.559715
O140  O     O_R   0.685350 0.756330 0.053790 -0.559715
O141  O     O_R   0.314650 0.243670 0.946210 -0.559715
O142  O     O_R   0.946210 0.756330 0.685350 -0.559715
O143  O     O_R   0.053790 0.243670 0.314650 -0.559715
O144  O     O_R   0.314650 0.756330 0.946210 -0.559715
O145  O     O_R   0.685350 0.243670 0.053790 -0.559716
O146  O     O_R   0.053790 0.243670 0.685350 -0.559715
O147  O     O_R   0.946210 0.756330 0.314650 -0.559715
O148  O     O_R   0.685350 0.243670 0.946210 -0.559715
O149  O     O_R   0.553790 0.743670 0.314650 -0.559715
O150  O     O_R   0.314650 0.756330 0.053790 -0.559716
O151  O     O_R   0.946210 0.243670 0.314650 -0.559715
O152  O     O_R   0.053790 0.756330 0.685350 -0.559715
O153  O     O_R   0.314650 0.243670 0.053790 -0.559715
O154  O     O_R   0.685350 0.756330 0.946210 -0.559715
O155  O     O_R   0.243670 0.685350 0.053790 -0.559716
O156  O     O_R   0.756330 0.314650 0.946210 -0.559715
O157  O     O_R   0.243670 0.946210 0.685350 -0.559715
O158  O     O_R   0.756330 0.053790 0.314650 -0.559715
O159  O     O_R   0.243670 0.314650 0.946210 -0.559715
O160  O     O_R   0.314650 0.256330 0.446210 -0.559715
O161  O     O_R   0.756330 0.685350 0.053790 -0.559715
O162  O     O_R   0.243670 0.053790 0.314650 -0.559715
O163  O     O_R   0.756330 0.946210 0.685350 -0.559715
O164  O     O_R   0.756330 0.314650 0.053790 -0.559716
O165  O     O_R   0.243670 0.685350 0.946210 -0.559715
O166  O     O_R   0.756330 0.053790 0.685350 -0.559715
O167  O     O_R   0.243670 0.946210 0.314650 -0.559715
O168  O     O_R   0.756330 0.685350 0.946210 -0.559715
O169  O     O_R   0.243670 0.314650 0.053790 -0.559715
O170  O     O_R   0.756330 0.946210 0.314650 -0.559715
O171  O     O_R   0.685350 0.743670 0.553790 -0.559716
O172  O     O_R   0.243670 0.053790 0.685350 -0.559715
O173  O     O_R   0.314650 0.946210 0.243670 -0.559715
O174  O     O_R   0.685350 0.053790 0.756330 -0.559715
O175  O     O_R   0.053790 0.314650 0.243670 -0.559715
O176  O     O_R   0.946210 0.685350 0.756330 -0.559715
O177  O     O_R   0.685350 0.053790 0.243670 -0.559715
O178  O     O_R   0.314650 0.946210 0.756330 -0.559715
O179  O     O_R   0.946210 0.685350 0.243670 -0.559715
O180  O     O_R   0.053790 0.314650 0.756330 -0.559715
O181  O     O_R   0.685350 0.946210 0.756330 -0.559715
O182  O     O_R   0.553790 0.743670 0.685350 -0.559715
O183  O     O_R   0.314650 0.053790 0.243670 -0.559715
O184  O     O_R   0.946210 0.314650 0.756330 -0.559715
O185  O     O_R   0.053790 0.685350 0.243670 -0.559715
O186  O     O_R   0.314650 0.053790 0.756330 -0.559715
O187  O     O_R   0.685350 0.946210 0.243670 -0.559715
O188  O     O_R   0.053790 0.685350 0.756330 -0.559715
O189  O     O_R   0.946210 0.314650 0.243670 -0.559715
O190  O     O_R   0.053790 0.256330 0.814650 -0.559715
O191  O     O_R   0.946210 0.743670 0.185350 -0.559715
O192  O     O_R   0.185350 0.256330 0.053790 -0.559715
Zn1   Zn    Zn3+2 0.500000 0.210530 0.289470 1.194465
Zn2   Zn    Zn3+2 0.210530 0.289470 0.500000 1.194464
Zn3   Zn    Zn3+2 0.789470 0.500000 0.710530 1.194465
Zn4   Zn    Zn3+2 0.210530 0.500000 0.289470 1.194465
Zn5   Zn    Zn3+2 0.789470 0.289470 0.500000 1.194465
Zn6   Zn    Zn3+2 0.210530 0.710530 0.500000 1.194465
Zn7   Zn    Zn3+2 0.789470 0.500000 0.289470 1.194465
Zn8   Zn    Zn3+2 0.210530 0.500000 0.710530 1.194465
Zn9   Zn    Zn3+2 0.289470 0.500000 0.789470 1.194465
Zn10  Zn    Zn3+2 0.710530 0.500000 0.210530 1.194465
Zn11  Zn    Zn3+2 0.500000 0.289470 0.789470 1.194465
Zn12  Zn    Zn3+2 0.500000 0.789470 0.710530 1.194465
Zn13  Zn    Zn3+2 0.500000 0.710530 0.210530 1.194465
Zn14  Zn    Zn3+2 0.710530 0.500000 0.789470 1.194465
Zn15  Zn    Zn3+2 0.289470 0.500000 0.210530 1.194465
Zn16  Zn    Zn3+2 0.500000 0.710530 0.789470 1.194465
Zn17  Zn    Zn3+2 0.500000 0.289470 0.210530 1.194465
Zn18  Zn    Zn3+2 1.000000 0.710530 0.289470 1.194465
Zn19  Zn    Zn3+2 1.000000 0.289470 0.710530 1.194465
Zn20  Zn    Zn3+2 0.710530 0.710530 0.000000 1.194465
Zn21  Zn    Zn3+2 0.289470 0.289470 0.000000 1.194465
Zn22  Zn    Zn3+2 1.000000 0.710530 0.710530 1.194465
Zn23  Zn    Zn3+2 0.710530 0.210530 0.500000 1.194465
Zn24  Zn    Zn3+2 1.000000 0.289470 0.289470 1.194465
Zn25  Zn    Zn3+2 0.289470 0.710530 0.000000 1.194464
Zn26  Zn    Zn3+2 0.710530 0.289470 0.000000 1.194464
Zn27  Zn    Zn3+2 0.289470 1.000000 0.710530 1.194465
Zn28  Zn    Zn3+2 0.710530 0.000000 0.289470 1.194465
Zn29  Zn    Zn3+2 0.289470 0.000000 0.289470 1.194465
Zn30  Zn    Zn3+2 0.710530 1.000000 0.710530 1.194465
Zn31  Zn    Zn3+2 1.000000 0.210530 0.789470 1.194465
Zn32  Zn    Zn3+2 1.000000 0.789470 0.210530 1.194465
Zn33  Zn    Zn3+2 0.210530 0.210530 0.000000 1.194465
Zn34  Zn    Zn3+2 0.289470 0.789470 0.500000 1.194465
Zn35  Zn    Zn3+2 0.789470 0.789470 0.000000 1.194465
Zn36  Zn    Zn3+2 0.000000 0.210530 0.210530 1.194465
Zn37  Zn    Zn3+2 1.000000 0.789470 0.789470 1.194465
Zn38  Zn    Zn3+2 0.789470 0.210530 0.000000 1.194464
Zn39  Zn    Zn3+2 0.210530 0.789470 0.000000 1.194464
Zn40  Zn    Zn3+2 0.789470 0.000000 0.210530 1.194465
Zn41  Zn    Zn3+2 0.210530 1.000000 0.789470 1.194465
Zn42  Zn    Zn3+2 0.789470 1.000000 0.789470 1.194465
Zn43  Zn    Zn3+2 0.210530 0.000000 0.210530 1.194465
Zn44  Zn    Zn3+2 0.500000 0.210530 0.710530 1.194465
Zn45  Zn    Zn3+2 0.500000 0.789470 0.289470 1.194465
Zn46  Zn    Zn3+2 0.289470 0.210530 0.500000 1.194464
Zn47  Zn    Zn3+2 0.710530 0.789470 0.500000 1.194464
Zn48  Zn    Zn3+2 0.789470 0.710530 0.500000 1.194464

loop_
_geom_bond_atom_site_label_1
_geom_bond_atom_site_label_2
_ccdc_geom_bond_type
C10   C174  A    
C238  O168  A    
C8    C251  S    
C54   C282  S    
O128  Zn17  S    
C20   C144  A    
O27   Zn38  S    
C112  O126  A    
O90   Zn2   S    
C255  O20   A    
O84   Zn34  S    
C254  O8    A    
C35   O123  A    
C195  F81   S    
C214  O144  A    
C68   O68   A    
C201  O141  A    
C157  O119  A    
C52   C144  A    
C24   O111  A    
C208  F94   S    
C53   C284  S    
C45   C222  S    
C214  O18   A    
C37   C161  A    
C113  O110  A    
C63   C270  S    
O121  Zn10  S    
C40   C239  S    
C62   C265  S    
C248  O32   A    
C66   C155  A    
C189  F75   S    
C244  O14   A    
C30   C168  S    
C262  O84   A    
C160  F46   S    
C54   C134  A    
C50   C110  A    
C269  O61   A    
O96   Zn8   S    
O80   Zn46  S    
C119  F5    S    
C16   C122  A    
C165  F51   S    
C236  O166  A    
C251  O29   A    
C253  O9    A    
C48   C125  A    
C155  F41   S    
C67   C164  A    
C46   O122  A    
C18   C177  A    
C196  F82   S    
C34   C127  A    
C21   C220  S    
C40   C138  A    
C14   C151  A    
C77   C181  A    
O147  Zn18  S    
O186  Zn27  S    
O137  Zn18  S    
C74   C263  S    
C80   C146  S    
C239  O192  A    
C51   C109  A    
O82   Zn9   S    
C59   C280  S    
C55   C283  S    
C103  C256  S    
O30   Zn33  S    
C237  O43   A    
C171  F57   S    
C176  F62   S    
O79   Zn48  S    
O42   Zn32  S    
C2    O2    A    
C95   C188  A    
O119  Zn3   S    
C7    C232  S    
C27   C117  A    
O108  Zn6   S    
C80   C196  A    
C22   C221  S    
O64   Zn48  S    
C258  O5    A    
O110  Zn8   S    
C259  O4    A    
C52   C132  A    
C12   C150  A    
C93   C200  A    
C53   C133  A    
C18   C111  A    
C229  O159  A    
O13   Zn47  S    
O161  Zn20  S    
O188  Zn22  S    
O76   Zn9   S    
C221  O152  A    
O61   Zn17  S    
O28   Zn43  S    
O139  Zn19  S    
C124  O113  A    
C5    C155  A    
C65   C166  A    
C283  O82   A    
C15   C227  S    
C67   C156  A    
C239  O169  A    
O180  Zn19  S    
C47   C115  A    
C43   C145  A    
O31   Zn35  S    
O9    Zn31  S    
C263  O83   A    
O35   Zn45  S    
C211  O51   A    
C114  F78   S    
C57   C97   S    
C50   C165  A    
C102  C191  A    
C207  F93   S    
O63   Zn2   S    
C33   C246  S    
O160  Zn46  S    
C86   C198  A    
C69   C260  S    
C38   C119  A    
C12   C242  S    
O114  Zn7   S    
C69   C163  A    
C258  O188  A    
C199  F85   S    
C277  O72   A    
O34   Zn42  S    
C104  C204  A    
O157  Zn27  S    
C7    C114  A    
O184  Zn19  S    
C73   C171  A    
C49   C133  A    
C190  O31   A    
C16   C228  S    
O49   Zn41  S    
C281  O87   A    
C9    C116  A    
C31   C107  A    
C242  O173  A    
C36   C126  A    
C111  F67   S    
C219  O150  A    
C16   C184  A    
C13   O13   A    
O26   Zn39  S    
C243  O174  A    
C21   C172  A    
O70   Zn46  S    
O165  Zn25  S    
C178  C288  A    
C97   C195  A    
C168  O42   A    
C143  F29   S    
C124  O130  A    
C20   C125  A    
C86   C193  A    
C33   C149  A    
C70   C167  A    
C253  O184  A    
O120  Zn9   S    
C216  O47   A    
C39   C131  A    
C64   C159  A    
C234  O136  A    
O150  Zn25  S    
C2    O131  A    
C241  O172  A    
O170  Zn28  S    
O187  Zn28  S    
C232  O34   A    
C105  F1    S    
C63   C152  A    
C135  O129  A    
C167  F53   S    
C246  O176  A    
C188  F74   S    
O25   Zn43  S    
C23   C249  S    
O20   Zn41  S    
O141  Zn21  S    
O66   Zn13  S    
C80   C186  A    
C60   C281  S    
C197  F83   S    
C94   C205  A    
C247  O177  A    
C166  F52   S    
O95   Zn12  S    
O71   Zn47  S    
C268  O60   A    
C4    C109  A    
C34   C141  A    
O14   Zn36  S    
O159  Zn21  S    
C76   C266  S    
C181  F66   S    
O51   Zn37  S    
C6    C111  A    
O97   Zn7   S    
C273  O65   A    
O162  Zn29  S    
C204  F90   S    
C221  O37   A    
C145  F31   S    
O103  Zn44  S    
C19   C123  A    
C283  O96   A    
C29   C259  S    
C98   C199  A    
C279  O73   A    
O129  Zn10  S    
C30   C167  A    
O132  Zn16  S    
O11   Zn38  S    
C272  O78   A    
C146  O125  A    
O69   Zn6   S    
O134  Zn14  S    
C62   C161  A    
C74   C184  A    
C5    C110  A    
C200  F86   S    
C157  O124  A    
C82   C135  S    
C57   O108  A    
C219  O26   A    
C116  F2    S    
C36   C142  A    
C42   C215  S    
C272  O64   A    
O124  Zn14  S    
C191  F76   S    
O52   Zn16  S    
C19   C253  S    
C133  F19   S    
C91   C197  A    
O126  Zn16  S    
C284  O93   A    
O102  Zn4   S    
O131  Zn17  S    
C215  O145  A    
C146  O118  A    
C271  O80   A    
O8    Zn32  S    
C194  F80   S    
C58   C138  A    
C95   C206  A    
C242  O25   A    
C152  F38   S    
C32   C244  S    
C120  F6    S    
C123  F9    S    
C28   C139  A    
C83   C202  A    
O62   Zn16  S    
C67   C261  S    
O104  Zn45  S    
O21   Zn35  S    
C70   C276  S    
C230  O15   A    
C65   C273  S    
C61   C162  A    
C223  O127  A    
C43   C129  A    
C87   C193  A    
C278  O182  A    
C228  O48   A    
C45   C156  A    
O105  Zn12  S    
C126  F11   S    
C100  C223  S    
C278  O132  A    
C64   C153  A    
C82   C188  A    
O46   Zn44  S    
C3    C180  A    
O78   Zn47  S    
C153  F39   S    
O189  Zn24  S    
C81   C195  A    
C12   C119  A    
O83   Zn23  S    
C58   C277  S    
C1    C95   S    
O77   Zn10  S    
C5    C257  S    
C266  O59   A    
O22   Zn33  S    
O7    Zn39  S    
C209  F95   S    
O36   Zn43  S    
C250  O180  A    
C11   C175  A    
C60   C140  A    
C23   C126  A    
C135  O114  A    
O58   Zn11  S    
C1    O1    A    
C227  O157  A    
C121  F7    S    
O109  Zn7   S    
C34   C229  S    
C122  F8    S    
C220  O38   A    
C148  F33   S    
C22   C173  A    
C92   C202  A    
C90   O106  A    
C6    C170  A    
O163  Zn30  S    
C29   C140  A    
C271  O63   A    
C280  O76   A    
O154  Zn20  S    
C23   C134  A    
C130  F16   S    
O181  Zn30  S    
C38   C219  S    
C224  O154  A    
O56   Zn13  S    
C26   C118  A    
C132  F18   S    
O67   Zn5   S    
C269  O99   A    
C248  C287  S    
C102  C209  A    
C267  O171  A    
C205  F91   S    
C3    C108  A    
O40   Zn40  S    
O169  Zn21  S    
O19   Zn40  S    
C28   C258  S    
C77   C268  S    
C263  O55   A    
C147  F32   S    
C265  O103  A    
C160  C287  A    
C248  O178  A    
C247  O33   A    
C76   C174  A    
C10   C117  A    
C177  F63   S    
C56   C137  A    
C264  O104  A    
C45   C116  A    
C210  F96   S    
O55   Zn5   S    
C222  O153  A    
C11   C241  S    
C277  O102  A    
C99   C198  A    
O75   Zn23  S    
O113  Zn8   S    
C250  O190  A    
C13   O112  A    
O32   Zn41  S    
O4    Zn36  S    
C131  F17   S    
O115  Zn6   S    
O29   Zn42  S    
C186  F72   S    
C162  F48   S    
C51   C201  S    
C238  O3    A    
C174  F60   S    
O107  Zn5   S    
C268  O70   A    
C274  O89   A    
O152  Zn22  S    
C35   O35   A    
C203  F88   S    
O101  Zn3   S    
C59   C147  A    
O143  Zn24  S    
C136  F21   S    
C4    C154  A    
C55   C141  A    
C7    C171  A    
C142  F28   S    
O168  Zn20  S    
O65   Zn11  S    
C104  C267  S    
O183  Zn29  S    
C213  O143  A    
C39   C137  A    
C233  O164  A    
C184  F70   S    
O12   Zn37  S    
O93   Zn3   S    
O37   Zn37  S    
C158  F43   S    
O123  Zn13  S    
C192  F77   S    
C68   C96   S    
C262  O54   A    
C86   C113  S    
C141  F27   S    
C37   C218  S    
C71   C178  A    
C233  O11   A    
C173  F59   S    
C281  O77   A    
C75   C173  A    
O164  Zn26  S    
C55   C136  A    
C245  O135  A    
O3    Zn35  S    
C179  O41   A    
C44   C147  A    
O140  Zn20  S    
C84   C191  A    
C26   C216  S    
C21   C122  A    
O68   Zn23  S    
O47   Zn31  S    
C170  F55   S    
C139  F25   S    
O45   Zn32  S    
O50   Zn36  S    
C201  O30   A    
C254  O185  A    
C79   O101  A    
C125  F10   S    
C274  O66   A    
O112  Zn48  S    
C15   C183  A    
O86   Zn15  S    
C11   C118  A    
C72   C271  S    
C71   C169  A    
O88   Zn8   S    
C113  O120  A    
C154  F40   S    
O99   Zn1   S    
C273  O91   A    
C179  O139  A    
O2    Zn1   S    
C198  F84   S    
C35   C92   S    
C252  O28   A    
C261  O94   A    
C163  F49   S    
O173  Zn29  S    
O144  Zn25  S    
C212  O116  A    
O190  Zn31  S    
C117  F3    S    
C56   C279  S    
C169  F54   S    
C118  F4    S    
C187  F73   S    
C247  C286  S    
O10   Zn39  S    
O72   Zn15  S    
C225  O155  A    
C91   C278  S    
C226  O156  A    
C159  C286  A    
C62   C151  A    
C225  O7    A    
O111  Zn2   S    
C256  O90   A    
C180  F65   S    
C9    C252  S    
O53   Zn17  S    
C41   C106  A    
C44   C235  S    
C223  O115  A    
C245  O149  A    
C31   C169  A    
O125  Zn15  S    
C106  C287  A    
C31   C179  S    
C2    C89   S    
C127  F13   S    
C228  O158  A    
C222  O22   A    
O94   Zn1   S    
C206  F92   S    
C25   C250  S    
C226  O6    A    
C128  F14   S    
C59   C139  A    
C178  F64   S    
C168  O137  A    
C232  O163  A    
C275  O75   A    
C159  F44   S    
O60   Zn2   S    
C78   C185  A    
C149  F35   S    
C20   C254  S    
C182  F68   S    
O172  Zn27  S    
O98   Zn12  S    
O192  Zn33  S    
C54   C142  A    
C27   C217  S    
C14   C120  A    
C257  O187  A    
C43   C233  S    
C185  F71   S    
C98   C207  A    
C66   C274  S    
C92   C210  A    
O177  Zn28  S    
C112  O105  A    
C78   C157  S    
O117  Zn5   S    
C22   C121  A    
O38   Zn36  S    
C88   C192  A    
C90   O133  A    
C40   C130  A    
C129  F15   S    
C231  O162  A    
C237  O167  A    
C30   C108  A    
C218  O27   A    
C83   C189  A    
O145  Zn26  S    
C17   C211  S    
C73   C272  S    
O127  Zn34  S    
C110  F56   S    
C46   O46   A    
C32   C148  A    
C260  O95   A    
O138  Zn44  S    
C57   O57   A    
O54   Zn6   S    
C1    O128  A    
C217  O45   A    
C99   C208  A    
C73   C176  A    
O59   Zn48  S    
C25   C127  A    
C276  O74   A    
C251  O181  A    
O43   Zn43  S    
C48   C225  S    
C150  F36   S    
C79   C84   S    
C230  O161  A    
O191  Zn32  S    
C100  C210  A    
O85   Zn14  S    
C50   C190  S    
C42   C105  A    
C82   C194  A    
C64   C269  S    
C66   C165  A    
C101  O109  A    
C14   C243  S    
C270  O62   A    
C26   C181  A    
C172  F58   S    
C49   C123  A    
C164  F50   S    
C48   C132  A    
O156  Zn26  S    
C97   C205  A    
O91   Zn44  S    
C28   C128  A    
O24   Zn46  S    
C213  O50   A    
C47   C224  S    
C235  O165  A    
C10   C240  S    
C68   O107  A    
O44   Zn42  S    
C9    C164  A    
C24   C99   S    
C183  F69   S    
C100  C189  A    
O87   Zn7   S    
C75   C183  A    
C266  O71   A    
C255  O186  A    
C220  O151  A    
C32   C130  A    
C279  O100  A    
C285  O86   A    
C41   C152  A    
C84   C200  A    
C85   C192  A    
C104  C185  A    
C46   C93   S    
O41   Zn31  S    
C87   C234  S    
O171  Zn47  S    
O57   Zn34  S    
C270  O98   A    
O18   Zn39  S    
O6    Zn38  S    
C58   C148  A    
C77   C175  A    
C282  O97   A    
C24   O24   A    
C138  F24   S    
C94   C112  S    
C13   C98   S    
C217  O147  A    
C25   C136  A    
C218  O148  A    
C8    C115  A    
C88   C245  S    
C85   C199  A    
C285  O92   A    
O116  Zn23  S    
C249  O191  A    
C193  F79   S    
C227  O49   A    
C236  C288  S    
C78   C197  A    
C282  O81   A    
O33   Zn40  S    
O118  Zn4   S    
C61   C150  A    
C151  F37   S    
C74   C172  A    
C17   C176  A    
O135  Zn13  S    
C134  F20   S    
C33   C131  A    
C75   C262  S    
C140  F26   S    
C71   C275  S    
O74   Zn34  S    
C6    C231  S    
C202  F87   S    
C103  C186  A    
C267  O79   A    
C72   C177  A    
C260  O52   A    
C76   C182  A    
C261  O53   A    
C17   C114  A    
O146  Zn19  S    
C87   C208  A    
C101  O121  A    
O16   Zn33  S    
C81   C124  S    
C108  F34   S    
O48   Zn40  S    
O89   Zn45  S    
C246  O12   A    
C42   C153  A    
C94   C187  A    
O142  Zn22  S    
C252  O183  A    
O158  Zn28  S    
C265  O58   A    
C236  O44   A    
C107  F23   S    
C52   C285  S    
C79   O134  A    
C216  O146  A    
C212  O117  A    
O106  Zn4   S    
C215  O17   A    
C190  O140  A    
C89   C196  A    
O148  Zn26  S    
C102  C212  S    
O136  Zn11  S    
C41   C214  S    
C53   C143  A    
C72   C170  A    
O122  Zn11  S    
C241  O39   A    
O1    Zn1   S    
O73   Zn14  S    
C65   C154  A    
C115  F89   S    
C29   C129  A    
C96   C206  A    
O174  Zn30  S    
O167  Zn29  S    
O166  Zn30  S    
C235  O10   A    
O153  Zn21  S    
C69   C158  A    
C249  O179  A    
O179  Zn18  S    
O130  Zn9   S    
C144  F30   S    
C3    C237  S    
O182  Zn12  S    
C224  O21   A    
C89   C203  A    
O151  Zn24  S    
C93   C209  A    
O176  Zn22  S    
C257  O19   A    
C18   C213  S    
O133  Zn15  S    
C96   C194  A    
C85   C101  S    
C256  O160  A    
O100  Zn3   S    
C243  O23   A    
C284  O85   A    
C83   C90   S    
C44   C128  A    
C19   C143  A    
C15   C121  A    
C244  O175  A    
O23   Zn42  S    
C275  O67   A    
C240  O170  A    
C91   C204  A    
C61   C264  S    
O92   Zn4   S    
C8    C163  A    
C137  F22   S    
C211  O142  A    
O149  Zn45  S    
O17   Zn38  S    
O81   Zn10  S    
C63   C160  A    
C105  C286  A    
O175  Zn24  S    
C107  C288  A    
C49   C226  S    
C27   C182  A    
C156  F42   S    
C109  F45   S    
C280  O88   A    
C264  O56   A    
C231  O36   A    
C175  F61   S    
C37   C120  A    
C161  F47   S    
O155  Zn25  S    
O5    Zn37  S    
C259  O189  A    
C229  O16   A    
C103  C203  A    
C276  O69   A    
C234  O138  A    
C240  O40   A    
O178  Zn27  S    
C38   C162  A    
C36   C230  S    
C60   C145  A    
O15   Zn35  S    
O39   Zn41  S    
O185  Zn18  S    
C51   C166  A    
C88   C207  A    
C4    C255  S    
C56   C149  A    
C106  F12   S    
C81   C187  A    
C39   C238  S    
C70   C180  A    
C47   C158  A    
