data_mof_unit_34850.cif
_audit_creation_date              2012-12-10T20:51:01-0500
_audit_creation_method            fapswitch 2.2
_symmetry_space_group_name_H-M    P1
_symmetry_Int_Tables_number       1
_space_group_crystal_system       triclinic
_cell_length_a                    18.425012
_cell_length_b                    18.379909
_cell_length_c                    18.460961
_cell_angle_alpha                 120.064546
_cell_angle_beta                  89.89086
_cell_angle_gamma                 119.832153
_cell_volume                      4431.7418256

loop_
_atom_site_label
_atom_site_type_symbol
_atom_type_description
_atom_site_fract_x
_atom_site_fract_y
_atom_site_fract_z
_atom_type_partial_charge
C1    C     C_R   0.359560 0.500164 0.360276 0.504524
C2    C     C_2   0.304572 0.515161 0.693465 0.157296
C3    C     C_3   0.331306 0.063940 0.448511 -0.278203
C4    C     C_3   0.366411 0.100098 0.543201 -0.489956
C5    C     C_3   0.540007 0.096326 0.327783 0.008221
C6    C     C_3   0.560630 0.032900 0.342735 -0.270711
C7    C     C_3   0.506404 0.998028 0.395225 -0.489264
C8    C     C_3   0.815186 0.688492 0.973987 0.026109
C9    C     C_3   0.877895 0.789453 0.063835 -0.241426
C10   C     C_3   0.828948 0.808398 0.130328 -0.483940
C11   C     C_3   0.644846 0.369014 0.766943 -0.026685
C12   C     C_3   0.642807 0.333135 0.826678 -0.266926
C13   C     C_R   0.586189 0.717573 0.325963 0.134856
C14   C     C_3   0.552451 0.287147 0.838941 -0.490168
C15   C     C_3   0.829989 0.735722 0.767145 -0.259328
C16   C     C_R   0.643572 0.502927 0.638322 0.499193
C17   C     C_R   0.498347 0.684577 0.321383 -0.044800
C18   C     C_R   0.428294 0.583927 0.253724 -0.035112
C19   C     C_R   0.445256 0.518430 0.186615 -0.082597
C20   C     C_R   0.532083 0.551447 0.187670 0.290471
C21   C     C_R   0.602137 0.648989 0.261020 -0.063355
C22   C     C_R   0.281778 0.543626 0.205307 -0.156640
C23   C     C_R   0.192875 0.500912 0.200336 0.037092
C24   C     C_2   0.309374 0.113650 0.323280 0.336798
C25   C     C_R   0.159191 0.458333 0.248703 0.003115
C26   C     C_R   0.215561 0.460426 0.301011 -0.173093
C27   C     C_R   0.304122 0.502093 0.305158 0.018257
C28   C     C_R   0.642640 0.502712 0.363652 0.510359
C29   C     C_R   0.337377 0.544187 0.256544 -0.030696
C30   C     C_R   0.038240 0.475739 0.297225 0.153427
C31   C     C_R   0.950861 0.431671 0.297764 -0.154163
C32   C     C_R   0.891428 0.325532 0.250954 -0.170248
C33   C     C_R   0.916945 0.260325 0.198787 0.307480
C34   C     C_R   0.004920 0.303866 0.198584 0.167359
C35   C     C_2   0.804094 0.581727 0.833113 0.238172
C36   C     C_R   0.066076 0.411982 0.247980 0.042373
C37   C     C_R   0.660597 0.820839 0.913986 0.157681
C38   C     C_R   0.655253 0.851400 0.858633 0.325077
C39   C     C_R   0.732696 0.905608 0.841836 0.022951
C40   C     C_R   0.360765 0.502113 0.639267 0.510260
C41   C     C_R   0.814353 0.935860 0.887087 -0.185163
C42   C     C_R   0.820134 0.914645 0.948524 -0.141061
C43   C     C_R   0.743798 0.857669 0.961978 -0.122335
C44   C     C_R   0.784786 0.055998 0.842657 -0.177825
C45   C     C_R   0.796114 0.108768 0.805217 0.014781
C46   C     C_2   0.793132 0.493547 0.811588 0.257846
C47   C     C_R   0.751538 0.052326 0.713493 -0.030472
C48   C     C_R   0.701921 0.945090 0.661435 -0.162777
C49   C     C_R   0.693662 0.891878 0.698492 0.019839
C50   C     C_R   0.734816 0.949093 0.791659 -0.018247
C51   C     C_R   0.676145 0.106610 0.661584 -0.134611
C52   C     C_R   0.640000 0.778435 0.639242 0.507995
C53   C     C_R   0.672689 0.153547 0.622599 -0.134986
C54   C     C_R   0.741207 0.195724 0.592747 -0.072500
C55   C     C_R   0.814419 0.189650 0.600237 0.285026
C56   C     C_R   0.816518 0.141789 0.639473 -0.019882
C57   C     C_2   0.756566 0.587315 0.774029 0.102362
C58   C     C_R   0.748396 0.101308 0.671019 0.005701
C59   C     C_R   0.777000 0.389941 0.444714 -0.156096
C60   C     C_R   0.780017 0.437167 0.403689 -0.100253
C61   C     C_R   0.719636 0.379808 0.319256 0.009570
C62   C     C_R   0.655452 0.274324 0.276484 -0.054484
C63   C     C_R   0.649536 0.227012 0.319083 0.284950
C64   C     C_R   0.361519 0.223172 0.363494 0.486835
C65   C     C_R   0.712843 0.285398 0.402620 -0.096839
C66   C     C_R   0.770586 0.429599 0.218603 -0.159217
C67   C     C_R   0.812838 0.510010 0.208303 0.016064
C68   C     C_2   0.705040 0.506784 0.690244 -0.112862
C69   C     C_R   0.815192 0.599521 0.264791 -0.029353
C70   C     C_R   0.755065 0.593677 0.311715 -0.146336
C71   C     C_R   0.706459 0.508551 0.315487 0.030804
C72   C     C_R   0.725125 0.433848 0.278873 -0.028570
C73   C     C_R   0.977090 0.732370 0.305877 -0.062004
C74   C     C_R   0.046789 0.829538 0.330340 -0.086400
C75   C     C_R   0.029541 0.898998 0.339514 -0.073761
C76   C     C_2   0.276689 0.944282 0.212687 -0.125731
C77   C     C_R   0.942913 0.871649 0.324650 -0.123462
C78   C     C_R   0.872902 0.773788 0.298130 -0.107496
C79   C     C_2   0.277879 0.559315 0.836923 -0.160615
C80   C     C_R   0.888675 0.702209 0.287505 0.054996
C81   C     C_R   0.136134 0.498734 0.863122 0.499053
C82   C     C_R   0.860096 0.502173 0.144198 0.495768
C83   C     C_R   0.856262 0.499733 0.864174 0.559768
C84   C     C_R   0.137572 0.500521 0.143064 0.513589
C85   C     C_R   0.855329 0.221865 0.863657 0.496904
C86   C     C_R   0.135915 0.777053 0.137750 0.490805
C87   C     C_2   0.188170 0.887305 0.178649 0.312372
C88   C     C_2   0.328917 0.055672 0.258388 -0.133354
C89   C     C_3   0.232564 0.587967 0.676521 -0.311730
C90   C     C_2   0.189865 0.491099 0.805948 -0.075852
C91   C     C_3   0.655947 0.902194 0.416255 -0.324616
C92   C     C_3   0.609851 0.530877 0.086510 0.021959
C93   C     C_3   0.579901 0.561835 0.035198 -0.271410
C94   C     C_3   0.588002 0.662515 0.095535 -0.436747
C95   C     C_3   0.115863 0.911029 0.099708 0.015306
C96   C     C_3   0.191018 0.981823 0.081875 -0.280552
C97   C     C_3   0.156096 0.967798 0.997760 -0.479469
C98   C     C_3   0.149180 0.633030 0.435322 -0.320037
C99   C     C_3   0.773953 0.109540 0.110368 -0.004211
C100  C     C_3   0.711621 0.058478 0.149798 -0.251961
C101  C     C_2   0.331803 0.550223 0.778698 -0.129671
C102  C     C_3   0.614712 0.001099 0.098843 -0.448823
C103  C     C_3   0.008429 0.196958 0.054775 -0.274466
C104  C     C_3   0.566532 0.656410 0.891030 -0.325526
C105  C     C_3   0.568782 0.906761 0.852865 -0.005259
C106  C     C_3   0.475862 0.873964 0.858148 -0.261758
C107  C     C_3   0.466417 0.962908 0.896178 -0.486222
C108  C     C_3   0.872080 0.254316 0.516104 0.002534
C109  C     C_3   0.949157 0.280529 0.479861 -0.253997
C110  C     C_3   0.936955 0.306803 0.416478 -0.473672
C111  C     C_3   0.282961 0.110603 0.444176 0.000452
H1    H     H_    0.311679 0.908796 0.203817 0.090304
H2    H     H_    0.826051 0.294588 0.256982 0.115686
H3    H     H_    0.522018 0.065568 0.460946 0.141637
H4    H     H_    0.522367 0.952435 0.405469 0.141625
H5    H     H_    0.434407 0.949363 0.358528 0.148695
H6    H     H_    0.782807 0.625027 0.982880 0.131739
H7    H     H_    0.763030 0.692314 0.949491 0.122778
H8    H     H_    0.930542 0.787167 0.089770 0.206245
H9    H     H_    0.908801 0.853399 0.055842 0.156098
H10   H     H_    0.772754 0.805697 0.104669 0.135191
H11   H     H_    0.874990 0.885495 0.192834 0.156065
H12   H     H_    0.803119 0.749275 0.143975 0.149723
H13   H     H_    0.749133 0.840557 0.008860 0.124984
H14   H     H_    0.587584 0.304695 0.704656 0.149673
H15   H     H_    0.635599 0.432429 0.799117 0.101273
H16   H     H_    0.657645 0.274616 0.796934 0.181520
H17   H     H_    0.693914 0.399274 0.892841 0.145390
H18   H     H_    0.535984 0.344266 0.868113 0.144529
H19   H     H_    0.553698 0.264542 0.884314 0.152413
H20   H     H_    0.500338 0.217936 0.774205 0.142888
H21   H     H_    0.725340 0.694252 0.818561 0.273741
H22   H     H_    0.789997 0.740264 0.726654 0.140998
H23   H     H_    0.857427 0.694287 0.724385 0.131979
H24   H     H_    0.874563 0.979704 0.877055 0.108444
H25   H     H_    0.886578 0.814475 0.820788 0.147217
H26   H     H_    0.883859 0.941244 0.984905 0.142544
H27   H     H_    0.384847 0.090571 0.238646 0.089847
H28   H     H_    0.816068 0.098762 0.913269 0.125901
H29   H     H_    0.668134 0.902957 0.591489 0.160721
H30   H     H_    0.622857 0.075117 0.685149 0.104234
H31   H     H_    0.617067 0.158327 0.616427 0.121260
H32   H     H_    0.736072 0.233114 0.564802 0.094755
H33   H     H_    0.155700 0.425699 0.737070 0.157998
H34   H     H_    0.872203 0.137174 0.646399 0.126558
H35   H     H_    0.712828 0.250471 0.435361 0.084069
H36   H     H_    0.824584 0.434438 0.509268 0.102725
H37   H     H_    0.829936 0.518652 0.437469 0.100547
H38   H     H_    0.608836 0.229538 0.211241 0.107885
H39   H     H_    0.778582 0.367261 0.184851 0.133587
H40   H     H_    0.752172 0.659150 0.352211 0.123495
H41   H     H_    0.992328 0.680947 0.301855 0.078242
H42   H     H_    0.114212 0.851289 0.343054 0.106950
H43   H     H_    0.083060 0.974394 0.358925 0.173573
H44   H     H_    0.396205 0.571955 0.807115 0.114112
H45   H     H_    0.929961 0.926500 0.333813 0.106215
H46   H     H_    0.806924 0.754733 0.285865 0.074707
H47   H     H_    0.708817 0.441630 0.655747 0.144217
H48   H     H_    0.312232 0.620103 0.907225 0.142717
H49   H     H_    0.192945 0.438006 0.589185 0.262822
H50   H     H_    0.166713 0.567423 0.648494 0.134744
H51   H     H_    0.279367 0.622614 0.647314 0.133937
H52   H     H_    0.256429 0.645102 0.749427 0.160495
H53   H     H_    0.720522 0.831192 0.397618 0.241431
H54   H     H_    0.605599 0.903946 0.448749 0.145824
H55   H     H_    0.669068 0.672657 0.267692 0.074971
H56   H     H_    0.721151 0.975438 0.462419 0.148517
H57   H     H_    0.641188 0.896358 0.354465 0.137945
H58   H     H_    0.620646 0.472492 0.038686 0.139530
H59   H     H_    0.675976 0.594835 0.137819 0.113699
H60   H     H_    0.622642 0.571897 0.993697 0.093619
H61   H     H_    0.510520 0.499224 0.989813 0.166308
H62   H     H_    0.530948 0.649509 0.120335 0.155388
H63   H     H_    0.587877 0.694401 0.058221 0.146978
H64   H     H_    0.650689 0.720746 0.152428 0.139473
H65   H     H_    0.064371 0.925978 0.101204 0.155324
H66   H     H_    0.484273 0.734251 0.373022 0.118154
H67   H     H_    0.084115 0.828985 0.044222 0.140553
H68   H     H_    0.223337 0.063091 0.138891 0.180229
H69   H     H_    0.241355 0.964339 0.073890 0.146447
H70   H     H_    0.124020 0.887152 0.939695 0.153657
H71   H     H_    0.211938 0.019179 0.986100 0.145496
H72   H     H_    0.107243 0.987473 0.004585 0.149892
H73   H     H_    0.068416 0.619096 0.345040 0.238019
H74   H     H_    0.196828 0.716683 0.467304 0.137578
H75   H     H_    0.187357 0.601399 0.434565 0.158027
H76   H     H_    0.104746 0.621298 0.475078 0.127802
H77   H     H_    0.390789 0.441225 0.133572 0.124492
H78   H     H_    0.757921 0.049551 0.040155 0.151782
H79   H     H_    0.762230 0.162641 0.108560 0.104125
H80   H     H_    0.722484 0.003243 0.147783 0.175862
H81   H     H_    0.726825 0.117743 0.220156 0.180448
H82   H     H_    0.601702 0.054511 0.100089 0.158422
H83   H     H_    0.571572 0.965280 0.129352 0.185591
H84   H     H_    0.597683 0.939188 0.029313 0.147709
H85   H     H_    0.094074 0.262793 0.174850 0.244330
H86   H     H_    0.023511 0.139159 0.018870 0.120735
H87   H     H_    0.047863 0.259813 0.046245 0.141836
H88   H     H_    0.308062 0.574942 0.167503 0.136186
H89   H     H_    0.936796 0.159130 0.025567 0.174910
H90   H     H_    0.527152 0.749124 0.903631 0.274969
H91   H     H_    0.508927 0.612942 0.906527 0.124756
H92   H     H_    0.624196 0.665873 0.923202 0.123500
H93   H     H_    0.552238 0.611384 0.818181 0.188137
H94   H     H_    0.580295 0.931786 0.807795 0.151857
H95   H     H_    0.618243 0.973851 0.920239 0.099333
H96   H     H_    0.426213 0.810224 0.790714 0.167951
H97   H     H_    0.462018 0.845642 0.900833 0.157809
H98   H     H_    0.514240 0.026705 0.964399 0.145283
H99   H     H_    0.189547 0.428982 0.338782 0.130607
H100  H     H_    0.398241 0.936437 0.898863 0.144217
H101  H     H_    0.478542 0.991383 0.853670 0.143775
H102  H     H_    0.869326 0.322367 0.552445 0.139036
H103  H     H_    0.809749 0.187027 0.459096 0.110882
H104  H     H_    0.012149 0.347155 0.535791 0.177600
H105  H     H_    0.953774 0.213906 0.444117 0.174970
H106  H     H_    0.874485 0.241013 0.359793 0.166621
H107  H     H_    0.993320 0.324059 0.390437 0.159045
H108  H     H_    0.934970 0.375268 0.451467 0.142998
H109  H     H_    0.228532 0.089353 0.472052 0.137610
H110  H     H_    0.929588 0.480285 0.336562 0.119333
H111  H     H_    0.327900 0.195997 0.487371 0.123255
H112  H     H_    0.285102 0.978844 0.405657 0.162965
H113  H     H_    0.388206 0.086941 0.423901 0.148382
H114  H     H_    0.414110 0.184977 0.586747 0.138711
H115  H     H_    0.401086 0.065338 0.544088 0.139604
H116  H     H_    0.310929 0.076383 0.569352 0.144925
H117  H     H_    0.468391 0.047290 0.290909 0.145387
H118  H     H_    0.551324 0.163085 0.392171 0.134002
H119  H     H_    0.544532 0.964200 0.277595 0.167494
H120  H     H_    0.632158 0.078666 0.379287 0.144165
N1    N     N_2   0.224525 0.496689 0.655792 -0.528781
N2    N     N_2   0.658904 0.817370 0.397302 -0.516439
N3    N     N_2   0.097970 0.584343 0.346140 -0.508677
N4    N     N_2   0.030521 0.237056 0.147678 -0.484249
N5    N     N_2   0.583143 0.755041 0.923589 -0.526104
N6    N     N_2   0.775929 0.685645 0.806063 -0.476310
O1    O     O_3   0.500000 0.500000 0.500000 -0.441392
O2    O     O_R   0.053310 0.439870 0.118130 -0.543209
O3    O     O_R   0.881750 0.270770 0.828220 -0.535892
O4    O     O_R   0.323160 0.439910 0.385120 -0.550786
O5    O     O_R   0.173180 0.729110 0.116590 -0.573333
O6    O     O_R   0.882410 0.270770 0.949030 -0.559628
O7    O     O_R   0.051730 0.729120 0.116590 -0.526355
O8    O     O_R   0.880830 0.560020 0.947500 -0.555814
O9    O     O_R   0.174110 0.560030 0.117490 -0.549612
O10   O     O_R   0.051730 0.439850 0.827330 -0.528505
O11   O     O_R   0.882410 0.439870 0.118130 -0.551757
O12   O     O_R   0.615510 0.439910 0.385120 -0.533691
O13   O     O_R   0.616440 0.439920 0.555110 -0.547733
O14   O     O_R   0.614860 0.560070 0.384480 -0.541068
O15   O     O_R   0.445540 0.560090 0.675280 -0.542453
O16   O     O_R   0.614860 0.729170 0.553580 -0.546579
O17   O     O_R   0.324090 0.270830 0.386020 -0.522801
O18   O     O_R   0.615510 0.729180 0.674390 -0.503266
O19   O     O_R   0.445540 0.270830 0.386020 -0.580029
O20   O     O_3   0.544704 0.483564 0.118480 -0.568479
O21   O     O_3   0.145078 0.933095 0.183549 -0.528583
O22   O     O_3   0.862175 0.154537 0.155973 -0.552885
O23   O     O_R   0.324090 0.439920 0.555110 -0.551106
O24   O     O_3   0.573349 0.821289 0.816992 -0.552538
O25   O     O_3   0.887200 0.231338 0.574552 -0.572320
O26   O     O_3   0.244325 0.071049 0.355485 -0.543213
O27   O     O_3   0.586030 0.122240 0.273839 -0.604872
O28   O     O_3   0.863458 0.673180 0.914594 -0.557634
O29   O     O_3   0.722789 0.395629 0.743063 -0.624701
O30   O     O_R   0.443960 0.560080 0.384480 -0.533154
O31   O     O_R   0.616440 0.560090 0.675280 -0.558005
O32   O     O_3   0.997270 0.499940 0.002610 -0.441848
O33   O     O_R   0.173180 0.560020 0.947500 -0.546879
O34   O     O_R   0.881750 0.560030 0.117490 -0.541547
O35   O     O_R   0.880830 0.439850 0.827330 -0.518307
Zn1   Zn    Zn3+2 0.543620 0.414150 0.457300 0.919037
Zn2   Zn    Zn3+2 0.542680 0.585840 0.456390 0.942229
Zn3   Zn    Zn3+2 0.543620 0.585850 0.629000 0.932659
Zn4   Zn    Zn3+2 0.370090 0.414160 0.457300 0.930462
Zn5   Zn    Zn3+2 0.953650 0.585790 0.045310 0.926149
Zn6   Zn    Zn3+2 0.953650 0.414090 0.873610 0.955385
Zn7   Zn    Zn3+2 0.954590 0.414100 0.046220 0.914143
Zn8   Zn    Zn3+2 0.127180 0.585790 0.045310 0.913951

loop_
_geom_bond_atom_site_label_1
_geom_bond_atom_site_label_2
_ccdc_geom_bond_type
C94   H62   S    
C95   O21   S    
C55   C56   A    
C63   C65   A    
C93   H61   S    
C93   C94   S    
C22   C29   A    
C27   C29   A    
C55   O25   S    
C41   C42   A    
C81   O10   A    
C95   C96   S    
O14   Zn2   S    
O5    Zn8   S    
C95   H65   S    
C10   H10   S    
C86   O5    A    
C102  H84   S    
C92   O20   S    
C40   O23   A    
C8    H7    S    
C105  H95   S    
C39   C41   A    
C15   H23   S    
C77   C78   A    
C26   C27   A    
C3    H113  S    
C28   C71   S    
C107  H101  S    
C5    C6    S    
C104  H93   S    
C7    H3    S    
C91   H56   S    
C11   H14   S    
C52   O18   A    
C18   C19   A    
C98   H74   S    
O16   Zn2   S    
C77   H45   S    
C106  H97   S    
C38   C39   A    
C40   O15   A    
C78   C80   A    
C4    H116  S    
C107  H100  S    
C106  C107  S    
C101  H44   S    
C7    H4    S    
C85   O6    A    
C108  C109  S    
O32   Zn7   S    
C84   O9    A    
C53   H31   S    
C103  H86   S    
O13   Zn1   S    
O33   Zn8   S    
C56   H34   S    
C110  H106  S    
C28   O12   A    
O7    Zn5   S    
C79   C90   D    
C44   C50   A    
C95   H67   S    
C47   C58   S    
C31   H110  S    
C73   C80   A    
C66   C72   A    
C19   C20   A    
C92   H59   S    
C8    C9    S    
O11   Zn7   S    
O2    Zn7   S    
C5    O27   S    
O35   Zn6   S    
H49   N1    S    
C108  O25   S    
C70   C71   A    
C16   C68   S    
C4    H115  S    
C32   H2    S    
O1    Zn1   S    
O31   Zn3   S    
C9    C10   S    
C76   C88   S    
C108  H102  S    
C2    N1    S    
C20   O20   S    
C47   C48   A    
C84   O2    A    
C89   N1    S    
C109  H105  S    
C51   H30   S    
C54   H32   S    
C62   H38   S    
C59   C60   A    
C24   C64   S    
C6    H120  S    
C63   O27   S    
C42   H26   S    
C76   H1    S    
C33   O22   S    
C100  H81   S    
C37   C38   A    
C68   H47   S    
C34   N4    S    
C102  H83   S    
C87   O21   S    
C89   H50   S    
C8    H6    S    
C97   H72   S    
C64   O17   A    
C14   H20   S    
C45   C47   A    
C73   C74   A    
C1    O30   A    
C74   C75   A    
C48   H29   S    
C13   C21   A    
C104  H92   S    
C91   H57   S    
C97   H71   S    
C11   H15   S    
C10   H12   S    
C23   C84   S    
C38   O24   S    
O6    Zn7   S    
C106  H96   S    
C12   H16   S    
C16   O13   A    
C86   C87   S    
C3    C111  S    
H90   N5    S    
C15   H25   S    
C35   O28   S    
C2    C101  D    
C109  H104  S    
C25   C26   A    
C53   C54   A    
C56   C58   A    
C96   H69   S    
C21   H55   S    
C46   C83   S    
C74   H42   S    
O18   Zn3   S    
C60   C61   A    
C51   C53   A    
C111  H111  S    
C104  H91   S    
C7    H5    S    
C37   C43   A    
C45   C85   S    
H21   N6    S    
C98   H76   S    
C5    H118  S    
C19   H77   S    
C52   O16   A    
C75   C77   A    
C22   H88   S    
C78   H46   S    
C99   C100  S    
C98   N3    S    
C99   O22   S    
C92   H58   S    
C46   O29   S    
C49   C52   S    
H73   N3    S    
C96   C97   S    
C83   O8    A    
C62   C63   A    
C100  C102  S    
C17   C18   A    
O32   Zn5   S    
C26   H99   S    
C18   C29   S    
C4    H114  S    
C30   N3    S    
C105  H94   S    
C110  H108  S    
C24   C88   D    
C76   C87   D    
C88   H27   S    
C16   O31   A    
C1    O4    A    
C94   H63   S    
C12   H17   S    
C81   C90   S    
C61   C72   S    
C105  O24   S    
C48   C49   A    
O1    Zn4   S    
C12   C14   S    
C44   H28   S    
C6    H119  S    
C73   H41   S    
C89   H52   S    
C9    H8    S    
O12   Zn1   S    
O19   Zn1   S    
C100  H80   S    
C51   C58   A    
C42   C43   A    
C57   C68   D    
C3    C4    S    
C102  H82   S    
C89   H51   S    
C41   H24   S    
C44   C45   A    
O4    Zn4   S    
C37   N5    S    
C99   H78   S    
C14   H19   S    
C17   H66   S    
C9    H9    S    
C91   N2    S    
C54   C55   A    
C93   H60   S    
O3    Zn6   S    
C3    H112  S    
H53   N2    S    
C91   H54   S    
C31   C32   A    
C79   C101  S    
C70   H40   S    
C8    O28   S    
C10   H11   S    
C57   N6    S    
C99   H79   S    
O8    Zn5   S    
C11   C12   S    
C66   H39   S    
C97   H70   S    
C6    C7    S    
C107  H98   S    
H85   N4    S    
C30   C36   A    
C83   O35   A    
C105  C106  S    
C94   H64   S    
C5    H117  S    
C82   O11   A    
C35   C57   S    
C85   O3    A    
C32   C33   A    
O9    Zn8   S    
O10   Zn6   S    
C61   C62   A    
C65   H35   S    
C28   O14   A    
C71   C72   A    
C98   H75   S    
O1    Zn2   S    
C109  C110  S    
C59   C65   A    
O30   Zn2   S    
C79   H48   S    
C75   H43   S    
C30   C31   A    
C24   O26   S    
C92   C93   S    
C11   O29   S    
C33   C34   A    
O32   Zn6   S    
C66   C67   A    
C34   C36   A    
C103  H89   S    
C23   C25   A    
C96   H68   S    
C69   C70   A    
C110  H107  S    
O15   Zn3   S    
C108  H103  S    
O17   Zn4   S    
C15   N6    S    
C25   C36   S    
C13   N2    S    
C13   C17   A    
O23   Zn4   S    
C2    C40   S    
C104  N5    S    
C39   C50   S    
C20   C21   A    
O32   Zn8   S    
C67   C82   S    
C86   O7    A    
C49   C50   A    
C111  H109  S    
C1    C27   S    
O34   Zn5   S    
C22   C23   A    
C82   O34   A    
C69   C80   S    
C103  N4    S    
C60   H37   S    
C67   C69   A    
C81   O33   A    
C111  O26   S    
C35   C46   D    
C43   H13   S    
C103  H87   S    
C90   H33   S    
O1    Zn3   S    
C15   H22   S    
C64   O19   A    
C14   H18   S    
C59   H36   S    
