data_mof_unit_41341.cif
_audit_creation_date              2012-10-26T18:29:55-0400
_audit_creation_method            fapswitch 2.2
_symmetry_space_group_name_H-M    P1
_symmetry_Int_Tables_number       1
_space_group_crystal_system       triclinic
_cell_length_a                    10.885258
_cell_length_b                    13.065269
_cell_length_c                    11.684008
_cell_angle_alpha                 98.82339
_cell_angle_beta                  95.230551
_cell_angle_gamma                 90.282798
_cell_volume                      1634.88149961

loop_
_atom_site_label
_atom_site_type_symbol
_atom_type_description
_atom_site_fract_x
_atom_site_fract_y
_atom_site_fract_z
_atom_type_partial_charge
C1    C     C_R   0.503410 0.299328 0.479859 0.569927
C2    C     C_R   0.564827 0.024384 0.540765 -0.007137
C3    C     C_R   0.495417 0.969528 0.440671 -0.019962
C4    C     C_R   0.259988 0.497448 0.498110 0.592501
C5    C     C_R   0.459310 0.865535 0.440697 0.065560
C6    C     C_R   0.600074 0.862213 0.614250 -0.142232
C7    C     C_R   0.628035 0.966911 0.621185 0.075922
C8    C     C_R   0.383508 0.401216 0.022144 0.206391
C9    C     C_R   0.397205 0.410212 0.144463 0.037860
C10   C     C_R   0.546363 0.545406 0.159094 0.435979
C11   C     C_R   0.544265 0.535444 0.034744 -0.089011
C12   C     C_3   0.879124 0.502648 0.503574 -0.003631
C13   C     C_R   0.459598 0.462836 0.965490 -0.001060
C14   C     C_R   0.453044 0.455485 0.841298 0.423103
C15   C     C_R   0.603773 0.588994 0.855159 0.016182
C16   C     C_R   0.500229 0.700310 0.519728 0.568327
C17   C     C_R   0.621299 0.595802 0.976531 -0.027978
C18   C     C_R   0.740416 0.500436 0.501293 0.625252
C19   C     C_3   0.084704 0.448751 0.601900 0.057547
C20   C     C_3   0.940810 0.443877 0.605734 0.174079
C21   C     C_3   0.077046 0.615995 0.507934 0.166318
C22   C     C_3   0.057976 0.428155 0.378189 0.247798
C23   C     C_3   0.930180 0.620184 0.514932 0.116493
C24   C     C_3   0.121933 0.498128 0.494258 -0.071476
C25   C     C_2   0.345124 0.822953 0.368551 0.644804
C26   C     C_2   0.430049 0.966591 0.224840 0.616234
C27   C     C_2   0.735721 0.008377 0.702411 0.605612
C28   C     C_2   0.604469 0.192857 0.675254 0.611706
C29   C     C_2   0.727825 0.660685 0.034363 0.591621
C30   C     C_2   0.909112 0.486381 0.730442 0.623933
C31   C     C_2   0.153085 0.683864 0.611253 0.623225
C32   C     C_2   0.894457 0.696877 0.619703 0.613683
C33   C     C_2   0.094670 0.445482 0.257595 0.607798
C34   C     C_3   0.912927 0.438905 0.380827 0.474002
C35   C     C_R   0.515279 0.811892 0.527056 -0.033363
C36   C     C_R   0.511516 0.186009 0.468250 -0.024298
C37   C     C_R   0.460699 0.021587 0.345228 0.060684
C38   C     C_R   0.467547 0.128884 0.361166 -0.130502
C39   C     C_R   0.563751 0.134222 0.558779 0.067945
Cu1   Cu    Cu3+1 0.509350 0.507730 0.615930 1.132931
Cu2   Cu    Cu3+1 0.490650 0.492270 0.384070 1.124397
H1    H     H_    0.124568 0.500062 0.679669 0.239805
H2    H     H_    0.466434 0.847825 0.101192 0.361789
H3    H     H_    0.895290 0.091380 0.726984 0.363798
H4    H     H_    0.588950 0.213085 0.847918 0.348437
H5    H     H_    0.395977 0.316418 0.788665 0.371314
H6    H     H_    0.101683 0.294521 0.569736 0.403378
H7    H     H_    0.255492 0.294069 0.010943 0.343107
H8    H     H_    0.822565 0.795943 0.049878 0.381287
H9    H     H_    0.593997 0.688041 0.202353 0.348948
H10   H     H_    0.926035 0.303123 0.647559 0.379640
H11   H     H_    0.814780 0.464178 0.865989 0.343341
H12   H     H_    0.648544 0.818404 0.675299 0.189645
H13   H     H_    0.281919 0.797479 0.662774 0.352749
H14   H     H_    0.910645 0.843262 0.706007 0.371066
H15   H     H_    0.079536 0.390611 0.085528 0.357962
H16   H     H_    0.177879 0.315628 0.378458 0.327364
H17   H     H_    0.865274 0.305078 0.285784 0.392977
H18   H     H_    0.436558 0.168249 0.288813 0.166256
H19   H     H_    0.659400 0.636352 0.811199 0.213971
H20   H     H_    0.341830 0.362112 0.188225 0.129170
H21   H     H_    0.910572 0.542327 0.270294 0.405666
H22   H     H_    0.081277 0.729990 0.415694 0.421834
H23   H     H_    0.786804 0.672592 0.424950 0.361079
H24   H     H_    0.265272 0.717803 0.238109 0.382742
N1    N     N_R   0.523430 0.519360 0.790130 -0.235444
N2    N     N_R   0.476570 0.480640 0.209880 -0.221417
O1    O     O_R   0.506640 0.354460 0.582000 -0.443833
O2    O     O_3   0.105003 0.656056 0.407845 -0.602194
O3    O     O_3   0.876966 0.664848 0.419648 -0.652856
O4    O     O_2   0.248190 0.868435 0.381000 -0.455572
O5    O     O_R   0.348737 0.736175 0.282657 -0.626070
O6    O     O_2   0.351672 0.000641 0.159588 -0.464632
O7    O     O_R   0.494587 0.877990 0.184723 -0.669192
O8    O     O_2   0.747728 0.987229 0.801209 -0.466693
O9    O     O_R   0.825906 0.068328 0.664229 -0.637749
O10   O     O_2   0.686367 0.258711 0.685861 -0.411421
O11   O     O_R   0.552225 0.169329 0.773287 -0.684018
O12   O     O_R   0.490840 0.341410 0.386200 -0.542594
O13   O     O_3   0.375056 0.385789 0.769476 -0.552108
O14   O     O_3   0.146091 0.355392 0.615535 -0.632974
O15   O     O_3   0.295017 0.334272 0.958381 -0.657361
O16   O     O_2   0.803270 0.625975 0.101612 -0.427803
O17   O     O_R   0.745556 0.759740 0.006572 -0.646875
O18   O     O_3   0.613849 0.622215 0.231563 -0.588806
O19   O     O_3   0.897206 0.339916 0.581904 -0.578956
O20   O     O_2   0.965718 0.560109 0.789392 -0.454697
O21   O     O_R   0.820697 0.434682 0.781281 -0.609821
O22   O     O_2   0.139440 0.676265 0.712259 -0.477081
O23   O     O_R   0.325590 0.506510 0.597900 -0.441486
O24   O     O_R   0.238328 0.757122 0.589087 -0.644535
O25   O     O_2   0.816142 0.675439 0.680658 -0.532603
O26   O     O_R   0.940220 0.798882 0.635277 -0.612387
O27   O     O_2   0.149199 0.523223 0.241815 -0.448084
O28   O     O_R   0.057617 0.370396 0.161633 -0.654096
O29   O     O_3   0.087552 0.323665 0.382525 -0.652268
O30   O     O_3   0.858294 0.338898 0.367049 -0.538292
O31   O     O_R   0.309790 0.493450 0.402100 -0.483974
O32   O     O_R   0.509160 0.658590 0.613800 -0.523220
O33   O     O_R   0.493360 0.645540 0.418000 -0.428467
O34   O     O_R   0.690210 0.506550 0.597900 -0.463659
O35   O     O_R   0.674410 0.493490 0.402100 -0.414224
O36   O     O_3   0.858652 0.484978 0.286137 -0.607024

loop_
_geom_bond_atom_site_label_1
_geom_bond_atom_site_label_2
_ccdc_geom_bond_type
H15   O28   S    
C10   O18   S    
C8    C13   A    
C4    O31   A    
C17   C29   S    
C15   H19   S    
C2    C7    A    
H14   O26   S    
C33   O27   D    
C26   O6    D    
Cu1   O32   S    
Cu2   N2    S    
C20   C30   S    
C10   N2    A    
Cu2   O35   S    
C21   C31   S    
C12   C23   S    
C8    O15   S    
H8    O17   S    
C29   O16   D    
C16   C35   S    
C4    C24   S    
C1    O1    A    
C7    C27   S    
C6    C35   A    
C18   O35   A    
H3    O9    S    
H9    O18   S    
Cu1   O34   S    
C2    C39   A    
H22   O2    S    
C8    C9    A    
C31   O22   D    
H16   O29   S    
C20   O19   S    
H4    O11   S    
C25   O4    D    
H23   O3    S    
C28   O11   S    
C19   H1    S    
H2    O7    S    
C32   O26   S    
C34   O30   S    
Cu1   N1    S    
C13   C14   A    
C23   O3    S    
H17   O30   S    
C27   O8    D    
C33   O28   S    
H10   O19   S    
C4    O23   A    
C22   C34   S    
H11   O21   S    
C29   O17   S    
C16   O33   A    
C28   C39   S    
C15   N1    A    
C21   O2    S    
C18   O34   A    
C9    N2    A    
C37   C38   A    
C12   C20   S    
C14   N1    A    
Cu2   O33   S    
C16   O32   A    
C25   O5    S    
C28   O10   D    
C5    C25   S    
Cu1   Cu2   S    
C14   O13   S    
C21   C23   S    
C1    O12   A    
C9    H20   S    
C6    H12   S    
C12   C34   S    
C27   O9    S    
H21   O36   S    
C15   C17   A    
C22   C33   S    
C11   C17   A    
C22   O29   S    
C36   C39   A    
C3    C5    A    
Cu2   O12   S    
C26   C37   S    
C6    C7    A    
H24   O5    S    
C31   O24   S    
C34   O36   S    
C23   C32   S    
C19   C20   S    
C36   C38   A    
C2    C3    A    
H13   O24   S    
H5    O13   S    
C11   C13   A    
C32   O25   D    
C5    C35   A    
C26   O7    S    
H7    O15   S    
C19   C24   S    
C22   C24   S    
H6    O14   S    
C10   C11   A    
C38   H18   S    
C3    C37   A    
Cu1   O1    S    
C21   C24   S    
C12   C18   S    
Cu2   O31   S    
Cu1   O23   S    
C30   O20   D    
C19   O14   S    
C30   O21   S    
C1    C36   S    
