data_mof_unit_12719.cif
_audit_creation_date              2012-12-11T15:07:06-0500
_audit_creation_method            fapswitch 2.2
_symmetry_space_group_name_H-M    P1
_symmetry_Int_Tables_number       1
_space_group_crystal_system       monoclinic
_cell_length_a                    19.74651
_cell_length_b                    11.253526
_cell_length_c                    18.73097
_cell_angle_alpha                 90.0
_cell_angle_beta                  89.74076
_cell_angle_gamma                 90.0
_cell_volume                      4162.31353266

loop_
_atom_site_label
_atom_site_type_symbol
_atom_type_description
_atom_site_fract_x
_atom_site_fract_y
_atom_site_fract_z
_atom_type_partial_charge
C1    C     C_R   0.761540 0.523535 0.639094 0.530359
C2    C     C_R   0.238460 0.523535 0.360906 0.530359
C3    C     C_R   0.261540 0.023534 0.639094 0.530359
C4    C     C_R   0.738460 0.023534 0.360906 0.530359
C5    C     C_3   0.810431 0.131044 0.448791 -0.258690
C6    C     C_3   0.189568 0.131045 0.551209 -0.258690
C7    C     C_3   0.310432 0.631044 0.448791 -0.258689
C8    C     C_3   0.689569 0.631046 0.551209 -0.258689
C9    C     C_3   0.746838 0.056681 0.436901 0.065296
C10   C     C_3   0.253162 0.056682 0.563099 0.065297
C11   C     C_3   0.246838 0.556681 0.436901 0.065297
C12   C     C_3   0.753162 0.556682 0.563099 0.065296
C13   C     C_3   0.760484 0.090241 0.574253 0.064380
C14   C     C_3   0.239516 0.090241 0.425747 0.064379
C15   C     C_3   0.260484 0.590241 0.574253 0.064379
C16   C     C_3   0.739516 0.590242 0.425747 0.064380
C17   C     C_3   0.753910 0.957227 0.561974 -0.261265
C18   C     C_3   0.246090 0.957227 0.438026 -0.261265
C19   C     C_3   0.253910 0.457227 0.561974 -0.261265
C20   C     C_3   0.746089 0.457228 0.438026 -0.261265
C21   C     C_3   0.823070 0.133350 0.529552 -0.218469
C22   C     C_3   0.176929 0.133351 0.470448 -0.218468
C23   C     C_3   0.323070 0.633351 0.529552 -0.218469
C24   C     C_3   0.676930 0.633352 0.470448 -0.218468
C25   C     C_3   0.003940 0.203707 0.459018 -0.232514
C26   C     C_3   0.996060 0.203707 0.540981 -0.232515
C27   C     C_3   0.503939 0.703707 0.459018 -0.232515
C28   C     C_3   0.496060 0.703707 0.540981 -0.232515
C29   C     C_3   0.064291 0.406101 0.473950 -0.215518
C30   C     C_3   0.935709 0.406101 0.526050 -0.215519
C31   C     C_3   0.564291 0.906101 0.473950 -0.215518
C32   C     C_3   0.435709 0.906102 0.526050 -0.215519
C33   C     C_3   0.941782 0.390391 0.445036 -0.261456
C34   C     C_3   0.058217 0.390391 0.554964 -0.261456
C35   C     C_3   0.441782 0.890391 0.445036 -0.261456
C36   C     C_3   0.558217 0.890390 0.554964 -0.261456
C37   C     C_3   0.010409 0.332845 0.430968 0.063393
C38   C     C_3   0.989590 0.332845 0.569032 0.063393
C39   C     C_3   0.510410 0.832845 0.430968 0.063393
C40   C     C_3   0.489590 0.832845 0.569032 0.063393
C41   C     C_3   0.817575 0.019048 0.046694 -0.241953
C42   C     C_3   0.182424 0.019048 0.953306 -0.241953
C43   C     C_3   0.317575 0.519048 0.046694 -0.241953
C44   C     C_3   0.682424 0.519048 0.953306 -0.241953
C45   C     C_R   0.774426 0.121054 0.649441 0.539788
C46   C     C_R   0.225573 0.121054 0.350559 0.539788
C47   C     C_R   0.274427 0.621054 0.649441 0.539788
C48   C     C_R   0.725573 0.621054 0.350559 0.539788
C49   C     C_3   0.823113 0.034954 0.967145 -0.281173
C50   C     C_3   0.176887 0.034954 0.032855 -0.281173
C51   C     C_3   0.323113 0.534953 0.967145 -0.281173
C52   C     C_3   0.676887 0.534953 0.032855 -0.281172
C53   C     C_3   0.687961 0.033418 0.033564 -0.179706
C54   C     C_3   0.312039 0.033418 0.966435 -0.179705
C55   C     C_3   0.187961 0.533418 0.033564 -0.179706
C56   C     C_3   0.812039 0.533418 0.966435 -0.179706
C57   C     C_3   0.757356 0.207843 0.062926 -0.288740
C58   C     C_3   0.242644 0.207843 0.937074 -0.288740
C59   C     C_3   0.257356 0.707843 0.062926 -0.288740
C60   C     C_3   0.742644 0.707843 0.937074 -0.288740
C61   C     C_3   0.750822 0.074368 0.076461 0.011637
C62   C     C_3   0.249177 0.074368 0.923539 0.011637
C63   C     C_3   0.250822 0.574368 0.076461 0.011637
C64   C     C_3   0.749177 0.574368 0.923539 0.011637
C65   C     C_3   0.762650 0.107840 0.937397 0.078922
C66   C     C_3   0.237350 0.107840 0.062603 0.078922
C67   C     C_3   0.262650 0.607840 0.937397 0.078922
C68   C     C_3   0.737350 0.607840 0.062603 0.078922
C69   C     C_3   0.701025 0.030367 0.951796 0.215669
C70   C     C_3   0.298975 0.030367 0.048204 0.215668
C71   C     C_3   0.201025 0.530367 0.951796 0.215668
C72   C     C_3   0.798975 0.530367 0.048204 0.215668
C73   C     C_3   0.751251 0.225742 0.980730 -0.233430
C74   C     C_3   0.248748 0.225742 0.019270 -0.233430
C75   C     C_3   0.251252 0.725742 0.980730 -0.233430
C76   C     C_3   0.748748 0.725742 0.019270 -0.233430
C77   C     C_3   0.015199 0.484898 0.036442 0.160225
C78   C     C_3   0.984801 0.484898 0.963557 0.160225
C79   C     C_3   0.515199 0.984898 0.036442 0.160225
C80   C     C_3   0.484801 0.984898 0.963557 0.160225
C81   C     C_3   0.063221 0.277864 0.025646 -0.292082
C82   C     C_3   0.936779 0.277864 0.974354 -0.292082
C83   C     C_3   0.563221 0.777864 0.025646 -0.292082
C84   C     C_3   0.436779 0.777864 0.974354 -0.292082
C85   C     C_3   0.941820 0.302600 0.055744 -0.288493
C86   C     C_3   0.058180 0.302600 0.944256 -0.288493
C87   C     C_3   0.441820 0.802600 0.055744 -0.288493
C88   C     C_3   0.558180 0.802600 0.944256 -0.288493
C89   C     C_R   0.969335 0.342034 0.644992 0.537489
C90   C     C_R   0.030664 0.342034 0.355008 0.537489
C91   C     C_R   0.469335 0.842034 0.644992 0.537489
C92   C     C_R   0.530664 0.842034 0.355008 0.537488
C93   C     C_3   0.012160 0.356082 0.069172 0.013771
C94   C     C_3   0.987840 0.356082 0.930827 0.013772
C95   C     C_3   0.512160 0.856082 0.069172 0.013771
C96   C     C_3   0.487840 0.856082 0.930827 0.013772
C97   C     C_R   0.759422 0.536689 0.847564 0.532113
C98   C     C_R   0.240577 0.536689 0.152436 0.532114
C99   C     C_R   0.259423 0.036689 0.847564 0.532113
C100  C     C_R   0.740577 0.036689 0.152436 0.532114
C101  C     C_R   0.775226 0.134778 0.859707 0.582476
C102  C     C_R   0.224774 0.134778 0.140293 0.582476
C103  C     C_R   0.275226 0.634778 0.859707 0.582476
C104  C     C_R   0.724774 0.634778 0.140293 0.582475
C105  C     C_R   0.967389 0.354153 0.854494 0.566574
C106  C     C_R   0.032611 0.354153 0.145506 0.566573
C107  C     C_R   0.467389 0.854153 0.854494 0.566574
C108  C     C_R   0.532611 0.854153 0.145506 0.566573
C109  C     C_3   0.687458 0.132132 0.466059 -0.235552
C110  C     C_3   0.312542 0.132132 0.533941 -0.235552
C111  C     C_3   0.187458 0.632132 0.466059 -0.235552
C112  C     C_3   0.812542 0.632132 0.533941 -0.235551
C113  C     C_3   0.692935 0.144642 0.547163 -0.229375
C114  C     C_3   0.307065 0.144642 0.452837 -0.229374
C115  C     C_3   0.192934 0.644642 0.547163 -0.229375
C116  C     C_3   0.807065 0.644642 0.452837 -0.229373
C117  C     C_3   0.756326 0.938498 0.480623 -0.218993
C118  C     C_3   0.243674 0.938498 0.519377 -0.218991
C119  C     C_3   0.256326 0.438498 0.480623 -0.218991
C120  C     C_3   0.743674 0.438499 0.519377 -0.218992
Cr1   Cr    Cr6+3 0.885690 0.492860 0.745310 1.048138
Cr2   Cr    Cr6+3 0.114310 0.492860 0.254690 1.048138
Cr3   Cr    Cr6+3 0.385690 0.992860 0.745310 1.048138
Cr4   Cr    Cr6+3 0.614310 0.992860 0.254690 1.048138
Cr5   Cr    Cr6+3 0.729880 0.332270 0.748190 1.051360
Cr6   Cr    Cr6+3 0.270120 0.332270 0.251810 1.051360
Cr7   Cr    Cr6+3 0.229880 0.832270 0.748190 1.051360
Cr8   Cr    Cr6+3 0.770120 0.832270 0.251810 1.051361
Cr9   Cr    Cr6+3 0.888120 0.178590 0.753010 1.007828
Cr10  Cr    Cr6+3 0.111880 0.178590 0.246990 1.007828
Cr11  Cr    Cr6+3 0.388120 0.678590 0.753010 1.007828
Cr12  Cr    Cr6+3 0.611880 0.678590 0.246990 1.007828
H1    H     H_    0.638758 0.095248 0.451436 0.130513
H2    H     H_    0.361242 0.095250 0.548564 0.130513
H3    H     H_    0.138758 0.595251 0.451436 0.130514
H4    H     H_    0.861241 0.595248 0.548563 0.130513
H5    H     H_    0.863554 0.067296 0.539283 0.126527
H6    H     H_    0.136445 0.067297 0.460717 0.126526
H7    H     H_    0.363554 0.567297 0.539284 0.126526
H8    H     H_    0.636445 0.567298 0.460717 0.126526
H9    H     H_    0.808503 0.908234 0.469109 0.127400
H10   H     H_    0.191497 0.908233 0.530892 0.127400
H11   H     H_    0.308503 0.408233 0.469109 0.127399
H12   H     H_    0.691497 0.408234 0.530892 0.127400
H13   H     H_    0.796152 0.909332 0.588319 0.122911
H14   H     H_    0.203846 0.909333 0.411682 0.122911
H15   H     H_    0.296153 0.409333 0.588318 0.122911
H16   H     H_    0.703846 0.409333 0.411682 0.122911
H17   H     H_    0.046544 0.149392 0.442126 0.131805
H18   H     H_    0.953456 0.149392 0.557874 0.131805
H19   H     H_    0.546543 0.649392 0.442126 0.131805
H20   H     H_    0.453456 0.649393 0.557874 0.131805
H21   H     H_    0.959643 0.159570 0.434570 0.108956
H22   H     H_    0.040357 0.159571 0.565430 0.108956
H23   H     H_    0.459642 0.659572 0.434570 0.108956
H24   H     H_    0.540356 0.659570 0.565430 0.108956
H25   H     H_    0.616000 0.891222 0.455029 0.110227
H26   H     H_    0.384000 0.891221 0.544970 0.110227
H27   H     H_    0.116000 0.391220 0.455029 0.110227
H28   H     H_    0.884000 0.391221 0.544970 0.110227
H29   H     H_    0.599880 0.834725 0.575841 0.106626
H30   H     H_    0.400120 0.834727 0.424158 0.106626
H31   H     H_    0.099879 0.334726 0.575842 0.106626
H32   H     H_    0.900120 0.334726 0.424158 0.106626
H33   H     H_    0.938583 0.478075 0.418099 0.127300
H34   H     H_    0.061416 0.478075 0.581901 0.127300
H35   H     H_    0.438584 0.978075 0.418099 0.127300
H36   H     H_    0.561416 0.978074 0.581901 0.127300
H37   H     H_    0.947883 0.500633 0.536313 0.130746
H38   H     H_    0.052117 0.500633 0.463687 0.130747
H39   H     H_    0.447883 0.000633 0.536313 0.130746
H40   H     H_    0.552116 0.000633 0.463687 0.130746
H41   H     H_    0.821995 0.924301 0.058794 0.164188
H42   H     H_    0.178005 0.924302 0.941206 0.164188
H43   H     H_    0.321995 0.424301 0.058794 0.164188
H44   H     H_    0.678005 0.424302 0.941206 0.164188
H45   H     H_    0.687678 0.221068 0.441000 0.109192
H46   H     H_    0.312322 0.221069 0.559000 0.109192
H47   H     H_    0.187679 0.721069 0.441000 0.109192
H48   H     H_    0.812323 0.721068 0.559000 0.109191
H49   H     H_    0.862131 0.060187 0.073014 0.140851
H50   H     H_    0.137869 0.060187 0.926986 0.140850
H51   H     H_    0.362131 0.560187 0.073014 0.140850
H52   H     H_    0.637869 0.560187 0.926986 0.140850
H53   H     H_    0.871607 0.075298 0.954419 0.153255
H54   H     H_    0.128393 0.075298 0.045581 0.153255
H55   H     H_    0.371607 0.575298 0.954419 0.153255
H56   H     H_    0.628393 0.575297 0.045581 0.153255
H57   H     H_    0.825515 0.946130 0.941139 0.123740
H58   H     H_    0.174485 0.946130 0.058861 0.123740
H59   H     H_    0.325515 0.446130 0.941139 0.123740
H60   H     H_    0.674485 0.446129 0.058861 0.123740
H61   H     H_    0.667226 0.950693 0.054260 0.062248
H62   H     H_    0.332774 0.950693 0.945739 0.062248
H63   H     H_    0.167226 0.450693 0.054261 0.062248
H64   H     H_    0.832774 0.450693 0.945739 0.062248
H65   H     H_    0.709796 0.938579 0.933391 0.104792
H66   H     H_    0.290203 0.938579 0.066609 0.104792
H67   H     H_    0.209796 0.438579 0.933391 0.104792
H68   H     H_    0.790204 0.438579 0.066609 0.104792
H69   H     H_    0.716743 0.257347 0.091491 0.125043
H70   H     H_    0.283257 0.257347 0.908508 0.125043
H71   H     H_    0.216743 0.757347 0.091491 0.125043
H72   H     H_    0.783257 0.757347 0.908509 0.125043
H73   H     H_    0.806534 0.241045 0.082881 0.120244
H74   H     H_    0.193466 0.241046 0.917118 0.120244
H75   H     H_    0.306534 0.741045 0.082881 0.120244
H76   H     H_    0.693466 0.741046 0.917118 0.120244
H77   H     H_    0.781852 0.297661 0.961375 0.084304
H78   H     H_    0.218148 0.297661 0.038625 0.084303
H79   H     H_    0.281852 0.797661 0.961375 0.084304
H80   H     H_    0.718148 0.797661 0.038625 0.084303
H81   H     H_    0.698473 0.253208 0.970885 0.188856
H82   H     H_    0.301527 0.253208 0.029115 0.188856
H83   H     H_    0.198473 0.753208 0.970885 0.188856
H84   H     H_    0.801527 0.753208 0.029115 0.188856
H85   H     H_    0.649150 0.102679 0.044505 0.190904
H86   H     H_    0.350850 0.102679 0.955495 0.190904
H87   H     H_    0.149150 0.602679 0.044505 0.190904
H88   H     H_    0.850850 0.602679 0.955495 0.190904
H89   H     H_    0.687083 0.236912 0.563196 0.138782
H90   H     H_    0.312918 0.236912 0.436804 0.138782
H91   H     H_    0.187082 0.736912 0.563196 0.138782
H92   H     H_    0.812919 0.736912 0.436804 0.138781
H93   H     H_    0.067084 0.502787 0.026655 0.163712
H94   H     H_    0.932916 0.502787 0.973344 0.163712
H95   H     H_    0.567084 0.002787 0.026655 0.163712
H96   H     H_    0.432916 0.002787 0.973345 0.163712
H97   H     H_    0.614679 0.786878 0.044940 0.114166
H98   H     H_    0.385321 0.786878 0.955060 0.114166
H99   H     H_    0.114679 0.286878 0.044940 0.114166
H100  H     H_    0.885321 0.286878 0.955060 0.114166
H101  H     H_    0.597813 0.865562 0.926608 0.187317
H102  H     H_    0.402187 0.865562 0.073392 0.187317
H103  H     H_    0.097813 0.365562 0.926608 0.187317
H104  H     H_    0.902187 0.365562 0.073392 0.187316
H105  H     H_    0.935232 0.218702 0.086196 0.122437
H106  H     H_    0.064768 0.218702 0.913803 0.122437
H107  H     H_    0.435232 0.718702 0.086196 0.122437
H108  H     H_    0.564768 0.718702 0.913803 0.122437
H109  H     H_    0.952024 0.184545 0.965335 0.150298
H110  H     H_    0.047976 0.184545 0.034665 0.150298
H111  H     H_    0.452024 0.684545 0.965335 0.150298
H112  H     H_    0.547976 0.684545 0.034665 0.150298
H113  H     H_    0.649432 0.099775 0.573130 0.112457
H114  H     H_    0.350568 0.099774 0.426870 0.112456
H115  H     H_    0.149432 0.599774 0.573129 0.112456
H116  H     H_    0.850568 0.599773 0.426870 0.112456
H117  H     H_    0.721759 0.868327 0.464134 0.108479
H118  H     H_    0.278241 0.868328 0.535866 0.108479
H119  H     H_    0.221758 0.368328 0.464134 0.108478
H120  H     H_    0.778241 0.368328 0.535866 0.108478
H121  H     H_    0.706016 0.922968 0.585155 0.107539
H122  H     H_    0.293983 0.922967 0.414845 0.107539
H123  H     H_    0.206017 0.422967 0.585155 0.107538
H124  H     H_    0.793983 0.422967 0.414845 0.107538
H125  H     H_    0.854503 0.090980 0.420716 0.125766
H126  H     H_    0.145496 0.090978 0.579284 0.125766
H127  H     H_    0.354504 0.590976 0.420717 0.125766
H128  H     H_    0.645497 0.590980 0.579284 0.125766
H129  H     H_    0.803840 0.221941 0.427497 0.105630
H130  H     H_    0.196159 0.221942 0.572504 0.105629
H131  H     H_    0.303842 0.721940 0.427495 0.105629
H132  H     H_    0.696160 0.721942 0.572504 0.105629
H133  H     H_    0.842145 0.219392 0.547333 0.110315
H134  H     H_    0.157854 0.219393 0.452667 0.110314
H135  H     H_    0.342145 0.719393 0.547333 0.110315
H136  H     H_    0.657855 0.719393 0.452667 0.110314
O1    O     O_R   0.957210 0.449410 0.665480 -0.524832
O2    O     O_R   0.042790 0.449410 0.334520 -0.524832
O3    O     O_R   0.457210 0.949410 0.665480 -0.524832
O4    O     O_R   0.542790 0.949410 0.334520 -0.524831
O5    O     O_R   0.736260 0.212010 0.826560 -0.442590
O6    O     O_R   0.263740 0.212010 0.173440 -0.442591
O7    O     O_R   0.236260 0.712010 0.826560 -0.442590
O8    O     O_R   0.763740 0.712010 0.173440 -0.442590
O9    O     O_R   0.832520 0.095300 0.836000 -0.544753
O10   O     O_R   0.167480 0.095300 0.164000 -0.544753
O11   O     O_R   0.332520 0.595300 0.836000 -0.544753
O12   O     O_R   0.667480 0.595300 0.164000 -0.544753
O13   O     O_R   0.946380 0.253940 0.826940 -0.519533
O14   O     O_R   0.053620 0.253940 0.173060 -0.519533
O15   O     O_R   0.446380 0.753940 0.826940 -0.519533
O16   O     O_R   0.553620 0.753940 0.173060 -0.519533
O17   O     O_3   0.834560 0.334570 0.748840 -0.299625
O18   O     O_3   0.165440 0.334570 0.251160 -0.299625
O19   O     O_3   0.334560 0.834570 0.748840 -0.299625
O20   O     O_3   0.665440 0.834570 0.251160 -0.299625
O21   O     O_R   0.820730 0.541240 0.668250 -0.517530
O22   O     O_R   0.179270 0.541240 0.331750 -0.517530
O23   O     O_R   0.320730 0.041240 0.668250 -0.517530
O24   O     O_R   0.679270 0.041240 0.331750 -0.517530
O25   O     O_R   0.714240 0.455060 0.663710 -0.532482
O26   O     O_R   0.285760 0.455060 0.336290 -0.532482
O27   O     O_R   0.214240 0.955060 0.663710 -0.532482
O28   O     O_R   0.785760 0.955060 0.336290 -0.532481
O29   O     O_R   0.736780 0.204870 0.675910 -0.509844
O30   O     O_R   0.263220 0.204870 0.324090 -0.509843
O31   O     O_R   0.236780 0.704870 0.675910 -0.509843
O32   O     O_R   0.763220 0.704870 0.324090 -0.509843
O33   O     O_R   0.833070 0.087590 0.673490 -0.528192
O34   O     O_R   0.166930 0.087590 0.326510 -0.528192
O35   O     O_R   0.333070 0.587590 0.673490 -0.528192
O36   O     O_R   0.666930 0.587590 0.326510 -0.528192
O37   O     O_R   0.946890 0.246800 0.676300 -0.513740
O38   O     O_R   0.053110 0.246800 0.323700 -0.513741
O39   O     O_R   0.446890 0.746800 0.676300 -0.513740
O40   O     O_R   0.553110 0.746800 0.323700 -0.513740
O41   O     O_R   0.956650 0.457120 0.827980 -0.446845
O42   O     O_R   0.043350 0.457120 0.172020 -0.446845
O43   O     O_R   0.456650 0.957120 0.827980 -0.446845
O44   O     O_R   0.543350 0.957120 0.172020 -0.446845
O45   O     O_R   0.820220 0.548390 0.818890 -0.501556
O46   O     O_R   0.179780 0.548390 0.181110 -0.501557
O47   O     O_R   0.320220 0.048390 0.818890 -0.501557
O48   O     O_R   0.679780 0.048390 0.181110 -0.501557
O49   O     O_R   0.713680 0.462770 0.826210 -0.520333
O50   O     O_R   0.286320 0.462770 0.173790 -0.520333
O51   O     O_R   0.213680 0.962770 0.826210 -0.520333
O52   O     O_R   0.786320 0.962770 0.173790 -0.520333
F1    F     F_    0.646912 0.073902 0.914447 -0.605842
F2    F     F_    0.353088 0.073902 0.085553 -0.605842
F3    F     F_    0.146912 0.573902 0.914447 -0.605842
F4    F     F_    0.853088 0.573903 0.085553 -0.605842
Cl1   Cl    Cl    0.986183 0.613425 0.085637 -0.461836
Cl2   Cl    Cl    0.013816 0.613425 0.914363 -0.461837
Cl3   Cl    Cl    0.486183 0.113425 0.085637 -0.461837
Cl4   Cl    Cl    0.513816 0.113425 0.914363 -0.461837

loop_
_geom_bond_atom_site_label_1
_geom_bond_atom_site_label_2
_ccdc_geom_bond_type
C78   H94   S    
C97   O45   A    
C72   F4    S    
C82   C94   S    
C119  H11   S    
C10   C110  S    
C7    H127  S    
C120  H12   S    
C41   C61   S    
C53   C69   S    
C104  O12   A    
C43   C63   S    
Cr5   O5    S    
C44   C64   S    
C63   C98   S    
C31   H40   S    
C28   C40   S    
C36   H36   S    
C30   C38   S    
Cr9   O37   S    
C56   C72   S    
C105  O13   A    
C21   H5    S    
C8    H132  S    
C84   H98   S    
C18   C118  S    
C81   C86   S    
C108  O16   A    
C83   C88   S    
C74   H82   S    
C111  H47   S    
C90   O2    A    
C41   C49   S    
C54   H86   S    
Cr5   O17   S    
Cr2   O46   S    
C109  H1    S    
Cr7   O19   S    
Cr8   O20   S    
C118  H118  S    
C18   H14   S    
C26   C38   S    
Cr10  O38   S    
C14   C114  S    
C83   H112  S    
C60   C76   S    
C24   H8    S    
C111  H3    S    
C43   H51   S    
C120  H120  S    
C81   H110  S    
C30   H37   S    
C47   O31   A    
C22   H134  S    
C54   C70   S    
C68   C72   S    
C75   H79   S    
C97   O49   A    
C13   C21   S    
C98   O46   A    
C102  O6    A    
C99   O51   A    
C113  H89   S    
C31   H25   S    
C19   H123  S    
C64   C97   S    
C17   H13   S    
C15   C115  S    
C20   C120  S    
Cr7   O27   S    
C115  H91   S    
Cr8   O28   S    
C59   C63   S    
C46   O30   A    
Cr7   O7    S    
Cr4   O24   S    
C57   C61   S    
C82   C85   S    
C71   F3    S    
C60   C64   S    
Cr9   O17   S    
C13   C45   S    
C66   C70   S    
C78   C94   S    
C113  H113  S    
C23   H135  S    
C86   H106  S    
C95   C108  S    
C62   C99   S    
C5    C21   S    
C58   H70   S    
C81   H99   S    
C108  O44   A    
C110  H46   S    
C31   C36   S    
C48   O32   A    
C55   C71   S    
Cr6   O26   S    
C6    C22   S    
C54   H62   S    
Cr2   O22   S    
C65   C101  S    
Cr10  O18   S    
C43   C51   S    
Cr11  O15   S    
C67   C103  S    
C18   H122  S    
C88   H101  S    
C37   C90   S    
C73   H77   S    
C66   C74   S    
C25   H17   S    
C57   C73   S    
C105  O41   A    
C53   C61   S    
C60   H72   S    
C107  O43   A    
C56   H88   S    
C87   C95   S    
Cr5   O49   S    
C56   C64   S    
C7    H131  S    
C45   O33   A    
C104  O8    A    
C85   H105  S    
C112  H48   S    
C76   H80   S    
C69   F1    S    
Cr6   O6    S    
C70   H66   S    
C1    C12   S    
C43   H43   S    
C112  H4    S    
C2    C11   S    
C7    C11   S    
C53   H85   S    
Cr12  O12   S    
C87   H107  S    
C42   H42   S    
C55   H87   S    
C25   C26   S    
C106  O14   A    
C8    H128  S    
C5    C9    S    
C119  H119  S    
C93   C106  S    
C8    C12   S    
C5    H125  S    
C6    H130  S    
C51   C67   S    
C42   C50   S    
Cr6   O18   S    
Cr3   O47   S    
C110  H2    S    
C61   C100  S    
C79   Cl3   S    
C50   H54   S    
Cr1   O1    S    
C112  C116  S    
C51   H59   S    
C58   C74   S    
Cr3   O3    S    
Cr11  O39   S    
Cr4   O4    S    
C78   Cl2   S    
C33   H33   S    
C44   H44   S    
C68   C76   S    
C13   C17   S    
C98   O50   A    
C2    O22   A    
C99   O47   A    
C103  O7    A    
C7    C23   S    
C8    C24   S    
C40   C91   S    
Cr7   O31   S    
C67   C75   S    
Cr1   O41   S    
C57   H69   S    
Cr3   O43   S    
C52   H56   S    
C4    C9    S    
Cr10  O34   S    
C91   O39   A    
C58   C62   S    
C5    H129  S    
C88   C96   S    
C94   C105  S    
C77   H93   S    
C53   H61   S    
C12   C112  S    
C73   H81   S    
C14   C46   S    
C59   H71   S    
C77   C78   S    
C42   H50   S    
C15   C19   S    
Cr9   O33   S    
C101  O9    A    
C92   O4    A    
C58   H74   S    
C59   H75   S    
C88   H108  S    
C2    O26   A    
C41   H41   S    
C21   H133  S    
C56   H64   S    
Cr7   O51   S    
C116  H116  S    
Cr8   O52   S    
Cr8   O32   S    
C15   C47   S    
Cr3   O23   S    
Cr11  O11   S    
C17   C117  S    
C42   C62   S    
C19   C119  S    
C24   H136  S    
C27   H23   S    
C41   H49   S    
Cr12  O40   S    
C16   C116  S    
C100  O48   A    
C20   H124  S    
C115  H115  S    
C9    C109  S    
C25   H21   S    
C80   Cl4   S    
C26   H18   S    
C117  H117  S    
C60   H76   S    
C83   H97   S    
C48   O36   A    
C11   C111  S    
C29   C34   S    
C33   C37   S    
C82   H109  S    
C45   O29   A    
C116  H92   S    
C117  H9    S    
C4    O24   A    
C79   C95   S    
C89   O37   A    
Cr5   O29   S    
C76   H84   S    
Cr1   O17   S    
C80   H96   S    
Cr3   O19   S    
Cr4   O20   S    
Cr12  O16   S    
C32   H39   S    
C39   C92   S    
Cr11  O35   S    
C27   H19   S    
C14   C18   S    
C106  O42   A    
C68   C104  S    
C6    C10   S    
C71   H67   S    
C1    O25   A    
C54   C62   S    
C22   H6    S    
C6    H126  S    
C103  O11   A    
C107  O15   A    
C14   C22   S    
C114  H114  S    
C65   C69   S    
C77   C93   S    
Cr4   O44   S    
C84   H111  S    
C67   C71   S    
C50   H58   S    
C19   H15   S    
C51   H55   S    
Cr2   O2    S    
C3    O27   A    
C109  H45   S    
Cr12  O36   S    
C29   C37   S    
C34   H34   S    
C92   O40   A    
C55   H63   S    
C85   H104  S    
C9    C117  S    
C66   C102  S    
C35   C39   S    
C84   C87   S    
C3    O23   A    
C11   C119  S    
C16   C48   S    
C29   H27   S    
Cr12  O20   S    
C30   H28   S    
C38   C89   S    
C17   H121  S    
C87   H102  S    
C49   C65   S    
C74   H78   S    
C89   O1    A    
C23   H7    S    
C91   O3    A    
C52   H60   S    
C49   H57   S    
Cr1   O45   S    
C57   H73   S    
Cr2   O42   S    
C65   C73   S    
C84   C96   S    
Cr4   O48   S    
Cr8   O8    S    
C86   C94   S    
C25   C37   S    
C12   C120  S    
C27   C39   S    
C35   H35   S    
Cr9   O9    S    
C29   H38   S    
C80   C96   S    
C44   H52   S    
C52   C68   S    
C16   C20   S    
C70   F2    S    
C15   C23   S    
C16   C24   S    
C69   H65   S    
C101  O5    A    
C85   C93   S    
C102  O10   A    
C79   H95   S    
C32   H26   S    
C35   H30   S    
C1    O21   A    
C32   C35   S    
C36   C40   S    
C33   H32   S    
C34   H31   S    
Cr6   O50   S    
C114  H90   S    
C55   C63   S    
Cr10  O10   S    
C46   O34   A    
C10   C118  S    
C72   H68   S    
C81   C93   S    
C83   C95   S    
C20   H16   S    
C82   H100  S    
C49   H53   S    
Cr9   O13   S    
C50   C66   S    
C100  O52   A    
C28   H20   S    
C26   H22   S    
C59   C75   S    
C110  C114  S    
C30   C33   S    
C34   C38   S    
C77   Cl1   S    
C96   C107  S    
C47   O35   A    
C4    O28   A    
C118  H10   S    
Cr5   O25   S    
C90   O38   A    
Cr6   O30   S    
C109  C113  S    
C86   H103  S    
Cr1   O21   S    
Cr2   O18   S    
Cr10  O14   S    
C3    C10   S    
Cr11  O19   S    
C44   C52   S    
C36   H29   S    
C75   H83   S    
C31   C39   S    
C32   C40   S    
C79   C80   S    
C27   C28   S    
C28   H24   S    
C111  C115  S    
C13   C113  S    
