data_mof_unit_16635.cif
_audit_creation_date              2012-12-11T18:09:22-0500
_audit_creation_method            fapswitch 2.2
_symmetry_space_group_name_H-M    P1
_symmetry_Int_Tables_number       1
_space_group_crystal_system       triclinic
_cell_length_a                    8.279865
_cell_length_b                    12.651737
_cell_length_c                    19.067385
_cell_angle_alpha                 99.683084
_cell_angle_beta                  91.612605
_cell_angle_gamma                 98.286106
_cell_volume                      1945.5756585

loop_
_atom_site_label
_atom_site_type_symbol
_atom_type_description
_atom_site_fract_x
_atom_site_fract_y
_atom_site_fract_z
_atom_type_partial_charge
Ba1   Ba    Ba6+2 0.853180 0.547790 0.465300 1.665741
Ba2   Ba    Ba6+2 0.336650 0.452300 0.534710 1.676647
C1    C     C_3   0.628106 0.896156 0.237918 -0.419050
C2    C     C_R   0.022430 0.542723 0.727557 0.135162
C3    C     C_R   0.848439 0.412619 0.811373 -0.201329
C4    C     C_3   0.143043 0.782904 0.269869 0.351742
C5    C     C_R   0.780698 0.425195 0.745915 -0.000878
C6    C     C_R   0.339328 0.590856 0.190196 -0.170190
C7    C     C_R   0.407724 0.577958 0.255499 0.006890
C8    C     C_R   0.128022 0.441861 0.198648 -0.147831
C9    C     C_R   0.169740 0.455948 0.272703 0.054620
C10   C     C_R   0.983202 0.486355 0.845728 -0.013313
C11   C     C_R   0.874671 0.481153 0.701701 -0.169700
C12   C     C_3   0.664237 0.822222 0.289588 0.346168
C13   C     C_R   0.207104 0.514854 0.155377 0.000911
C14   C     C_R   0.316179 0.518736 0.298913 -0.244013
C15   C     C_R   0.757599 0.428040 0.963847 -0.054677
C16   C     C_3   0.114375 0.816962 0.198254 -0.364827
C17   C     C_R   0.655890 0.393791 0.014946 -0.070653
C18   C     C_R   0.706967 0.422777 0.085807 -0.076940
C19   C     C_R   0.863655 0.477899 0.103935 -0.076863
C20   C     C_R   0.982781 0.483928 0.053107 0.011210
C21   C     C_R   0.926899 0.466218 0.979249 0.031279
C22   C     C_R   0.151354 0.512508 0.076264 -0.016237
C23   C     C_3   0.463365 0.278357 0.317651 0.309727
C24   C     C_R   0.262831 0.533707 0.022123 0.038196
C25   C     C_R   0.207114 0.515847 0.948237 0.012782
C26   C     C_R   0.038407 0.488122 0.925010 -0.018228
C27   C     C_R   0.432252 0.570736 0.037835 -0.080724
C28   C     C_3   0.255463 0.792417 0.624245 0.728268
C29   C     C_R   0.534935 0.603380 0.986671 -0.085928
C30   C     C_R   0.484373 0.573186 0.915793 -0.069530
C31   C     C_R   0.326690 0.519895 0.897541 -0.077322
C32   C     C_R   0.763761 0.182884 0.527685 -0.264356
C33   C     C_R   0.441022 0.805332 0.463467 -0.252127
C34   C     C_3   0.440691 0.244384 0.237203 -0.390829
C35   C     C_R   0.405734 0.983693 0.444355 -0.104150
C36   C     C_R   0.345598 0.874209 0.438004 0.005935
C37   C     C_R   0.583942 0.847337 0.505748 0.048480
C38   C     C_R   0.645651 0.960039 0.514734 -0.060583
C39   C     C_R   0.556547 0.027995 0.481484 -0.059207
C40   C     C_3   0.279317 0.915083 0.643818 -0.202779
C41   C     C_R   0.618074 0.139258 0.488058 0.043466
C42   C     C_R   0.855646 0.116988 0.558167 -0.038518
C43   C     C_R   0.794528 0.006869 0.554092 -0.099767
C44   C     C_3   0.957637 0.210506 0.380738 0.283994
C45   C     C_3   0.009120 0.188545 0.725990 0.383863
C46   C     C_3   0.952483 0.088464 0.366599 -0.342534
C47   C     C_3   0.682148 0.723818 0.689593 0.648789
C48   C     C_3   0.594134 0.759983 0.756886 -0.349886
C49   C     C_3   0.994060 0.000495 0.811239 -0.220537
C50   C     C_3   0.073502 0.193008 0.802685 0.012111
C51   C     C_3   0.536002 0.180827 0.716207 0.520716
C52   C     C_3   0.553935 0.104520 0.768969 0.168483
C53   C     C_R   0.064775 0.557362 0.801734 -0.134591
H1    H     H_    0.758733 0.866688 0.330449 0.083674
H2    H     H_    0.614744 0.644889 0.662376 0.079413
H3    H     H_    0.582144 0.968447 0.267088 0.100706
H4    H     H_    0.660127 0.837508 0.787251 0.076466
H5    H     H_    0.587581 0.697574 0.791329 0.099589
H6    H     H_    0.468688 0.772542 0.743106 0.090278
H7    H     H_    0.550801 0.803025 0.317867 -0.072291
H8    H     H_    0.533491 0.852349 0.196808 0.111173
H9    H     H_    0.348172 0.303341 0.338166 0.012788
H10   H     H_    0.563741 0.348236 0.329447 0.075960
H11   H     H_    0.337583 0.176604 0.223443 0.122554
H12   H     H_    0.333073 0.939312 0.698858 0.023716
H13   H     H_    0.413666 0.313853 0.212600 0.058256
H14   H     H_    0.554117 0.217804 0.215397 0.125346
H15   H     H_    0.740575 0.922867 0.211324 0.124936
H16   H     H_    0.163858 0.762078 0.155332 0.067076
H17   H     H_    0.988948 0.271620 0.720635 -0.058321
H18   H     H_    0.891436 0.133027 0.715550 -0.013511
H19   H     H_    0.180641 0.258324 0.814388 0.093372
H20   H     H_    0.979960 0.215383 0.840720 0.073311
H21   H     H_    0.657888 0.201901 0.694928 -0.186521
H22   H     H_    0.453378 0.137259 0.670464 -0.001401
H23   H     H_    0.361055 0.952245 0.606719 0.025281
H24   H     H_    0.604268 0.032469 0.741638 -0.003774
H25   H     H_    0.082586 0.697698 0.267032 0.059478
H26   H     H_    0.432362 0.078010 0.788347 0.070311
H27   H     H_    0.164653 0.620331 0.823262 0.059480
H28   H     H_    0.794599 0.344712 0.833985 0.139342
H29   H     H_    0.392950 0.659239 0.167348 0.061526
H30   H     H_    0.029845 0.377938 0.176660 0.072567
H31   H     H_    0.828144 0.481803 0.648170 0.064825
H32   H     H_    0.363058 0.517588 0.352301 0.059408
H33   H     H_    0.693350 0.430780 0.915289 0.079920
H34   H     H_    0.159402 0.944619 0.641319 0.140525
H35   H     H_    0.529690 0.358854 0.000379 0.081927
H36   H     H_    0.620951 0.409621 0.126236 0.097393
H37   H     H_    0.276975 0.788594 0.280173 -0.069154
H38   H     H_    0.893164 0.516120 0.158021 0.131412
H39   H     H_    0.495293 0.568476 0.086888 0.078197
H40   H     H_    0.661459 0.637379 0.001286 0.078100
H41   H     H_    0.571955 0.583123 0.875633 0.091254
H42   H     H_    0.297191 0.480730 0.843604 0.126538
H43   H     H_    0.330237 0.033217 0.421579 0.099772
H44   H     H_    0.867708 0.959281 0.579958 0.115557
H45   H     H_    0.833950 0.229696 0.391371 0.000982
H46   H     H_    0.811604 0.267902 0.530844 0.055648
H47   H     H_    0.397716 0.719157 0.454714 0.044152
H48   H     H_    0.981736 0.813156 0.186104 0.149813
H49   H     H_    0.176444 0.901129 0.199415 0.111031
H50   H     H_    0.377062 0.766023 0.618936 -0.142264
H51   H     H_    0.899612 0.781144 0.731442 0.305033
H52   H     H_    0.201967 0.101116 0.857972 0.193118
H53   H     H_    0.047774 0.928602 0.821548 0.097430
H54   H     H_    0.929223 0.979256 0.757877 0.125418
H55   H     H_    0.906289 0.019634 0.852804 0.102627
H56   H     H_    0.041907 0.244230 0.428029 0.073498
H57   H     H_    0.654295 0.106616 0.861716 0.295855
H58   H     H_    0.205720 0.703930 0.531095 0.288139
H59   H     H_    0.876256 0.052872 0.317462 0.114809
H60   H     H_    0.900573 0.052307 0.411566 0.076842
H61   H     H_    0.077892 0.069112 0.359591 0.140565
N1    N     N_2   0.123346 0.091320 0.813537 -0.405760
O1    O     O_2   0.875110 0.423180 0.326290 -0.455145
O2    O     O_2   0.189653 0.122282 0.545515 -0.470947
O3    O     O_3   0.122916 0.152078 0.678110 -0.589842
O4    O     O_3   0.123410 0.433040 0.414950 -0.503596
O5    O     O_3   0.577950 0.634370 0.536140 -0.513260
O6    O     O_2   0.341900 0.231310 0.465740 -0.464352
O7    O     O_3   0.501723 0.190556 0.347727 -0.651763
O8    O     O_2   0.471924 0.480580 0.752809 -0.511862
O9    O     O_3   0.466618 0.270783 0.749625 -0.581297
O10   O     O_3   0.661010 0.625070 0.369680 -0.467918
O11   O     O_2   0.714903 0.520328 0.247050 -0.504376
O12   O     O_3   0.691457 0.805556 0.647774 -0.671307
O13   O     O_3   0.010167 0.250441 0.319862 -0.635318
O14   O     O_3   0.724166 0.731261 0.252024 -0.590415
O15   O     O_2   0.847800 0.768730 0.534310 -0.386750
O16   O     O_3   0.082250 0.684470 0.405440 -0.474183
O17   O     O_2   0.016869 0.879938 0.456877 -0.450427
O18   O     O_3   0.839758 0.709252 0.709072 -0.778660
O19   O     O_3   0.659044 0.157019 0.827035 -0.761469
O20   O     O_3   0.159246 0.763194 0.560546 -0.681798
O21   O     O_3   0.076256 0.852061 0.322856 -0.607840
O22   O     O_2   0.314600 0.576860 0.673750 -0.502411
O23   O     O_3   0.066300 0.567050 0.585060 -0.462962
O24   O     O_3   0.528700 0.375020 0.630330 -0.464265
O25   O     O_3   0.176199 0.749933 0.679606 -0.631773
O26   O     O_3   0.611760 0.365720 0.463870 -0.486441
O27   O     O_3   0.107460 0.315620 0.594570 -0.479798
P1    P     P_3+3 0.042930 0.392230 0.337410 0.974745
P2    P     P_3+3 0.672230 0.754900 0.555730 0.998061
P3    P     P_3+3 0.132157 0.823248 0.405882 0.985936
P4    P     P_3+3 0.146790 0.607860 0.662600 1.035784
P5    P     P_3+3 0.065980 0.175272 0.593625 0.957233
P6    P     P_3+3 0.625998 0.614367 0.279091 0.944681
P7    P     P_3+3 0.520831 0.229806 0.440455 0.928458
P8    P     P_3+3 0.562854 0.387263 0.721284 0.974805

loop_
_geom_bond_atom_site_label_1
_geom_bond_atom_site_label_2
_ccdc_geom_bond_type
O2    P5    D    
C12   H1    S    
C8    H30   S    
C38   C39   A    
C15   H33   S    
Ba2   O27   S    
C51   H22   S    
C17   C18   A    
C50   H20   S    
O23   P4    S    
Ba2   O6    S    
C25   C31   A    
O17   P3    D    
O3    P5    S    
C35   C36   A    
C10   C26   S    
C48   H4    S    
C7    C14   A    
C22   C24   A    
Ba1   O15   S    
C50   H19   S    
C8    C13   A    
O10   P6    S    
C27   H39   S    
C3    H28   S    
C34   H11   S    
Ba2   P4    S    
C2    P4    S    
C47   H2    S    
O15   P2    D    
Ba1   Ba2   S    
C2    C11   A    
Ba1   O5    S    
C15   C17   A    
O9    P8    S    
C49   H53   S    
C11   H31   S    
C14   H32   S    
O16   P3    S    
C31   H42   S    
C46   H61   S    
C50   N1    S    
C33   H47   S    
O26   P7    S    
C47   O18   S    
C49   H54   S    
C28   O20   S    
C44   H56   S    
O13   P1    S    
Ba2   O26   S    
C39   C41   A    
Ba1   P2    S    
H57   O19   S    
Ba1   O16   S    
C35   H43   S    
O6    P7    D    
C12   O14   S    
Ba2   O5    S    
C38   C43   A    
C4    C16   S    
C18   H36   S    
C44   C46   S    
C7    P6    S    
C32   H46   S    
O25   P4    S    
C1    H15   S    
C32   C42   A    
C45   H18   S    
C3    C10   A    
C43   H44   S    
C37   C38   A    
C3    C5    A    
C9    P1    S    
C51   C52   S    
C47   O12   S    
C23   H9    S    
C4    O21   S    
C33   C37   A    
O27   P5    S    
Ba1   O26   S    
O8    P8    D    
C9    C14   A    
C4    H25   S    
C29   C30   A    
C15   C21   A    
O21   P3    S    
C52   O19   S    
C33   C36   A    
C6    C7    A    
O22   P4    D    
C16   H49   S    
C21   C26   A    
C18   C19   A    
C53   H27   S    
C1    C12   S    
O12   P2    S    
Ba1   O23   S    
C46   H60   S    
O11   P6    D    
H51   O18   S    
C30   H41   S    
O7    P7    S    
C40   H23   S    
C49   H55   S    
C8    C9    A    
C28   H50   S    
C24   C25   A    
C40   H12   S    
C20   C22   A    
C51   H21   S    
Ba1   P1    S    
Ba2   O22   S    
C41   P7    S    
C34   H14   S    
C46   H59   S    
C52   H24   S    
Ba2   O4    S    
C16   H16   S    
Ba2   O24   S    
C44   H45   S    
C13   C22   S    
C42   C43   A    
C6    H29   S    
C48   H6    S    
O1    P1    D    
C32   C41   A    
Ba1   O10   S    
C44   O13   S    
C34   H13   S    
C45   C50   S    
C1    H8    S    
C6    C13   A    
C42   P5    S    
C28   O25   S    
C40   H34   S    
C48   H5    S    
C30   C31   A    
Ba2   O23   S    
C2    C53   A    
C17   H35   S    
C16   H48   S    
C19   H38   S    
C4    H37   S    
H58   O20   S    
C37   P2    S    
C49   N1    S    
O4    P1    S    
Ba1   O1    S    
O5    P2    S    
C35   C39   A    
C23   O7    S    
Ba1   O4    S    
C36   P3    S    
C10   C53   A    
C51   O9    S    
C23   C34   S    
C5    P8    S    
C1    H3    S    
C5    C11   A    
C45   H17   S    
C24   C27   A    
C27   C29   A    
C47   C48   S    
C25   C26   A    
C23   H10   S    
C45   O3    S    
C20   C21   A    
C28   C40   S    
O14   P6    S    
C29   H40   S    
C19   C20   A    
H52   N1    S    
C52   H26   S    
O24   P8    S    
C12   H7    S    
