data_mof_unit_31891.cif
_audit_creation_date              2012-10-26T18:28:55-0400
_audit_creation_method            fapswitch 2.2
_symmetry_space_group_name_H-M    P1
_symmetry_Int_Tables_number       1
_space_group_crystal_system       triclinic
_cell_length_a                    11.661795
_cell_length_b                    12.999898
_cell_length_c                    15.803328
_cell_angle_alpha                 92.546977
_cell_angle_beta                  73.827616
_cell_angle_gamma                 99.909868
_cell_volume                      2266.66396122

loop_
_atom_site_label
_atom_site_type_symbol
_atom_type_description
_atom_site_fract_x
_atom_site_fract_y
_atom_site_fract_z
_atom_type_partial_charge
C1    C     C_R   0.520719 0.700883 0.501565 0.548184
C2    C     C_R   0.351704 0.015295 0.484528 -0.139505
C3    C     C_R   0.636835 0.876572 0.516455 -0.136993
C4    C     C_R   0.361919 0.123392 0.486117 -0.133988
C5    C     C_R   0.437181 0.860790 0.493073 -0.134105
C6    C     C_R   0.561365 0.139216 0.509895 -0.138491
C7    C     C_R   0.446357 0.968780 0.495266 0.048107
C8    C     C_R   0.551927 0.031199 0.508207 0.047556
C9    C     C_R   0.942013 0.600391 0.579256 -0.169040
C10   C     C_R   0.057729 0.399022 0.421174 -0.175007
C11   C     C_R   0.823158 0.590067 0.572163 0.055974
C12   C     C_R   0.479019 0.299119 0.499006 0.548809
C13   C     C_R   0.176280 0.408801 0.428805 0.050834
C14   C     C_R   0.858732 0.455978 0.466139 0.038594
C15   C     C_R   0.141444 0.544354 0.533513 0.032749
C16   C     C_R   0.426544 0.495177 0.668350 0.540533
C17   C     C_R   0.573315 0.504740 0.331651 0.544836
C18   C     C_R   0.978969 0.463279 0.471329 0.000461
C19   C     C_R   0.021095 0.536759 0.528531 0.006469
C20   C     C_R   0.380848 0.487821 0.764740 -0.020260
C21   C     C_R   0.615311 0.497503 0.235269 -0.017455
C22   C     C_R   0.216156 0.468843 0.898652 -0.134032
C23   C     C_R   0.341544 0.484424 0.090965 0.263854
C24   C     C_R   0.753674 0.444632 0.103246 -0.134996
C25   C     C_R   0.256620 0.475580 0.807117 -0.132849
C26   C     C_R   0.725375 0.465307 0.193187 -0.134257
C27   C     C_R   0.463025 0.490255 0.814818 -0.102404
C28   C     C_R   0.536772 0.512459 0.186057 -0.091118
C29   C     C_R   0.423167 0.472776 0.906190 0.015079
C30   C     C_R   0.555651 0.480425 0.097773 0.028452
C31   C     C_R   0.299124 0.469856 0.948337 -0.004750
C32   C     C_R   0.669386 0.450372 0.055712 -0.007801
C33   C     C_R   0.503674 0.460925 0.956781 -0.022132
C34   C     C_R   0.616923 0.427121 0.917821 0.245133
C35   C     C_R   0.466708 0.477299 0.050010 -0.000641
C36   C     C_3   0.218772 0.566253 0.207308 -0.028280
C37   C     C_3   0.254251 0.636027 0.279024 -0.380051
C38   C     C_3   0.599029 0.286083 0.828811 -0.013992
C39   C     C_3   0.620746 0.252097 0.732994 -0.364292
C40   C     C_R   0.259275 0.470471 0.039493 -0.122696
C41   C     C_R   0.697785 0.423799 0.967177 -0.110511
C42   C     C_R   0.466896 0.185697 0.498481 -0.000620
C43   C     C_R   0.532150 0.814299 0.503539 -0.000074
C44   C     C_R   0.646599 0.984660 0.518889 -0.141514
Cu1   Cu    Cu3+1 0.386820 0.492450 0.493500 0.925186
Cu2   Cu    Cu3+1 0.613180 0.507550 0.506500 0.927138
H1    H     H_    0.163198 0.465333 0.071328 0.099274
H2    H     H_    0.191122 0.473564 0.769863 0.132058
H3    H     H_    0.120185 0.463834 0.930647 0.101984
H4    H     H_    0.839820 0.420371 0.071392 0.098762
H5    H     H_    0.642503 0.186856 0.519879 0.116801
H6    H     H_    0.356076 0.813186 0.482997 0.116706
H7    H     H_    0.288013 0.158090 0.477207 0.127933
H8    H     H_    0.710960 0.841856 0.524944 0.126055
H9    H     H_    0.727925 0.031717 0.528966 0.100432
H10   H     H_    0.270277 0.968229 0.474629 0.100586
H11   H     H_    0.175000 0.600430 0.577334 0.116071
H12   H     H_    0.783473 0.398474 0.935604 0.121942
H13   H     H_    0.825310 0.400206 0.422049 0.110909
H14   H     H_    0.124158 0.525467 0.233814 0.144308
H15   H     H_    0.221189 0.619161 0.152869 0.118499
H16   H     H_    0.341530 0.688322 0.250802 0.130661
H17   H     H_    0.183612 0.684855 0.307679 0.101839
H18   H     H_    0.264119 0.588444 0.332043 0.196259
H19   H     H_    0.499398 0.272037 0.860145 0.136518
H20   H     H_    0.642948 0.237421 0.862527 0.130948
H21   H     H_    0.719390 0.263942 0.699594 0.160179
H22   H     H_    0.582612 0.168136 0.729536 0.094433
H23   H     H_    0.236506 0.358975 0.390024 0.144468
H24   H     H_    0.576134 0.298534 0.698203 0.178617
H25   H     H_    0.762687 0.639425 0.611383 0.122671
H26   H     H_    0.971686 0.657599 0.623983 0.085446
H27   H     H_    0.028002 0.341655 0.376583 0.092248
H28   H     H_    0.463417 0.551751 0.218711 0.185858
H29   H     H_    0.558394 0.509625 0.781974 0.189565
H30   H     H_    0.788092 0.454100 0.229901 0.118975
N1    N     N_R   0.216750 0.481110 0.483710 -0.242090
N2    N     N_R   0.783250 0.518890 0.516290 -0.227769
O1    O     O_R   0.419950 0.645670 0.495380 -0.515139
O2    O     O_3   0.649500 0.392568 0.831737 -0.577682
O3    O     O_R   0.580050 0.354330 0.504620 -0.513501
O4    O     O_R   0.611110 0.658410 0.506370 -0.507825
O5    O     O_R   0.388890 0.341590 0.493630 -0.504811
O6    O     O_R   0.350820 0.490050 0.621260 -0.498772
O7    O     O_R   0.649180 0.509950 0.378740 -0.500692
O8    O     O_R   0.541970 0.502800 0.632250 -0.506751
O9    O     O_R   0.458030 0.497200 0.367750 -0.501892
O10   O     O_3   0.295922 0.489890 0.181941 -0.580184

loop_
_geom_bond_atom_site_label_1
_geom_bond_atom_site_label_2
_ccdc_geom_bond_type
C40   H1    S    
C21   C26   A    
C4    H7    S    
C27   C29   A    
C39   H22   S    
C14   C18   A    
C2    C7    A    
C9    H26   S    
C28   H28   S    
C37   H16   S    
C7    C8    A    
Cu1   Cu2   S    
C36   O10   S    
C15   C19   A    
C14   H13   S    
C3    C43   A    
C38   O2    S    
C30   C35   A    
C17   O7    A    
C36   C37   S    
Cu1   O9    S    
C24   C26   A    
C41   H12   S    
C38   C39   S    
C33   C35   A    
C10   H27   S    
C11   H25   S    
C20   C25   A    
C23   C40   A    
C29   C33   A    
C16   O6    A    
C31   C40   A    
C18   C19   A    
C12   C42   S    
C34   O2    S    
Cu2   O4    S    
C1    C43   S    
C38   H20   S    
C22   C25   A    
C26   H30   S    
C32   C41   A    
C5    H6    S    
C6    H5    S    
Cu2   O7    S    
C5    C43   A    
C16   O8    A    
C15   H11   S    
Cu1   O5    S    
C34   C41   A    
C27   H29   S    
C37   H17   S    
C9    C19   A    
C24   H4    S    
C13   N1    A    
C3    C44   A    
C22   C31   A    
Cu2   N2    S    
C6    C8    A    
C1    O4    A    
C17   C21   S    
C12   O5    A    
C2    C4    A    
C24   C32   A    
C11   N2    A    
Cu2   O3    S    
C38   H19   S    
C16   C20   S    
C33   C34   A    
Cu1   O1    S    
C9    C11   A    
C25   H2    S    
C22   H3    S    
C21   C28   A    
C23   C35   A    
C23   O10   S    
C1    O1    A    
Cu1   O6    S    
C36   H15   S    
C37   H18   S    
C5    C7    A    
C17   O9    A    
C39   H21   S    
C8    C44   A    
C36   H14   S    
C10   C13   A    
C20   C27   A    
C13   H23   S    
C28   C30   A    
C29   C31   A    
C2    H10   S    
C30   C32   A    
C44   H9    S    
C15   N1    A    
C4    C42   A    
C10   C18   A    
C3    H8    S    
C39   H24   S    
C12   O3    A    
C14   N2    A    
C6    C42   A    
Cu1   N1    S    
Cu2   O8    S    
