data_mof_unit_13201.cif
_audit_creation_date              2012-12-10T21:26:09-0500
_audit_creation_method            fapswitch 2.2
_symmetry_space_group_name_H-M    P1
_symmetry_Int_Tables_number       1
_space_group_crystal_system       triclinic
_cell_length_a                    8.580857
_cell_length_b                    16.153079
_cell_length_c                    16.745387
_cell_angle_alpha                 87.393444
_cell_angle_beta                  90.936897
_cell_angle_gamma                 101.314683
_cell_volume                      2273.50148809

loop_
_atom_site_label
_atom_site_type_symbol
_atom_type_description
_atom_site_fract_x
_atom_site_fract_y
_atom_site_fract_z
_atom_type_partial_charge
C1    C     C_R   0.502682 0.488833 0.653129 0.990957
C2    C     C_R   0.349060 0.145036 0.446783 0.234861
C3    C     C_R   0.627025 0.765076 0.559017 0.494918
C4    C     C_R   0.364548 0.234123 0.445903 0.497900
C5    C     C_R   0.800942 0.522015 0.500920 0.951748
C6    C     C_R   0.199062 0.478003 0.498888 0.975728
C7    C     C_2   0.967094 0.533917 0.501131 -0.373422
C8    C     C_2   0.032900 0.466123 0.498323 -0.342855
C9    C     C_R   0.531747 0.483325 0.738597 -0.347034
C10   C     C_R   0.532980 0.521801 0.261704 -0.343307
C11   C     C_R   0.620457 0.554009 0.774792 -0.382839
C12   C     C_R   0.504009 0.511688 0.346925 0.990193
C13   C     C_R   0.614538 0.466083 0.226525 -0.410384
C14   C     C_R   0.654645 0.550613 0.855622 0.609157
C15   C     C_R   0.648543 0.474985 0.145893 0.623738
C16   C     C_R   0.596853 0.476082 0.901872 0.003476
C17   C     C_R   0.597675 0.539502 0.098831 0.002733
C18   C     C_R   0.518206 0.403184 0.864758 0.327988
C19   C     C_R   0.525946 0.599090 0.135012 0.331635
C20   C     C_R   0.482911 0.407308 0.783283 0.541072
C21   C     C_R   0.490920 0.589271 0.216309 0.545862
C22   C     C_3   0.579211 0.281282 0.915393 -0.136651
C23   C     C_R   0.418520 0.755518 0.463199 -0.226390
C24   C     C_3   0.598842 0.733090 0.084596 -0.129998
C25   C     C_3   0.658640 0.891346 0.694399 -0.152336
C26   C     C_3   0.093027 0.076112 0.456295 -0.086670
C27   C     C_3   0.884084 0.750463 0.578596 -0.192218
C28   C     C_3   0.284174 0.273321 0.321959 -0.170652
C29   C     C_R   0.589679 0.245252 0.531511 -0.213737
C30   C     C_R   0.421685 0.842720 0.464938 0.492517
C31   C     C_R   0.584850 0.157874 0.530137 0.491292
C32   C     C_R   0.528784 0.892930 0.516970 0.017227
C33   C     C_R   0.462524 0.106005 0.487092 0.029354
C34   C     C_R   0.628350 0.852435 0.566032 0.236687
F1    F     F_    0.729687 0.420298 0.114086 -0.629999
F2    F     F_    0.742358 0.620223 0.888526 -0.629352
F3    F     F_    0.397822 0.337958 0.748791 -0.613480
F4    F     F_    0.412537 0.644103 0.249956 -0.617323
F5    F     F_    0.698800 0.125449 0.570858 -0.628422
F6    F     F_    0.320370 0.876505 0.416215 -0.611328
H1    H     H_    0.034791 0.598205 0.503565 0.174686
H2    H     H_    0.704823 0.718724 0.054690 0.174173
H3    H     H_    0.631812 0.757755 0.144861 0.168413
H4    H     H_    0.557871 0.783849 0.048067 0.190108
H5    H     H_    0.636798 0.824758 0.718520 0.170328
H6    H     H_    0.545741 0.915621 0.692026 0.156380
H7    H     H_    0.740054 0.929976 0.736625 0.196220
H8    H     H_    0.050875 0.133923 0.472867 0.181522
H9    H     H_    0.119276 0.039276 0.510999 0.161843
H10   H     H_    0.994581 0.036060 0.423809 0.192399
H11   H     H_    0.938188 0.814096 0.599224 0.201537
H12   H     H_    0.965243 0.401826 0.495764 0.191018
H13   H     H_    0.892672 0.749239 0.512315 0.155687
H14   H     H_    0.955786 0.705707 0.604799 0.168572
H15   H     H_    0.231750 0.211053 0.297751 0.202263
H16   H     H_    0.412900 0.290790 0.306986 0.143870
H17   H     H_    0.224535 0.321061 0.291277 0.183556
H18   H     H_    0.653630 0.415865 0.261712 0.221472
H19   H     H_    0.664765 0.612028 0.740349 0.254942
H20   H     H_    0.681567 0.284330 0.565682 0.204455
H21   H     H_    0.335451 0.717268 0.423946 0.229212
H22   H     H_    0.686987 0.315042 0.946705 0.176618
H23   H     H_    0.610961 0.262969 0.855349 0.167501
H24   H     H_    0.532903 0.222286 0.951074 0.191322
N1    N     N_2   0.604154 0.473487 0.985992 -0.029657
N2    N     N_2   0.605584 0.543298 0.014768 -0.029455
N3    N     N_R   0.519180 0.718290 0.509780 -0.179275
N4    N     N_R   0.480820 0.281710 0.490220 -0.174043
N5    N     N_2   0.542958 0.982772 0.522829 -0.023543
N6    N     N_2   0.447258 0.016055 0.481513 -0.018216
O1    O     O_R   0.493140 0.422050 0.612640 -0.566809
O2    O     O_3   0.474197 0.661835 0.089191 -0.540351
O3    O     O_3   0.731454 0.899261 0.618853 -0.571835
O4    O     O_3   0.226007 0.096218 0.405631 -0.573928
O5    O     O_3   0.726299 0.724798 0.605766 -0.587616
O6    O     O_3   0.256378 0.273448 0.404812 -0.578878
O7    O     O_R   0.506860 0.577950 0.387360 -0.568368
O8    O     O_R   0.505450 0.562230 0.618920 -0.592701
O9    O     O_R   0.494550 0.437770 0.381080 -0.619853
O10   O     O_R   0.723530 0.446300 0.497600 -0.632687
O11   O     O_R   0.276470 0.553700 0.502400 -0.630383
O12   O     O_R   0.735850 0.586490 0.503880 -0.601434
O13   O     O_R   0.264150 0.413510 0.496120 -0.562656
O14   O     O_3   0.460017 0.330192 0.909759 -0.544598
Zn1   Zn    Zn3+2 0.491780 0.406400 0.495810 1.013530
Zn2   Zn    Zn3+2 0.508220 0.593600 0.504190 1.004014

loop_
_geom_bond_atom_site_label_1
_geom_bond_atom_site_label_2
_ccdc_geom_bond_type
N4    Zn1   S    
C24   H2    S    
C28   H16   S    
C27   H14   S    
C7    C8    D    
C28   H17   S    
C17   N2    S    
C1    O1    A    
C19   C21   A    
C26   H10   S    
C14   F2    S    
C11   C14   A    
C11   H19   S    
C12   O9    A    
C23   N3    A    
C26   O4    S    
C22   H23   S    
O1    Zn1   S    
C21   F4    S    
C18   O14   S    
C31   C33   A    
C3    O5    S    
C25   H7    S    
C18   C20   A    
O11   Zn2   S    
C2    O4    S    
C26   H8    S    
O8    Zn2   S    
C6    O11   A    
C1    O8    A    
C19   O2    S    
C27   O5    S    
C15   F1    S    
C28   H15   S    
C27   H11   S    
C10   C21   A    
C23   C30   A    
C1    C9    S    
C26   H9    S    
C4    N4    A    
C6    C8    S    
C13   H18   S    
C3    C34   A    
O12   Zn2   S    
C5    O12   A    
C32   C34   A    
C2    C4    A    
O10   Zn1   S    
C22   H22   S    
C29   N4    A    
C9    C20   A    
C29   H20   S    
C12   O7    A    
C30   F6    S    
C5    O10   A    
C9    C11   A    
C10   C12   S    
C33   N6    S    
C2    C33   A    
O13   Zn1   S    
O7    Zn2   S    
C13   C15   A    
C24   H4    S    
C14   C16   A    
C28   O6    S    
C25   H5    S    
O9    Zn1   S    
C24   O2    S    
C5    C7    S    
C15   C17   A    
C8    H12   S    
N3    Zn2   S    
C6    O13   A    
C3    N3    A    
C10   C13   A    
C27   H13   S    
C32   N5    S    
C29   C31   A    
C30   C32   A    
C20   F3    S    
C17   C19   A    
C31   F5    S    
C25   O3    S    
C7    H1    S    
N5    N6    D    
C4    O6    S    
C34   O3    S    
C22   H24   S    
C23   H21   S    
C16   C18   A    
N1    N2    D    
C24   H3    S    
C16   N1    S    
C25   H6    S    
C22   O14   S    
