data_mof_unit_58592.cif
_audit_creation_date              2012-12-11T17:23:14-0500
_audit_creation_method            fapswitch 2.2
_symmetry_space_group_name_H-M    P1
_symmetry_Int_Tables_number       1
_space_group_crystal_system       triclinic
_cell_length_a                    22.465057
_cell_length_b                    7.093103
_cell_length_c                    19.407934
_cell_angle_alpha                 90.000966
_cell_angle_beta                  99.308502
_cell_angle_gamma                 90.000239
_cell_volume                      3051.87119997

loop_
_atom_site_label
_atom_site_type_symbol
_atom_type_description
_atom_site_fract_x
_atom_site_fract_y
_atom_site_fract_z
_atom_type_partial_charge
O1    O     O_R   0.443980 0.494320 0.557430 -0.531250
O2    O     O_R   0.556020 0.994320 0.442570 -0.531247
O3    O     O_R   0.441210 0.822520 0.414610 -0.541734
O4    O     O_R   0.558790 0.322520 0.585390 -0.541695
C1    C     C_R   0.426452 0.654936 0.389181 0.687648
C2    C     C_R   0.573546 0.154941 0.610820 0.687624
O5    O     O_R   0.436920 0.823940 0.555180 -0.539770
O6    O     O_R   0.563080 0.323940 0.444820 -0.539763
O7    O     O_R   0.551700 0.995760 0.584140 -0.530624
O8    O     O_R   0.448300 0.495760 0.415860 -0.530619
C3    C     C_R   0.421558 0.655376 0.574819 0.718359
C4    C     C_R   0.578441 0.155375 0.425181 0.718321
O9    O     O_3   0.537660 0.661290 0.509340 -0.368157
O10   O     O_3   0.462340 0.161290 0.490660 -0.368178
V1    V     V_3+5 0.493010 0.935560 0.498270 1.460034
V2    V     V_3+5 0.506990 0.435560 0.501730 1.460089
H1    H     H_    0.707700 0.817369 0.293904 0.116152
H2    H     H_    0.291408 0.317358 0.704974 0.116269
C5    C     C_R   0.769205 0.931831 0.230350 -0.147628
C6    C     C_R   0.230298 0.431816 0.769023 -0.147736
H3    H     H_    0.783430 0.793894 0.215399 0.113006
H4    H     H_    0.215685 0.293872 0.783482 0.112948
C7    C     C_R   0.793760 0.095215 0.205183 0.136404
C8    C     C_R   0.206245 0.595203 0.794822 0.136418
C9    C     C_R   0.774487 0.272178 0.225514 -0.147272
C10   C     C_R   0.226016 0.772176 0.775119 -0.147207
H5    H     H_    0.792851 0.400038 0.206773 0.114083
H6    H     H_    0.208044 0.900040 0.794353 0.114155
C11   C     C_R   0.731337 0.285581 0.270320 -0.146793
C12   C     C_R   0.269163 0.785587 0.730311 -0.146832
H7    H     H_    0.717120 0.423521 0.285276 0.114620
H8    H     H_    0.283769 0.923534 0.715847 0.114540
C13   C     C_R   0.706805 0.122196 0.295519 0.134027
C14   C     C_R   0.293193 0.622201 0.704480 0.134026
C15   C     C_R   0.726056 0.945232 0.275157 -0.142790
C16   C     C_R   0.273444 0.445226 0.724214 -0.142752
C17   C     C_1   0.838803 0.081618 0.159082 -0.057235
C18   C     C_1   0.161201 0.581611 0.840922 -0.057247
C19   C     C_1   0.661848 0.135793 0.341740 -0.042637
C20   C     C_1   0.338150 0.635797 0.658260 -0.042631
C21   C     C_1   0.624065 0.145824 0.380018 -0.162191
C22   C     C_1   0.375934 0.645827 0.619981 -0.162178
C23   C     C_1   0.876649 0.071588 0.120893 -0.183423
C24   C     C_1   0.123355 0.571585 0.879110 -0.183380
C25   C     C_R   0.628131 0.089366 0.801893 -0.088309
C26   C     C_R   0.371872 0.588998 0.198123 -0.088316
H9    H     H_    0.542671 0.095591 0.735062 0.128701
H10   H     H_    0.457328 0.595244 0.264959 0.128702
H11   H     H_    0.606748 0.072065 0.847665 0.178581
H12   H     H_    0.393256 0.571520 0.152360 0.178580
C27   C     C_R   0.615706 0.142574 0.677529 -0.120345
C28   C     C_R   0.384296 0.642545 0.322469 -0.120385
C29   C     C_R   0.908527 0.049571 0.762008 -0.212030
C30   C     C_R   0.091465 0.549834 0.237996 -0.212033
C31   C     C_R   0.872068 0.019750 0.698272 -0.156624
C32   C     C_R   0.127915 0.520132 0.301745 -0.156638
C33   C     C_R   0.809408 0.020920 0.692780 0.046127
C34   C     C_R   0.190576 0.521198 0.307244 0.046133
C35   C     C_R   0.781673 0.074177 0.751069 -0.012079
C36   C     C_R   0.218323 0.574224 0.248939 -0.012081
C37   C     C_R   0.819094 0.079454 0.818525 -0.016114
C38   C     C_R   0.180907 0.579365 0.181478 -0.016109
C39   C     C_R   0.717788 0.103976 0.745630 -0.029345
C40   C     C_R   0.282212 0.603930 0.254373 -0.029328
C41   C     C_R   0.691319 0.091658 0.807037 0.006392
C42   C     C_R   0.308683 0.591383 0.192973 0.006401
C43   C     C_R   0.727563 0.087779 0.873155 0.269974
C44   C     C_R   0.272443 0.587363 0.126854 0.269985
C45   C     C_R   0.791229 0.082415 0.879186 0.216878
C46   C     C_R   0.208776 0.582089 0.120819 0.216850
C47   C     C_R   0.679501 0.155298 0.681978 0.329673
C48   C     C_R   0.320501 0.655379 0.318009 0.329636
C49   C     C_R   0.591129 0.105389 0.737595 -0.239004
C50   C     C_R   0.408871 0.605138 0.262418 -0.238976
C51   C     C_R   0.883470 0.069966 0.822860 -0.050204
C52   C     C_R   0.116529 0.569996 0.177141 -0.050197
H13   H     H_    0.957049 0.041800 0.764684 0.109814
H14   H     H_    0.042940 0.542164 0.235319 0.109809
H15   H     H_    0.893142 0.984231 0.653498 0.126917
H16   H     H_    0.106833 0.484795 0.346530 0.126914
O11   O     O_R   0.051730 0.724670 0.084120 -0.534751
O12   O     O_R   0.948270 0.224670 0.915880 -0.534702
O13   O     O_R   0.063080 0.393540 0.944820 -0.538990
O14   O     O_R   0.936920 0.893540 0.055180 -0.539005
C53   C     C_R   0.077763 0.562032 0.924313 0.770609
C54   C     C_R   0.922238 0.062033 0.075688 0.770587
O15   O     O_R   0.058800 0.395030 0.085390 -0.538457
O16   O     O_R   0.941200 0.895030 0.914610 -0.538498
O17   O     O_R   0.943980 0.223310 0.057440 -0.531110
O18   O     O_R   0.056020 0.723310 0.942560 -0.531147
C55   C     C_R   0.073225 0.563622 0.110925 0.789863
C56   C     C_R   0.926775 0.063617 0.889075 0.789861
O19   O     O_3   0.962360 0.556290 0.990650 -0.375305
O20   O     O_3   0.037640 0.056290 0.009350 -0.375323
V3    V     V_3+5 0.006980 0.281990 0.001730 1.464987
V4    V     V_3+5 0.993020 0.781990 0.998270 1.464921
C57   C     C_1   0.776428 0.931483 0.631171 0.367145
N1    N     N_1   0.750256 0.859105 0.581943 -0.340121
C58   C     C_1   0.223539 0.431891 0.368889 0.367173
N2    N     N_1   0.249697 0.359618 0.418147 -0.340184
O21   O     O_3   0.826437 0.070071 0.944159 -0.662439
H17   H     H_    0.805330 0.990089 0.974448 0.288450
O22   O     O_3   0.173570 0.569598 0.055848 -0.662457
H18   H     H_    0.194668 0.489472 0.025594 0.288475
O23   O     O_3   0.699527 0.097712 0.931510 -0.649413
H19   H     H_    0.726313 0.164605 0.969255 0.305681
O24   O     O_3   0.300485 0.597067 0.068499 -0.649412
H20   H     H_    0.273705 0.663861 0.030722 0.305671
O25   O     O_3   0.705268 0.233585 0.628478 -0.643757
H21   H     H_    0.673722 0.271164 0.589297 0.285838
O26   O     O_3   0.294741 0.733871 0.371477 -0.643778
H22   H     H_    0.326294 0.771632 0.410626 0.285884

loop_
_geom_bond_atom_site_label_1
_geom_bond_atom_site_label_2
_ccdc_geom_bond_type
C42   C44   A    
C39   C41   A    
O17   V3    S    
O21   H17   S    
O15   C55   A    
C5    C7    A    
O26   H22   S    
O1    C3    A    
O2    C4    A    
C2    O7    A    
O16   V4    S    
C57   N1    T    
C19   C21   T    
C37   C51   A    
O5    C3    A    
C13   C19   S    
C14   C20   S    
C36   C38   A    
C5    H3    S    
C8    C10   A    
C26   C42   A    
C28   C50   A    
C33   C35   A    
C34   C36   A    
C11   C13   A    
O12   C56   A    
C38   C46   A    
C3    C22   S    
C25   C49   A    
O14   V4    S    
C6    C8    A    
O16   C56   A    
C41   C43   A    
O15   V3    S    
C8    C18   S    
O24   H20   S    
C1    C28   S    
C44   O24   S    
C2    C27   S    
O5    V1    S    
C48   O26   S    
C33   C57   S    
O6    V2    S    
C38   C52   A    
C29   C51   A    
C27   C47   A    
C29   C31   A    
C9    C11   A    
C30   C32   A    
C35   C37   A    
C12   C14   A    
H10   C50   S    
H9    C49   S    
O4    C2    A    
O11   V4    S    
C46   O22   S    
C43   O23   S    
C6    C16   A    
C7    C17   S    
C43   C45   A    
C40   C42   A    
O4    V2    S    
C29   H13   S    
C18   C24   T    
C4    C21   S    
C28   C48   A    
C31   H15   S    
C58   N2    T    
C25   H11   S    
O6    C4    A    
O13   V3    S    
O1    V2    S    
O20   V4    S    
O2    V1    S    
C51   C56   S    
C30   C52   A    
O13   C53   A    
C6    H4    S    
C10   C12   A    
O19   V4    S    
C31   C33   A    
C25   C41   A    
C17   C23   T    
C24   C53   S    
C26   C50   A    
O3    V1    S    
C37   C45   A    
O12   V3    S    
C23   C54   S    
C10   H6    S    
C34   C58   S    
C27   C49   A    
C39   C47   A    
O3    C1    A    
C54   O17   A    
C53   O18   A    
O18   V4    S    
C45   O21   S    
C9    H5    S    
O23   H19   S    
C26   H12   S    
C35   C39   A    
C32   H16   S    
C36   C40   A    
O7    V1    S    
C1    O8    A    
C11   H7    S    
C5    C15   A    
O25   H21   S    
C12   H8    S    
O19   V3    S    
C47   O25   S    
C20   C22   T    
C13   C15   A    
C32   C34   A    
C14   C16   A    
C40   C48   A    
O20   V3    S    
C52   C55   S    
O11   C55   A    
C7    C9    A    
C44   C46   A    
O9    V2    S    
O22   H18   S    
O10   V1    S    
O14   C54   A    
O8    V2    S    
H1    C15   S    
H2    C16   S    
C30   H14   S    
