data_mof_unit_40462.cif
_audit_creation_date              2013-03-05T15:44:21-0500
_audit_creation_method            fapswitch 2.2
_symmetry_space_group_name_H-M    P1
_symmetry_Int_Tables_number       1
_space_group_crystal_system       triclinic
_cell_length_a                    10.790142
_cell_length_b                    10.706823
_cell_length_c                    10.070978
_cell_angle_alpha                 90.289227
_cell_angle_beta                  89.252388
_cell_angle_gamma                 90.823918
_cell_volume                      1163.2482883

loop_
_atom_site_label
_atom_site_type_symbol
_atom_site_description
_atom_site_fract_x
_atom_site_fract_y
_atom_site_fract_z
_atom_type_partial_charge
O1    O     O_R   0.499980 0.319060 0.613040 -0.564079
O2    O     O_R   0.500020 0.319100 0.386900 -0.532797
C1    C     C_R   0.505773 0.262845 0.499330 0.923169
O3    O     O_R   0.314770 0.499960 0.613070 -0.568059
O4    O     O_R   0.314820 0.500000 0.386930 -0.547395
C2    C     C_R   0.257497 0.503883 0.501390 1.022106
Zn1   Zn    Zn3+2 0.499970 0.499970 0.650990 1.205927
Zn2   Zn    Zn3+2 0.500030 0.500030 0.349010 1.116603
O5    O     O_R   0.499980 0.680900 0.613100 -0.556176
O6    O     O_R   0.500020 0.680940 0.386960 -0.594233
O7    O     O_R   0.685180 0.500000 0.613070 -0.520231
O8    O     O_R   0.685230 0.500040 0.386930 -0.611611
C3    C     C_R   0.495779 0.736867 0.499983 0.813193
C4    C     C_R   0.740050 0.481267 0.499902 0.923740
C5    C     C_3   0.069667 0.449736 0.646671 0.137467
H1    H     H_    0.122879 0.363937 0.667702 0.225542
C6    C     C_3   0.929980 0.404718 0.630569 0.538437
C7    C     C_3   0.064956 0.633913 0.484145 0.660123
C8    C     C_3   0.076917 0.404226 0.389084 0.662852
C9    C     C_3   0.119959 0.500110 0.504683 -0.425595
C10   C     C_3   0.876787 0.478994 0.501710 -0.462632
C11   C     C_3   0.919472 0.623132 0.504242 0.628012
C12   C     C_3   0.933962 0.417770 0.367078 0.602144
C13   C     C_2   0.545227 0.930559 0.402475 -0.354939
C14   C     C_2   0.480934 0.868676 0.496382 0.331616
H2    H     H_    0.606079 0.882546 0.332592 0.174289
C15   C     C_2   0.531582 0.063609 0.387338 0.518071
C16   C     C_2   0.530379 0.132506 0.498619 -0.213078
H3    H     H_    0.549337 0.090836 0.594470 0.188261
C17   C     C_2   0.502685 0.598162 0.932770 0.297282
N1    N     N_2   0.501360 0.501330 0.852150 -0.006374
C18   C     C_2   0.463424 0.591113 0.075972 0.518336
N2    N     N_2   0.501390 0.501360 0.147810 -0.158951
H4    H     H_    0.566869 0.443955 0.105290 0.172231
S1    S     S_3+6 0.104539 0.548100 0.797144 0.166010
O9    O     O_2   0.224759 0.620182 0.790446 -0.218494
O10   O     O_2   0.007847 0.643042 0.828345 -0.156304
O11   O     O_3   0.114973 0.453488 0.928590 -0.424782
H5    H     H_    0.080029 0.501138 0.004447 0.408923
O12   O     O_3   0.920269 0.503763 0.261911 -0.700812
H6    H     H_    0.839416 0.490762 0.218126 0.391497
O13   O     O_3   0.096177 0.676621 0.355456 -0.720808
H7    H     H_    0.071589 0.765166 0.347096 0.383797
O14   O     O_3   0.862071 0.690940 0.401536 -0.729354
H8    H     H_    0.778844 0.717940 0.432460 0.339054
O15   O     O_3   0.391885 0.926445 0.574703 -0.709051
H9    H     H_    0.343819 0.861333 0.623537 0.396628
O16   O     O_3   0.517865 0.115207 0.262781 -0.658662
H10   H     H_    0.519829 0.046874 0.195921 0.367129
S2    S     S_3+6 0.569017 0.744426 0.887672 0.065409
O17   O     O_2   0.668885 0.731664 0.783721 -0.201820
O18   O     O_2   0.468969 0.827678 0.838143 -0.279673
O19   O     O_3   0.631240 0.810889 0.023616 -0.556280
H11   H     H_    0.655186 0.896692 0.996117 0.407377
S3    S     S_3+6 0.420996 0.364365 0.901780 0.150096
O20   O     O_2   0.339484 0.317045 0.792538 -0.206175
O21   O     O_2   0.514072 0.265752 0.932144 -0.240155
O22   O     O_3   0.326211 0.381025 0.034507 -0.517557
H12   H     H_    0.303945 0.294810 0.062117 0.417954
O23   O     O_3   0.391605 0.682181 0.134514 -0.670037
H13   H     H_    0.362506 0.738111 0.063709 0.369977
O24   O     O_3   0.933495 0.277387 0.597904 -0.668335
H14   H     H_    0.846836 0.247902 0.585041 0.376717
S4    S     S_3+6 0.842774 0.396965 0.790215 0.143511
O25   O     O_2   0.726243 0.320481 0.772005 -0.276822
O26   O     O_2   0.918281 0.327218 0.888640 -0.173907
O27   O     O_3   0.801942 0.534773 0.855680 -0.421261
H15   H     H_    0.776201 0.516074 0.948339 0.358090
O28   O     O_3   0.118136 0.718029 0.576265 -0.705583
H16   H     H_    0.087752 0.803213 0.558175 0.349193
O29   O     O_3   0.882940 0.675083 0.626991 -0.656247
H17   H     H_    0.886785 0.767529 0.619810 0.366208
O30   O     O_3   0.138902 0.419437 0.264367 -0.678799
H18   H     H_    0.136183 0.506294 0.233284 0.422286
O31   O     O_3   0.106766 0.283338 0.433482 -0.688213
H19   H     H_    0.127867 0.229128 0.356314 0.418503
S5    S     S_3+6 0.869201 0.268180 0.303909 0.042617
O32   O     O_2   0.731158 0.274454 0.294235 -0.312749
O33   O     O_2   0.920594 0.251040 0.165717 -0.180606
O34   O     O_3   0.904930 0.139005 0.389159 -0.516030
H20   H     H_    0.858073 0.070161 0.345783 0.384292

loop_
_geom_bond_atom_site_label_1
_geom_bond_atom_site_label_2
_geom_bond_distance
_ccdc_geom_bond_type
C15   O16   1.383774 S    
S3    O20   1.499153 D    
O30   H18   0.983695 S    
C8    C9    1.616576 S    
C13   C15   1.443272 S    
S5    O32   1.496444 D    
Zn1   O7    2.029701 S    
C16   H3    1.088510 S    
C4    C10   1.476321 S    
C1    C16   1.424258 S    
S1    O10   1.496435 D    
C13   H2    1.088440 S    
C7    O13   1.411524 S    
C6    S4    1.853894 S    
C17   N1    1.313646 D    
O7    C4    1.293518 A    
C5    H1    1.112986 S    
C5    C6    1.585900 S    
O5    C3    1.291484 A    
C11   O14   1.420501 S    
S1    O9    1.500776 D    
S2    O18   1.501650 D    
C7    O28   1.411265 S    
C17   S2    1.771290 S    
O1    Zn1   1.972425 S    
C10   C11   1.604335 S    
C3    C14   1.423301 S    
O3    Zn1   2.039385 S    
C5    S1    1.880050 S    
N2    H4    1.030653 S    
S5    O33   1.502770 D    
C10   C12   1.621584 S    
C5    C9    1.615317 S    
S2    O19   1.682847 S    
Zn1   N1    2.026105 S    
O27   H15   0.990735 S    
S4    O27   1.675456 S    
C8    O30   1.424229 S    
S1    O11   1.676886 S    
O11   H5    0.990034 S    
C13   C14   1.338152 D    
O3    C2    1.291525 A    
O22   H12   0.990751 S    
O19   H11   0.990604 S    
C6    C10   1.639810 S    
O23   H13   0.990570 S    
O1    C1    1.292223 A    
S4    O26   1.500008 D    
C8    C12   1.570081 S    
O31   H19   0.993645 S    
O24   H14   0.992494 S    
C6    O24   1.401750 S    
Zn2   O8    2.039385 S    
S2    O17   1.499727 D    
C12   S5    1.851321 S    
O16   H10   0.992086 S    
O8    C4    1.306916 A    
S3    O21   1.502887 D    
O13   H7    0.992415 S    
C18   O23   1.379436 S    
C11   O29   1.406987 S    
O14   H8    0.993121 S    
S5    O34   1.683605 S    
Zn1   O5    1.976299 S    
O15   H9    0.991599 S    
O12   H6    0.990377 S    
C7    C11   1.582814 S    
O2    Zn2   1.976297 S    
O34   H20   0.990743 S    
O6    C3    1.284066 A    
O4    Zn2   2.029699 S    
C2    C9    1.483969 S    
S4    O25   1.503385 D    
C8    O31   1.414404 S    
O2    C1    1.287827 A    
O29   H17   0.993037 S    
C18   N2    1.280934 D    
C17   C18   1.499764 S    
O4    C2    1.301812 A    
C7    C9    1.574173 S    
Zn2   N2    2.026263 S    
O28   H16   0.992138 S    
Zn2   O6    1.972425 S    
S3    O22   1.682768 S    
C15   C16   1.338606 D    
N1    S3    1.764026 S    
C14   O15   1.385772 S    
C12   O12   1.417444 S    
