data_mof_unit_61441.cif
_audit_creation_date              2012-10-26T17:38:02-0400
_audit_creation_method            fapswitch 2.2
_symmetry_space_group_name_H-M    P1
_symmetry_Int_Tables_number       1
_space_group_crystal_system       triclinic
_cell_length_a                    29.410345
_cell_length_b                    29.410892
_cell_length_c                    38.897968
_cell_angle_alpha                 89.949572
_cell_angle_beta                  90.059984
_cell_angle_gamma                 89.990806
_cell_volume                      33646.1067335

loop_
_atom_site_label
_atom_site_type_symbol
_atom_type_description
_atom_site_fract_x
_atom_site_fract_y
_atom_site_fract_z
_atom_type_partial_charge
C1    C     C_R   0.500003 0.914401 0.999876 0.610281
C2    C     C_1   0.229244 0.500003 0.999895 0.036677
C3    C     C_R   0.000007 0.500058 0.895342 -0.062292
C4    C     C_R   0.000068 0.499984 0.605082 -0.073255
C5    C     C_R   0.498709 0.999919 0.604647 -0.058226
C6    C     C_R   0.999930 0.499973 0.395342 -0.062269
C7    C     C_R   0.499438 0.000159 0.394964 -0.071091
C8    C     C_R   0.496812 0.001905 0.284383 0.388275
C9    C     C_R   0.999897 0.499897 0.285259 0.407475
C10   C     C_R   0.497407 0.002932 0.714970 0.394684
C11   C     C_R   0.000125 0.500016 0.715746 0.390156
C12   C     C_R   0.000095 0.500050 0.785259 0.407479
C13   C     C_1   0.500011 0.229244 0.000129 0.036777
C14   C     C_R   0.498511 0.002167 0.784537 0.393624
C15   C     C_R   0.999916 0.499878 0.215745 0.390163
C16   C     C_R   0.494976 0.002804 0.214866 0.390081
C17   C     C_1   0.500009 0.863313 0.999885 0.041275
C18   C     C_1   0.136682 0.499994 0.999928 0.010421
C19   C     C_1   0.500005 0.136683 0.000131 0.017421
C20   C     C_1   0.863318 0.500006 0.999949 0.010677
C21   C     C_1   0.000011 0.363317 0.499930 0.010637
C22   C     C_1   0.636685 0.000018 0.499802 0.012830
C23   C     C_1   0.999989 0.636683 0.499947 0.010641
C24   C     C_1   0.770755 0.499998 0.999961 0.036886
C25   C     C_1   0.363317 0.999995 0.500123 0.026623
C26   C     C_1   0.500010 0.820962 0.999901 0.010020
C27   C     C_1   0.179034 0.499999 0.999902 0.006219
C28   C     C_1   0.500010 0.179034 0.000140 0.008706
C29   C     C_1   0.820966 0.500002 0.999944 0.006401
C30   C     C_1   0.000017 0.320966 0.499905 0.006515
C31   C     C_1   0.679036 0.000030 0.499791 -0.000997
C32   C     C_1   0.999983 0.679034 0.499941 0.006390
C33   C     C_1   0.320966 0.999981 0.500152 0.001826
C34   C     C_2   0.466592 0.922189 0.103575 0.624916
C35   C     C_1   0.000019 0.270755 0.499900 0.037028
C36   C     C_2   0.059514 0.438279 0.104422 0.633740
C37   C     C_2   0.528650 0.081433 0.103518 0.604520
C38   C     C_2   0.940407 0.561592 0.104259 0.633776
C39   C     C_2   0.554294 0.934627 0.895215 0.630608
C40   C     C_2   0.918027 0.475975 0.896398 0.606723
C41   C     C_2   0.445562 0.067015 0.896665 0.631355
C42   C     C_2   0.081973 0.524180 0.896567 0.606713
C43   C     C_2   0.938433 0.440426 0.604360 0.633801
C44   C     C_2   0.581470 0.018917 0.603618 0.601985
C45   C     C_2   0.061718 0.559525 0.604322 0.633772
C46   C     C_1   0.729246 0.000033 0.499823 0.034224
C47   C     C_2   0.415102 0.982277 0.602854 0.606098
C48   C     C_2   0.024067 0.418005 0.396583 0.606753
C49   C     C_2   0.434124 0.944751 0.396172 0.631156
C50   C     C_2   0.975798 0.581945 0.396382 0.606722
C51   C     C_2   0.564875 0.055426 0.395485 0.631631
C52   C     C_2   0.464126 0.923102 0.178337 0.637924
C53   C     C_2   0.056926 0.435922 0.178721 0.642305
C54   C     C_2   0.528623 0.081504 0.178569 0.633029
C55   C     C_2   0.942924 0.563859 0.178558 0.642270
C56   C     C_2   0.553709 0.935836 0.820670 0.641467
C57   C     C_1   0.999981 0.729245 0.499955 0.036862
C58   C     C_2   0.919809 0.470295 0.821578 0.630982
C59   C     C_2   0.444465 0.067739 0.822183 0.641290
C60   C     C_2   0.080313 0.529848 0.821737 0.630877
C61   C     C_2   0.936165 0.442995 0.678655 0.642340
C62   C     C_2   0.581129 0.020950 0.678295 0.618226
C63   C     C_2   0.064074 0.556988 0.678625 0.642255
C64   C     C_2   0.413985 0.983159 0.677558 0.642893
C65   C     C_2   0.029684 0.419663 0.321760 0.630930
C66   C     C_2   0.432882 0.945379 0.321686 0.643441
C67   C     C_2   0.970068 0.580160 0.321555 0.630972
C68   C     C_1   0.270756 0.999975 0.500153 0.030795
C69   C     C_2   0.562787 0.056958 0.320970 0.642478
C70   C     C_1   0.500007 0.728395 0.999931 0.030000
C71   C     C_1   0.271601 0.500003 0.999903 0.031741
C72   C     C_1   0.500010 0.271601 0.000109 0.032051
C73   C     C_R   0.085599 0.499997 0.999970 0.576600
C74   C     C_1   0.728398 0.499997 0.999985 0.032025
C75   C     C_1   0.000016 0.228399 0.499909 0.032131
C76   C     C_1   0.771602 0.000030 0.499859 0.031286
C77   C     C_1   0.999984 0.771601 0.499979 0.031983
C78   C     C_1   0.228399 0.999976 0.500133 0.030114
C79   C     C_1   0.500004 0.678182 0.999945 -0.009130
C80   C     C_1   0.321816 0.500003 0.999923 -0.008270
C81   C     C_1   0.500007 0.321816 0.000078 -0.007848
C82   C     C_1   0.678184 0.499997 0.000017 -0.007956
C83   C     C_1   0.000011 0.178184 0.499930 -0.007880
C84   C     C_R   0.500001 0.085599 0.000102 0.580115
C85   C     C_1   0.821817 0.000021 0.499904 -0.008466
C86   C     C_1   0.999989 0.821816 0.500009 -0.008020
C87   C     C_1   0.178184 0.999982 0.500096 -0.008757
C88   C     C_1   0.500002 0.635824 0.999959 -0.015793
C89   C     C_1   0.364174 0.500002 0.999947 -0.015244
C90   C     C_1   0.500004 0.364174 0.000049 -0.014864
C91   C     C_1   0.635826 0.499998 0.000031 -0.014961
C92   C     C_1   0.000006 0.135826 0.499953 -0.014925
C93   C     C_1   0.864175 0.000012 0.499941 -0.015227
C94   C     C_1   0.999994 0.864174 0.500025 -0.015045
C95   C     C_R   0.914401 0.500003 0.999969 0.576665
C96   C     C_1   0.135826 0.999989 0.500060 -0.015484
C97   C     C_R   0.415273 0.500001 0.999983 0.539367
C98   C     C_R   0.500001 0.415273 0.000015 0.539564
C99   C     C_R   0.584727 0.499999 0.000014 0.539521
C100  C     C_R   0.500000 0.584726 0.999987 0.539279
C101  C     C_R   0.915273 0.000003 0.499983 0.539499
C102  C     C_R   0.999999 0.915273 0.500011 0.539452
C103  C     C_R   0.084727 0.999997 0.500018 0.539413
C104  C     C_R   0.000001 0.084727 0.499986 0.539505
C105  C     C_R   0.500038 0.000947 0.066881 0.597548
C106  C     C_R   0.000003 0.414401 0.499970 0.576579
C107  C     C_R   0.999997 0.499982 0.066995 0.598947
C108  C     C_R   0.499965 0.000126 0.933047 0.604374
C109  C     C_R   0.999992 0.500019 0.933151 0.589047
C110  C     C_R   0.000022 0.499994 0.566995 0.598896
C111  C     C_R   0.499316 0.999971 0.566832 0.591820
C112  C     C_R   0.999978 0.500005 0.433151 0.589016
C113  C     C_R   0.499938 0.000026 0.433024 0.602692
C114  C     C_R   0.482615 0.962904 0.122791 0.011872
C115  C     C_R   0.028640 0.469570 0.123310 0.005884
C116  C     C_R   0.514233 0.040189 0.122810 0.004528
C117  C     C_R   0.585599 0.000002 0.499912 0.590317
C118  C     C_R   0.971270 0.530282 0.123230 0.005914
C119  C     C_R   0.526225 0.968776 0.876545 0.006704
C120  C     C_R   0.960488 0.486651 0.877284 0.007448
C121  C     C_R   0.473130 0.033273 0.877258 0.006845
C122  C     C_R   0.039547 0.513484 0.877364 0.007521
C123  C     C_R   0.969735 0.471300 0.623279 0.005863
C124  C     C_R   0.538592 0.011409 0.622807 0.013546
C125  C     C_R   0.030434 0.528665 0.623261 0.005888
C126  C     C_R   0.457793 0.990797 0.622393 0.010209
C127  C     C_R   0.013348 0.460430 0.377373 0.007535
C128  C     C_R   0.999997 0.585599 0.499969 0.576629
C129  C     C_R   0.467253 0.973332 0.376981 0.006239
C130  C     C_R   0.986483 0.539486 0.377275 0.007460
C131  C     C_R   0.530891 0.027422 0.376632 0.006301
C132  C     C_R   0.479679 0.964036 0.159052 0.014228
C133  C     C_R   0.028010 0.468982 0.159628 0.017361
C134  C     C_R   0.511623 0.041244 0.159122 0.015760
C135  C     C_R   0.971859 0.530821 0.159549 0.017382
C136  C     C_R   0.526000 0.969402 0.840206 0.015461
C137  C     C_R   0.960684 0.486017 0.840942 0.013594
C138  C     C_R   0.472585 0.033642 0.840933 0.015367
C139  C     C_R   0.414400 0.000003 0.500066 0.592591
C140  C     C_R   0.039408 0.514123 0.841021 0.013627
C141  C     C_R   0.969194 0.471916 0.659597 0.017342
C142  C     C_R   0.538173 0.012695 0.659064 0.017037
C143  C     C_R   0.031020 0.528062 0.659581 0.017373
C144  C     C_R   0.457047 0.992545 0.658715 0.018521
C145  C     C_R   0.013962 0.460569 0.341031 0.013617
C146  C     C_R   0.466590 0.973678 0.340639 0.014274
C147  C     C_R   0.985825 0.539290 0.340931 0.013629
C148  C     C_R   0.529897 0.028161 0.340292 0.017854
C149  C     C_R   0.494106 0.003252 0.177042 -0.051283
C150  C     C_1   0.500008 0.770751 0.999919 0.032562
C151  C     C_R   0.999926 0.499891 0.177719 -0.055260
C152  C     C_R   0.499066 0.001746 0.822492 -0.056705
C153  C     C_R   0.000062 0.500066 0.823021 -0.048545
C154  C     C_R   0.000116 0.499995 0.677719 -0.055262
C155  C     C_R   0.497413 0.003069 0.676997 -0.053014
C156  C     C_R   0.999888 0.499917 0.323020 -0.048529
C157  C     C_R   0.497779 0.001247 0.322370 -0.055956
C158  C     C_R   0.500058 0.000912 0.104787 -0.062360
C159  C     C_R   0.999969 0.499943 0.105082 -0.073252
C160  C     C_R   0.499812 0.000733 0.895034 -0.070759
Cu1   Cu    Cu3+1 0.542440 0.000000 0.000000 1.103044
Cu2   Cu    Cu3+1 0.500000 0.500000 0.965730 1.013221
Cu3   Cu    Cu3+1 1.000000 1.000000 0.534270 1.011082
Cu4   Cu    Cu3+1 1.000000 1.000000 0.465730 1.013941
Cu5   Cu    Cu3+1 0.000000 0.542440 0.000000 1.093544
Cu6   Cu    Cu3+1 0.457560 0.000000 0.000000 1.074664
Cu7   Cu    Cu3+1 0.000000 0.457560 0.000000 1.094124
Cu8   Cu    Cu3+1 0.042440 0.500000 0.500000 1.093998
Cu9   Cu    Cu3+1 0.500000 0.042440 0.500000 1.081879
Cu10  Cu    Cu3+1 0.957560 0.500000 0.500000 1.094227
Cu11  Cu    Cu3+1 0.500000 0.957560 0.500000 1.113416
Cu12  Cu    Cu3+1 0.500000 0.500000 0.034270 1.011717
H1    H     H_    0.416925 0.875944 0.096119 0.349923
H2    H     H_    0.631352 0.991535 0.574841 0.335405
H3    H     H_    0.126144 0.580495 0.596389 0.352779
H4    H     H_    0.349622 0.999597 0.594653 0.345720
H5    H     H_    0.063007 0.386745 0.432158 0.340518
H6    H     H_    0.406595 0.882663 0.403320 0.353423
H7    H     H_    0.936991 0.613239 0.431921 0.340516
H8    H     H_    0.593093 0.117182 0.402721 0.353298
H9    H     H_    0.469128 0.855302 0.185308 0.362054
H10   H     H_    0.119402 0.409395 0.186238 0.360398
H11   H     H_    0.518346 0.126458 0.216947 0.371436
H12   H     H_    0.080505 0.373850 0.096526 0.352722
H13   H     H_    0.880439 0.590367 0.185930 0.360290
H14   H     H_    0.571094 0.870167 0.813550 0.361118
H15   H     H_    0.876192 0.480905 0.782293 0.372761
H16   H     H_    0.427090 0.133613 0.816105 0.361080
H17   H     H_    0.123996 0.519240 0.782577 0.372640
H18   H     H_    0.909678 0.380516 0.686142 0.360494
H19   H     H_    0.634261 0.062561 0.687426 0.360417
H20   H     H_    0.090590 0.619464 0.686027 0.360311
H21   H     H_    0.359449 0.942345 0.683608 0.360477
H22   H     H_    0.019066 0.375990 0.282576 0.372733
H23   H     H_    0.571222 0.109320 0.068799 0.342167
H24   H     H_    0.367314 0.926867 0.315691 0.362969
H25   H     H_    0.980637 0.623787 0.282293 0.372694
H26   H     H_    0.628100 0.075469 0.313628 0.360688
H27   H     H_    0.919418 0.626029 0.096275 0.352631
H28   H     H_    0.615887 0.905717 0.901781 0.352869
H29   H     H_    0.886717 0.437142 0.931959 0.340554
H30   H     H_    0.384163 0.095782 0.904373 0.352493
H31   H     H_    0.113222 0.563071 0.932119 0.340427
H32   H     H_    0.874003 0.419426 0.596413 0.352922
N1    N     N_R   0.533319 0.990457 0.231860 -0.180217
N2    N     N_R   0.511010 0.040216 0.732749 -0.155739
N3    N     N_R   0.003379 0.460382 0.733499 -0.158897
N4    N     N_R   0.484428 0.965245 0.732559 -0.158294
N5    N     N_R   0.960236 0.496802 0.267628 -0.150968
N6    N     N_R   0.534214 0.989978 0.266070 -0.163936
N7    N     N_R   0.039567 0.502979 0.267697 -0.151119
N8    N     N_R   0.458488 0.014358 0.267318 -0.152140
N9    N     N_R   0.960268 0.496633 0.233422 -0.158825
N10   N     N_R   0.457576 0.014798 0.233103 -0.113465
N11   N     N_R   0.039554 0.503130 0.233492 -0.158999
N12   N     N_R   0.511535 0.039846 0.766961 -0.158443
N13   N     N_R   0.997006 0.539706 0.767622 -0.151090
N14   N     N_R   0.484921 0.964884 0.766766 -0.158120
N15   N     N_R   0.003204 0.460377 0.767704 -0.151027
N16   N     N_R   0.996860 0.539667 0.733417 -0.158959
O1    O     O_R   0.535830 0.937970 0.000040 -0.471823
O2    O     O_R   0.562030 0.035830 0.500040 -0.471476
O3    O     O_R   0.605806 0.060878 0.672748 -0.618690
O4    O     O_2   0.088757 0.540071 0.700497 -0.460051
O5    O     O_R   0.066858 0.603503 0.671473 -0.642593
O6    O     O_2   0.401326 0.008822 0.700351 -0.443497
O7    O     O_R   0.387947 0.944988 0.669103 -0.639515
O8    O     O_2   0.064513 0.400057 0.330497 -0.447145
O9    O     O_R   0.004726 0.403701 0.293628 -0.640303
O10   O     O_2   0.445460 0.920152 0.298592 -0.444952
O11   O     O_R   0.386802 0.947692 0.330327 -0.641960
O12   O     O_2   0.935236 0.599760 0.330210 -0.447237
O13   O     O_R   0.964170 0.562030 0.500040 -0.483149
O14   O     O_R   0.994999 0.596098 0.293420 -0.640359
O15   O     O_2   0.549218 0.082952 0.298640 -0.460002
O16   O     O_R   0.609237 0.054237 0.328395 -0.642888
O17   O     O_R   0.437970 0.964170 0.500040 -0.456615
O18   O     O_R   0.964170 0.437970 0.499960 -0.475574
O19   O     O_R   0.437970 0.035830 0.499960 -0.499611
O20   O     O_R   0.035830 0.562030 0.499960 -0.475627
O21   O     O_R   0.562030 0.964170 0.499960 -0.485971
O22   O     O_R   0.535830 0.999940 0.049970 -0.448385
O23   O     O_R   0.000060 0.535830 0.049970 -0.481458
O24   O     O_R   0.464170 0.000060 0.049970 -0.501471
O25   O     O_R   0.062030 0.535830 0.000040 -0.483201
O26   O     O_R   0.999940 0.464170 0.049970 -0.481324
O27   O     O_R   0.464170 0.999940 0.950030 -0.483188
O28   O     O_R   0.999940 0.535830 0.950030 -0.466593
O29   O     O_R   0.535830 0.000060 0.950030 -0.482987
O30   O     O_R   0.000060 0.464170 0.950030 -0.466434
O31   O     O_R   0.035830 0.499940 0.549970 -0.481409
O32   O     O_R   0.500060 0.035830 0.549970 -0.500302
O33   O     O_R   0.964170 0.500060 0.549970 -0.481382
O34   O     O_R   0.499940 0.964170 0.549970 -0.453674
O35   O     O_R   0.964170 0.499940 0.450030 -0.466463
O36   O     O_R   0.464170 0.062030 0.000040 -0.478153
O37   O     O_R   0.499940 0.035830 0.450030 -0.482603
O38   O     O_R   0.035830 0.500060 0.450030 -0.466530
O39   O     O_R   0.500060 0.964170 0.450030 -0.484575
O40   O     O_R   0.437960 0.499970 0.028950 -0.480117
O41   O     O_R   0.500030 0.437960 0.028950 -0.479525
O42   O     O_R   0.562040 0.500030 0.028950 -0.479944
O43   O     O_R   0.499970 0.562040 0.028950 -0.480220
O44   O     O_R   0.562040 0.499970 0.971050 -0.479481
O45   O     O_R   0.499970 0.437960 0.971050 -0.479773
O46   O     O_R   0.437960 0.500030 0.971050 -0.479515
O47   O     O_R   0.937970 0.464170 0.000040 -0.483059
O48   O     O_R   0.500030 0.562040 0.971050 -0.479725
O49   O     O_R   0.937960 0.999970 0.528950 -0.479994
O50   O     O_R   0.000030 0.937960 0.528950 -0.480152
O51   O     O_R   0.062040 0.000030 0.528950 -0.480291
O52   O     O_R   0.999970 0.062040 0.528950 -0.480057
O53   O     O_R   0.062040 0.999970 0.471050 -0.479441
O54   O     O_R   0.999970 0.937960 0.471050 -0.479403
O55   O     O_R   0.937960 0.000030 0.471050 -0.479608
O56   O     O_R   0.000030 0.062040 0.471050 -0.479395
O57   O     O_2   0.490787 0.904923 0.081630 -0.512535
O58   O     O_R   0.464170 0.937970 0.999960 -0.488959
O59   O     O_R   0.423907 0.903570 0.110775 -0.649473
O60   O     O_2   0.086490 0.453485 0.083448 -0.498407
O61   O     O_R   0.057792 0.391531 0.110840 -0.648447
O62   O     O_2   0.508999 0.117540 0.108229 -0.477525
O63   O     O_R   0.564860 0.079076 0.080360 -0.653373
O64   O     O_2   0.913445 0.546407 0.083244 -0.498377
O65   O     O_R   0.942122 0.608334 0.110646 -0.648683
O66   O     O_2   0.536938 0.910398 0.917140 -0.508196
O67   O     O_R   0.600495 0.930130 0.887496 -0.647094
O68   O     O_2   0.883326 0.497502 0.890417 -0.474426
O69   O     O_R   0.937970 0.535830 0.999960 -0.475684
O70   O     O_R   0.917595 0.441057 0.920777 -0.654594
O71   O     O_2   0.463511 0.090785 0.918598 -0.504544
O72   O     O_R   0.399167 0.071674 0.889623 -0.647808
O73   O     O_2   0.116682 0.502638 0.890726 -0.474621
O74   O     O_R   0.082363 0.559137 0.920868 -0.654643
O75   O     O_2   0.953625 0.413462 0.583387 -0.498255
O76   O     O_R   0.891692 0.442137 0.610746 -0.648357
O77   O     O_2   0.598207 0.056913 0.602183 -0.442970
O78   O     O_R   0.602025 0.982464 0.586659 -0.683455
O79   O     O_2   0.046503 0.586501 0.583307 -0.498368
O80   O     O_R   0.535830 0.062030 0.999960 -0.485925
O81   O     O_R   0.108469 0.557791 0.610739 -0.648513
O82   O     O_2   0.413676 0.952276 0.581146 -0.485478
O83   O     O_R   0.376484 0.008536 0.609542 -0.658018
O84   O     O_2   0.002513 0.383305 0.390726 -0.474470
O85   O     O_R   0.059060 0.417603 0.420905 -0.654476
O86   O     O_2   0.410040 0.961817 0.418287 -0.504237
O87   O     O_R   0.430369 0.898415 0.388691 -0.648147
O88   O     O_2   0.997288 0.616656 0.390417 -0.474359
O89   O     O_R   0.940916 0.582362 0.420740 -0.654683
O90   O     O_2   0.589494 0.037809 0.417073 -0.503416
O91   O     O_R   0.062030 0.464170 0.999960 -0.475649
O92   O     O_R   0.568742 0.101866 0.388354 -0.647719
O93   O     O_2   0.435456 0.926698 0.200916 -0.441074
O94   O     O_R   0.482401 0.880440 0.170562 -0.644082
O95   O     O_2   0.039996 0.411241 0.200556 -0.459912
O96   O     O_R   0.103448 0.433131 0.171658 -0.642579
O97   O     O_2   0.565083 0.098786 0.170971 -0.445990
O98   O     O_R   0.503032 0.099457 0.205622 -0.639869
O99   O     O_2   0.959837 0.588528 0.200403 -0.460148
O100  O     O_R   0.896407 0.566646 0.171402 -0.642541
O101  O     O_2   0.579145 0.948718 0.797789 -0.441534
O102  O     O_R   0.035830 0.437970 0.500040 -0.483169
O103  O     O_R   0.550605 0.889536 0.828518 -0.643939
O104  O     O_2   0.900195 0.435473 0.830273 -0.447089
O105  O     O_R   0.903885 0.495244 0.793407 -0.640354
O106  O     O_2   0.418372 0.055465 0.799512 -0.441683
O107  O     O_R   0.447919 0.113838 0.830549 -0.643938
O108  O     O_2   0.099909 0.564673 0.830435 -0.447402
O109  O     O_R   0.096286 0.504899 0.793641 -0.640389
O110  O     O_2   0.911487 0.459924 0.700463 -0.459959
O111  O     O_R   0.933396 0.396473 0.671588 -0.642406
O112  O     O_2   0.594568 0.992943 0.699232 -0.451343

loop_
_geom_bond_atom_site_label_1
_geom_bond_atom_site_label_2
_ccdc_geom_bond_type
H9    O94   S    
C43   O75   D    
C139  O17   A    
C12   N13   A    
C70   C150  T    
C15   C151  S    
C146  C157  A    
C4    C125  A    
C58   O104  D    
C69   O16   S    
C6    C127  A    
C141  C154  A    
Cu2   O48   S    
C73   O25   A    
C98   O45   A    
C54   C134  S    
C1    O1    A    
C11   C154  S    
C9    C156  S    
C133  C151  A    
C5    C126  A    
C84   O36   A    
C58   O105  S    
C16   C149  S    
Cu10  O18   S    
C106  O102  A    
H30   O72   S    
C107  O23   A    
C32   C57   S    
C8    C157  S    
C136  C152  A    
C41   O71   D    
H27   O65   S    
C52   O93   D    
Cu3   O50   S    
C52   C132  S    
Cu4   O53   S    
C53   C133  S    
C15   N11   A    
C49   O86   D    
C93   C101  S    
C51   C131  S    
C59   O106  D    
C143  C154  A    
Cu11  O17   S    
C39   O67   S    
C40   O68   D    
N5    N9    A    
C82   C91   T    
C105  C158  S    
C123  C141  A    
C53   O95   D    
C137  C153  A    
C102  O54   A    
Cu7   O30   S    
C127  C145  A    
C81   C90   T    
C67   C147  S    
C44   O78   S    
C2    C71   T    
H19   O3    S    
C47   C126  S    
C51   O92   S    
Cu8   O31   S    
C70   C79   S    
C13   C72   T    
C5    C111  S    
Cu2   O45   S    
C119  C136  A    
C48   C127  S    
C62   O112  D    
H15   O105  S    
C66   C146  S    
C92   C104  S    
C4    C123  A    
C59   O107  S    
C14   N14   A    
C54   O98   S    
C76   C85   S    
C23   C128  S    
C78   C87   S    
Cu4   O55   S    
C6    C130  A    
C63   O5    S    
C37   C116  S    
Cu10  O35   S    
C48   O85   S    
C36   O61   S    
H14   O103  S    
Cu12  O41   S    
C10   N4    A    
C112  O38   A    
C85   C93   T    
C114  C158  A    
C42   O74   S    
C31   C46   S    
Cu1   O1    S    
C42   O73   D    
Cu5   O23   S    
C45   O81   S    
C104  O56   A    
C21   C106  S    
C51   O90   D    
Cu5   Cu7   S    
Cu9   Cu11  S    
C117  O2    A    
C11   N3    A    
C62   C142  S    
C8    N6    A    
C56   C136  S    
Cu10  O13   S    
H21   O7    S    
C16   N1    A    
C100  O48   A    
C59   C138  S    
C111  O32   A    
C134  C149  A    
C101  O49   A    
C66   O11   S    
H2    O78   S    
Cu3   O51   S    
C103  O51   A    
C116  C158  A    
C95   O47   A    
Cu9   O2    S    
Cu2   O44   S    
C14   N12   A    
C16   N10   A    
C19   C28   T    
C94   C102  S    
C60   C140  S    
C61   C141  S    
H20   O5    S    
C18   C73   S    
Cu9   O19   S    
C60   O108  D    
C56   O101  D    
C43   C123  S    
C128  O13   A    
Cu10  O33   S    
H17   O109  S    
C130  C147  A    
H7    O89   S    
C10   C155  S    
C50   O88   D    
Cu7   O26   S    
C1    C17   S    
C65   O9    S    
Cu11  O39   S    
C69   O15   D    
C122  C140  A    
Cu1   O29   S    
N1    N6    A    
C125  C143  A    
C39   C119  S    
Cu11  O34   S    
C126  C144  A    
H32   O76   S    
C148  C157  A    
C95   O69   A    
Cu7   O47   S    
C50   O89   S    
Cu2   Cu12  S    
C14   C152  S    
C63   C143  S    
C91   C99   S    
C8    N8    A    
Cu1   O80   S    
C64   O7    S    
C33   C68   S    
C25   C33   T    
C34   O59   S    
C67   O14   S    
H29   O70   S    
Cu6   O24   S    
C107  O26   A    
C55   O100  S    
Cu8   O20   S    
N13   N16   A    
C5    C124  A    
H3    O81   S    
H28   O67   S    
C52   O94   S    
Cu3   O49   S    
Cu4   O54   S    
C25   C139  S    
C116  C134  A    
C80   C89   T    
Cu8   O38   S    
C24   C29   S    
C36   O60   D    
C145  C156  A    
H12   O61   S    
C121  C160  A    
C13   C28   S    
C40   O70   S    
C2    C27   S    
C61   O110  D    
C56   O103  S    
C37   O63   S    
C7    C131  A    
C72   C81   S    
H16   O107  S    
C38   O64   D    
C140  C153  A    
Cu8   Cu10  S    
H10   O96   S    
C43   O76   S    
Cu11  O21   S    
N4    N14   A    
C132  C149  A    
H22   O9    S    
C118  C159  A    
Cu5   O28   S    
C113  O37   A    
C74   C82   S    
C64   O6    D    
C79   C88   T    
C68   C78   T    
C109  O30   A    
C57   C77   T    
C26   C150  S    
C103  O53   A    
C115  C133  A    
C138  C152  A    
C44   C124  S    
Cu7   O91   S    
C115  C159  A    
C104  O52   A    
C100  O43   A    
Cu8   O102  S    
C147  C156  A    
C129  C146  A    
C88   C100  S    
C40   C120  S    
C34   O57   D    
N8    N10   A    
C67   O12   D    
C47   O82   D    
Cu6   O27   S    
C105  O22   A    
Cu5   O69   S    
C41   O72   S    
C4    C110  S    
C102  O50   A    
C6    C112  S    
Cu4   O56   S    
C112  O35   A    
C15   N9    A    
C128  O20   A    
C21   C30   T    
C108  O29   A    
C23   C32   T    
Cu12  O43   S    
H6    O87   S    
C1    O58   A    
H26   O16   S    
C75   C83   S    
C3    C109  S    
C135  C151  A    
C53   O96   S    
Cu2   O46   S    
C10   N2    A    
C73   O91   A    
C7    C129  A    
C38   C118  S    
C97   O46   A    
C106  O18   A    
C96   C103  S    
C69   C148  S    
C44   O77   D    
C120  C137  A    
C113  O39   A    
C118  C135  A    
H1    O59   S    
C22   C117  S    
N7    N11   A    
Cu3   Cu4   S    
C109  O28   A    
C12   C153  S    
C46   C76   T    
C83   C92   T    
C108  O27   A    
C35   C75   T    
C30   C35   S    
C17   C26   T    
C45   O79   D    
Cu9   O32   S    
C110  O33   A    
H23   O63   S    
C41   C121  S    
C50   C130  S    
H8    O92   S    
C99   O42   A    
C9    N5    A    
C119  C160  A    
Cu6   O36   S    
C54   O97   D    
C142  C155  A    
Cu12  O40   S    
C86   C94   T    
C12   N15   A    
Cu1   Cu6   S    
C3    C122  A    
C111  O34   A    
Cu9   O37   S    
C124  C142  A    
C71   C80   S    
C20   C29   T    
C39   O66   D    
C22   C31   T    
C139  O19   A    
H11   O98   S    
Cu5   O25   S    
C45   C125  S    
C64   C144  S    
C49   C129  S    
C61   O111  S    
C65   O8    D    
C89   C97   S    
C121  C138  A    
H24   O11   S    
C87   C96   T    
Cu1   O22   S    
C131  C148  A    
C62   O3    S    
C58   C137  S    
C20   C95   S    
C77   C86   S    
C65   C145  S    
C19   C84   S    
C60   O109  S    
C42   C122  S    
N2    N12   A    
C105  O24   A    
C114  C132  A    
C63   O4    D    
C47   O83   S    
C18   C27   T    
C48   O84   D    
C55   O99   D    
C99   O44   A    
C107  C159  S    
H25   O14   S    
C108  C160  S    
C110  O31   A    
C34   C114  S    
C66   O10   D    
N3    N15   A    
Cu3   O52   S    
H4    O83   S    
C7    C113  S    
C144  C155  A    
C98   O41   A    
C24   C74   T    
C9    N7    A    
C55   C135  S    
C11   N16   A    
Cu6   O58   S    
H31   O74   S    
H5    O85   S    
Cu12  O42   S    
H18   O111  S    
C3    C120  A    
C49   O87   S    
C97   O40   A    
H13   O100  S    
C101  O55   A    
C36   C115  S    
C37   O62   D    
C90   C98   S    
C38   O65   S    
C84   O80   A    
C117  O21   A    
