data_mof_unit_59928.cif
_audit_creation_date              2012-12-11T15:26:33-0500
_audit_creation_method            fapswitch 2.2
_symmetry_space_group_name_H-M    P1
_symmetry_Int_Tables_number       1
_space_group_crystal_system       triclinic
_cell_length_a                    7.229205
_cell_length_b                    11.891677
_cell_length_c                    29.396233
_cell_angle_alpha                 89.999927
_cell_angle_beta                  90.000032
_cell_angle_gamma                 89.999926
_cell_volume                      2527.11686322

loop_
_atom_site_label
_atom_site_type_symbol
_atom_type_description
_atom_site_fract_x
_atom_site_fract_y
_atom_site_fract_z
_atom_type_partial_charge
O1    O     O_R   0.647170 0.849180 0.201220 -0.549032
O2    O     O_R   0.352830 0.150820 0.798780 -0.532820
O3    O     O_R   0.352830 0.150820 0.701220 -0.549031
O4    O     O_R   0.647170 0.849180 0.298780 -0.532820
O5    O     O_R   0.147170 0.650820 0.298780 -0.549031
O6    O     O_R   0.852830 0.349180 0.701220 -0.532814
O7    O     O_R   0.852830 0.349180 0.798780 -0.549020
O8    O     O_R   0.147170 0.650820 0.201220 -0.532818
O9    O     O_R   0.317430 0.862210 0.298450 -0.543983
O10   O     O_R   0.682570 0.137790 0.701550 -0.525592
O11   O     O_R   0.682570 0.137790 0.798450 -0.543985
O12   O     O_R   0.317430 0.862210 0.201550 -0.525590
O13   O     O_R   0.817430 0.637790 0.201550 -0.543983
O14   O     O_R   0.182570 0.362210 0.798450 -0.525598
O15   O     O_R   0.182570 0.362210 0.701550 -0.543984
O16   O     O_R   0.817430 0.637790 0.298450 -0.525590
C1    C     C_R   0.485545 0.887128 0.313860 0.703020
C2    C     C_R   0.513852 0.111937 0.686463 0.764953
C3    C     C_R   0.514455 0.112871 0.813859 0.703013
C4    C     C_R   0.486148 0.888063 0.186464 0.764956
C5    C     C_R   0.985545 0.612872 0.186140 0.703017
C6    C     C_R   0.013852 0.388063 0.813537 0.764987
C7    C     C_R   0.014455 0.387129 0.686141 0.703019
C8    C     C_R   0.986148 0.611937 0.313536 0.764955
H1    H     H_    0.090825 0.258964 0.375211 0.169713
H2    H     H_    0.956451 0.741977 0.624148 0.173178
H3    H     H_    0.909221 0.741041 0.875209 0.169713
H4    H     H_    0.043546 0.258024 0.124148 0.173177
H5    H     H_    0.590813 0.241038 0.124790 0.169713
H6    H     H_    0.456444 0.758025 0.875853 0.173176
H7    H     H_    0.409186 0.758962 0.624790 0.169713
H8    H     H_    0.543603 0.241972 0.375853 0.173175
O17   O     O_3   0.480630 0.680630 0.250000 -0.380485
O18   O     O_3   0.519370 0.319370 0.750000 -0.380482
O19   O     O_3   0.980630 0.819370 0.250000 -0.380487
O20   O     O_3   0.019370 0.180630 0.750000 -0.380489
V1    V     V_3+5 0.205800 0.762860 0.250000 1.430623
V2    V     V_3+5 0.794200 0.237140 0.750000 1.430635
V3    V     V_3+5 0.705800 0.737140 0.250000 1.430621
V4    V     V_3+5 0.294200 0.262860 0.750000 1.430622
H9    H     H_    0.951193 0.279631 0.530958 0.169230
H10   H     H_    0.053190 0.711848 0.465615 0.157306
H11   H     H_    0.048808 0.720369 0.030958 0.169229
H12   H     H_    0.946773 0.288155 0.965616 0.157307
H13   H     H_    0.451188 0.220372 0.969043 0.169231
H14   H     H_    0.553213 0.788156 0.034385 0.157307
H15   H     H_    0.548785 0.779629 0.469041 0.169224
H16   H     H_    0.446794 0.211846 0.534384 0.157305
C9    C     C_R   0.997974 0.533016 0.352246 -0.044551
C10   C     C_R   0.006274 0.464637 0.646884 -0.124447
C11   C     C_R   0.002028 0.466983 0.852246 -0.044521
C12   C     C_R   0.993725 0.535365 0.146883 -0.124445
C13   C     C_R   0.497974 0.966985 0.147754 -0.044550
C14   C     C_R   0.506274 0.035364 0.853117 -0.124446
C15   C     C_R   0.502026 0.033015 0.647754 -0.044547
C16   C     C_R   0.493727 0.964635 0.353117 -0.124450
C17   C     C_R   0.057277 0.346347 0.381620 -0.137918
C18   C     C_R   0.973115 0.653123 0.617141 -0.101312
C19   C     C_R   0.942755 0.653657 0.881619 -0.137950
C20   C     C_R   0.026881 0.346878 0.117141 -0.101319
C21   C     C_R   0.557270 0.153655 0.118381 -0.137920
C22   C     C_R   0.473112 0.846879 0.882860 -0.101304
C23   C     C_R   0.442729 0.846345 0.618381 -0.137927
C24   C     C_R   0.526918 0.153119 0.382860 -0.101313
C25   C     C_R   0.058874 0.422145 0.345288 0.116249
C26   C     C_R   0.971400 0.579514 0.653819 0.118005
C27   C     C_R   0.941155 0.577858 0.845287 0.116233
C28   C     C_R   0.028604 0.420490 0.153818 0.118007
C29   C     C_R   0.558868 0.077856 0.154713 0.116245
C30   C     C_R   0.471393 0.920489 0.846182 0.118005
C31   C     C_R   0.441133 0.922143 0.654713 0.116247
C32   C     C_R   0.528634 0.079507 0.346183 0.118009
C33   C     C_R   0.954842 0.570540 0.396475 0.102729
C34   C     C_R   0.035277 0.423627 0.602256 0.126983
C35   C     C_R   0.045143 0.429456 0.896476 0.102710
C36   C     C_R   0.964717 0.576375 0.102256 0.126986
C37   C     C_R   0.454849 0.929460 0.103525 0.102727
C38   C     C_R   0.535277 0.076376 0.897744 0.126987
C39   C     C_R   0.545149 0.070540 0.603525 0.102727
C40   C     C_R   0.464707 0.923627 0.397744 0.126989
C41   C     C_R   0.991196 0.499096 0.434755 -0.000326
C42   C     C_R   0.007388 0.496056 0.563870 0.047901
C43   C     C_R   0.008796 0.500903 0.934755 -0.000318
C44   C     C_R   0.992601 0.503944 0.063870 0.047904
C45   C     C_R   0.491202 0.000905 0.065245 -0.000325
C46   C     C_R   0.507393 0.003946 0.936130 0.047900
C47   C     C_R   0.508794 0.999096 0.565245 -0.000325
C48   C     C_R   0.492602 0.996056 0.436130 0.047902
C49   C     C_R   0.019832 0.383038 0.426018 0.079106
C50   C     C_R   0.993520 0.613711 0.572374 0.016906
C51   C     C_R   0.980181 0.616963 0.926018 0.079120
C52   C     C_R   0.006467 0.386289 0.072374 0.016906
C53   C     C_R   0.519831 0.116963 0.073982 0.079111
C54   C     C_R   0.493526 0.886290 0.927626 0.016906
C55   C     C_R   0.480165 0.883037 0.573982 0.079107
C56   C     C_R   0.506486 0.113710 0.427626 0.016905
C57   C     C_R   0.999239 0.537096 0.481050 0.009501
C58   C     C_R   0.998962 0.457630 0.517497 0.045752
C59   C     C_R   0.000745 0.462904 0.981051 0.009502
C60   C     C_R   0.001028 0.542370 0.017497 0.045749
C61   C     C_R   0.499248 0.962906 0.018950 0.009503
C62   C     C_R   0.498966 0.042372 0.982504 0.045752
C63   C     C_R   0.500749 0.037095 0.518950 0.009504
C64   C     C_R   0.501023 0.957629 0.482503 0.045750
C65   C     C_R   0.983034 0.342853 0.506138 -0.206066
C66   C     C_R   0.021427 0.651485 0.491720 -0.249660
C67   C     C_R   0.016966 0.657147 0.006138 -0.206066
C68   C     C_R   0.978545 0.348516 0.991720 -0.249661
C69   C     C_R   0.483032 0.157148 0.993863 -0.206070
C70   C     C_R   0.521445 0.848517 0.008280 -0.249663
C71   C     C_R   0.516950 0.842852 0.493862 -0.206061
C72   C     C_R   0.478561 0.151484 0.508280 -0.249663
C73   C     C_R   0.005864 0.305046 0.461637 0.185698
C74   C     C_R   0.007785 0.691010 0.536271 0.191316
C75   C     C_R   0.994149 0.694955 0.961637 0.185699
C76   C     C_R   0.992192 0.308991 0.036271 0.191322
C77   C     C_R   0.505860 0.194957 0.038363 0.185705
C78   C     C_R   0.507800 0.808993 0.963730 0.191313
C79   C     C_R   0.494129 0.805044 0.538362 0.185706
C80   C     C_R   0.492213 0.191008 0.463729 0.191318
N1    N     N_3   0.005337 0.186468 0.452527 -0.676645
H17   H     H_    0.110029 0.149169 0.471794 0.251161
H18   H     H_    0.879894 0.153307 0.463958 0.228024
N2    N     N_3   0.018064 0.809970 0.545144 -0.664548
H19   H     H_    0.055084 0.854287 0.515795 0.238341
H20   H     H_    0.885437 0.837219 0.553943 0.228407
N3    N     N_3   0.994685 0.813533 0.952527 -0.676650
H21   H     H_    0.889983 0.850832 0.971790 0.251162
H22   H     H_    0.120123 0.846692 0.963962 0.228025
N4    N     N_3   0.981912 0.190031 0.045145 -0.664547
H23   H     H_    0.944884 0.145714 0.015797 0.238341
H24   H     H_    0.114541 0.162781 0.053942 0.228403
N5    N     N_3   0.505327 0.313534 0.047474 -0.676643
H25   H     H_    0.610003 0.350837 0.028203 0.251157
H26   H     H_    0.379875 0.346691 0.036046 0.228022
N6    N     N_3   0.518084 0.690032 0.954856 -0.664548
H27   H     H_    0.555115 0.645716 0.984204 0.238342
H28   H     H_    0.385457 0.662781 0.946059 0.228406
N7    N     N_3   0.494661 0.686467 0.547473 -0.676649
H29   H     H_    0.389961 0.649168 0.528209 0.251161
H30   H     H_    0.620100 0.653305 0.536039 0.228025
N8    N     N_3   0.481937 0.309969 0.454855 -0.664546
H31   H     H_    0.444908 0.354286 0.484203 0.238341
H32   H     H_    0.614566 0.337217 0.446059 0.228405
N9    N     N_3   0.941273 0.624479 0.698298 -0.656542
H33   H     H_    0.055843 0.604630 0.718465 0.246468
H34   H     H_    0.824423 0.585060 0.711830 0.246999
N10   N     N_3   0.114462 0.385755 0.300828 -0.685110
H35   H     H_    0.242009 0.423537 0.293952 0.235882
H36   H     H_    0.137541 0.298939 0.300368 0.249041
N11   N     N_3   0.058743 0.375527 0.198297 -0.656530
H37   H     H_    0.944159 0.395354 0.218463 0.246470
H38   H     H_    0.175576 0.414961 0.211831 0.246994
N12   N     N_3   0.885584 0.614251 0.800826 -0.685139
H39   H     H_    0.757973 0.576537 0.793961 0.235902
H40   H     H_    0.862649 0.701080 0.800358 0.249045
N13   N     N_3   0.441254 0.875526 0.801703 -0.656533
H41   H     H_    0.555844 0.895347 0.781538 0.246472
H42   H     H_    0.324429 0.914966 0.788168 0.246986
N14   N     N_3   0.614454 0.114247 0.199173 -0.685111
H43   H     H_    0.741999 0.076464 0.206049 0.235884
H44   H     H_    0.637536 0.201063 0.199633 0.249045
N15   N     N_3   0.558789 0.124468 0.301704 -0.656531
H45   H     H_    0.444197 0.104657 0.281538 0.246473
H46   H     H_    0.675609 0.085021 0.288169 0.246992
N16   N     N_3   0.385552 0.885752 0.699173 -0.685115
H47   H     H_    0.258004 0.923532 0.706049 0.235882
H48   H     H_    0.362479 0.798936 0.699634 0.249046
N17   N     N_3   0.113001 0.313360 0.596709 -0.695257
H49   H     H_    0.025500 0.254518 0.612046 0.240191
H50   H     H_    0.240998 0.310811 0.613201 0.232788
N18   N     N_3   0.848104 0.672186 0.400234 -0.684860
H51   H     H_    0.768509 0.672709 0.429836 0.236868
H52   H     H_    0.935466 0.742023 0.398595 0.216805
N19   N     N_3   0.886996 0.686641 0.096709 -0.695257
H53   H     H_    0.974499 0.745484 0.112046 0.240190
H54   H     H_    0.759000 0.689193 0.113201 0.232787
N20   N     N_3   0.151865 0.327805 0.900235 -0.684873
H55   H     H_    0.231461 0.327279 0.929838 0.236873
H56   H     H_    0.064491 0.257973 0.898598 0.216807
N21   N     N_3   0.612987 0.186645 0.903290 -0.695259
H57   H     H_    0.525477 0.245483 0.887953 0.240193
H58   H     H_    0.740982 0.189200 0.886798 0.232785
N22   N     N_3   0.348118 0.827812 0.099766 -0.684865
H59   H     H_    0.268523 0.827289 0.070163 0.236869
H60   H     H_    0.435485 0.757977 0.101403 0.216807
N23   N     N_3   0.386965 0.813366 0.403291 -0.695253
H61   H     H_    0.474459 0.754516 0.387955 0.240184
H62   H     H_    0.258970 0.810822 0.386798 0.232787
N24   N     N_3   0.651882 0.172187 0.599765 -0.684867
H63   H     H_    0.731480 0.172709 0.570163 0.236871
H64   H     H_    0.564516 0.242023 0.601402 0.216807

loop_
_geom_bond_atom_site_label_1
_geom_bond_atom_site_label_2
_ccdc_geom_bond_type
C48   C64   A    
C48   C56   A    
C61   C62   A    
O5    V1    S    
N17   H50   S    
N17   H49   S    
C13   C37   A    
N15   H45   S    
C32   N15   S    
C13   C29   A    
C36   C44   A    
C39   C47   A    
N20   H55   S    
C69   C77   A    
N19   H54   S    
N21   H57   S    
C50   C74   A    
C59   C68   A    
O11   C3    A    
N24   H63   S    
C58   C65   A    
C17   C49   A    
C66   C74   A    
C27   N12   S    
O18   V4    S    
C65   C73   A    
O19   V1    S    
C11   C35   A    
C10   C34   A    
N9    H33   S    
N23   H62   S    
C21   C53   A    
C23   C55   A    
C37   N22   S    
C75   N3    S    
N22   H59   S    
C22   C30   A    
O3    C2    A    
C71   C79   A    
O12   V1    S    
C35   N20   S    
C34   N17   S    
C46   C54   A    
C37   C45   A    
C19   C27   A    
O17   V3    S    
C45   C53   A    
C18   C26   A    
N13   H41   S    
C59   C60   A    
N22   H60   S    
C16   C32   A    
C39   N24   S    
C47   C55   A    
N11   H37   S    
O6    V2    S    
C40   N23   S    
H13   C69   S    
H12   C68   S    
N12   H40   S    
C12   C28   A    
C41   C49   A    
C38   C46   A    
O15   C7    A    
C77   N5    S    
O16   C8    A    
C43   C59   A    
N11   H38   S    
N16   H48   S    
C42   C58   A    
C70   C78   A    
C53   C77   A    
C34   C42   A    
C33   C41   A    
N9    H34   S    
N18   H52   S    
C57   C58   A    
C49   C73   A    
N21   H58   S    
H5    C21   S    
N1    H18   S    
C29   N14   S    
H1    C17   S    
H7    C23   S    
C80   N8    S    
N10   H35   S    
H8    C24   S    
C60   C67   A    
N6    H28   S    
C17   C25   A    
C72   C80   A    
C4    C13   S    
C7    C10   S    
H11   C67   S    
C55   C79   A    
C61   C70   A    
C31   N16   S    
C63   C72   A    
C33   N18   S    
C76   N4    S    
C44   C60   A    
O11   V2    S    
N4    H24   S    
N3    H22   S    
C38   N21   S    
C15   C39   A    
N19   H53   S    
C14   C30   A    
O4    V3    S    
C16   C40   A    
O12   C4    A    
O9    V1    S    
O8    C5    A    
N12   H39   S    
O13   C5    A    
C11   C27   A    
N7    H30   S    
C25   N10   S    
H2    C18   S    
C1    C16   S    
C67   C75   A    
N1    H17   S    
H4    C20   S    
C9    C25   A    
C2    C15   S    
C18   C50   A    
C47   C63   A    
C57   C66   A    
C3    C14   S    
O9    C1    A    
H16   C72   S    
C23   C31   A    
O3    V4    S    
C22   C54   A    
N16   H47   S    
C9    C33   A    
O8    V1    S    
O4    C1    A    
O14   C6    A    
N3    H21   S    
C46   C62   A    
C78   N6    S    
N18   H51   S    
N2    H20   S    
C19   C51   A    
C21   C29   A    
C8    C9    S    
O1    C4    A    
N24   H64   S    
N15   H46   S    
O2    C3    A    
C56   C80   A    
C36   N19   S    
N10   H36   S    
N6    H27   S    
C12   C36   A    
C42   C50   A    
C64   C71   A    
N20   H56   S    
N7    H29   S    
C10   C26   A    
O7    C6    A    
C43   C51   A    
C52   C76   A    
O10   V2    S    
C30   N13   S    
C79   N7    S    
N14   H43   S    
C68   C76   A    
H6    C22   S    
N4    H23   S    
C74   N2    S    
N23   H61   S    
C40   C48   A    
C28   N11   S    
H3    C19   S    
C54   C78   A    
C35   C43   A    
N5    H25   S    
O5    C8    A    
C41   C57   A    
O10   C2    A    
H15   C71   S    
O6    C7    A    
O20   V2    S    
O7    V2    S    
C51   C75   A    
C24   C56   A    
N8    H32   S    
C24   C32   A    
O15   V4    S    
O13   V3    S    
C45   C61   A    
O1    V3    S    
O16   V3    S    
O14   V4    S    
H10   C66   S    
O2    V4    S    
C73   N1    S    
H9    C65   S    
C20   C28   A    
N13   H42   S    
C63   C64   A    
C26   N9    S    
N5    H26   S    
N8    H31   S    
N2    H19   S    
C62   C69   A    
H14   C70   S    
C44   C52   A    
C20   C52   A    
C5    C12   S    
C15   C31   A    
N14   H44   S    
C6    C11   S    
C14   C38   A    
