data_mof_unit_16663.cif
_audit_creation_date              2013-03-05T16:15:20-0500
_audit_creation_method            fapswitch 2.2
_symmetry_space_group_name_H-M    P1
_symmetry_Int_Tables_number       1
_space_group_crystal_system       triclinic
_cell_length_a                    27.699597
_cell_length_b                    10.601336
_cell_length_c                    9.472852
_cell_angle_alpha                 90.545488
_cell_angle_beta                  90.011771
_cell_angle_gamma                 90.60217
_cell_volume                      2781.44907616

loop_
_atom_site_label
_atom_site_type_symbol
_atom_site_description
_atom_site_fract_x
_atom_site_fract_y
_atom_site_fract_z
_atom_type_partial_charge
O1    O     O_R   0.500020 0.316850 0.620870 -0.516913
O2    O     O_R   0.499980 0.683150 0.379130 -0.513549
O3    O     O_R   0.500000 0.316860 0.379090 -0.614150
O4    O     O_R   0.500000 0.683140 0.620910 -0.609870
C1    C     C_R   0.500014 0.259766 0.499249 0.777527
C2    C     C_R   0.499938 0.740223 0.500743 0.786899
O5    O     O_R   0.430270 0.500020 0.620880 -0.597357
O6    O     O_R   0.569730 0.499980 0.379120 -0.525149
O7    O     O_R   0.430250 0.500030 0.379090 -0.530761
O8    O     O_R   0.569750 0.499970 0.620910 -0.597703
C3    C     C_R   0.407496 0.500834 0.499973 0.811804
C4    C     C_R   0.592641 0.499145 0.500225 0.810060
Cu1   Cu    Cu3+1 0.500010 0.499990 0.643150 0.955703
Cu2   Cu    Cu3+1 0.499990 0.500010 0.356850 0.999034
C5    C     C_R   0.176126 0.391015 0.523020 0.536104
C6    C     C_R   0.824291 0.604816 0.504713 0.538637
O9    O     O_2   0.199751 0.281438 0.504227 -0.536654
O10   O     O_2   0.800397 0.708225 0.462731 -0.539111
N1    N     N_R   0.201270 0.502815 0.524367 -0.457048
N2    N     N_R   0.799304 0.495942 0.533488 -0.455695
C7    C     C_R   0.178355 0.615725 0.541127 0.552491
C8    C     C_R   0.822541 0.389717 0.576885 0.549737
C9    C     C_R   0.279916 0.459530 0.629767 -0.112050
C10   C     C_R   0.719476 0.481512 0.643854 -0.109843
C11   C     C_R   0.330048 0.459811 0.623252 -0.304484
C12   C     C_R   0.669395 0.482202 0.634612 -0.311316
C13   C     C_R   0.327156 0.543355 0.384644 0.366999
C14   C     C_R   0.674497 0.508155 0.379914 0.385126
C15   C     C_R   0.276368 0.542921 0.392943 -0.202840
C16   C     C_R   0.725215 0.507062 0.390994 -0.199920
C17   C     C_R   0.252928 0.501162 0.515062 0.323047
C18   C     C_R   0.747598 0.494357 0.522465 0.316816
C19   C     C_R   0.101694 0.504957 0.561126 -0.052023
C20   C     C_R   0.899097 0.502126 0.566978 -0.052214
C21   C     C_R   0.125854 0.389863 0.541227 -0.009874
C22   C     C_R   0.874663 0.609897 0.520427 -0.009569
C23   C     C_R   0.099252 0.276839 0.537398 -0.145943
C24   C     C_R   0.901086 0.719233 0.488327 -0.145464
C25   C     C_R   0.128058 0.618967 0.559686 -0.071718
C26   C     C_R   0.872888 0.390863 0.594651 -0.070056
C27   C     C_R   0.354222 0.501164 0.501423 -0.076552
C28   C     C_R   0.646151 0.496493 0.503540 -0.078271
H1    H     H_    0.254944 0.575478 0.305079 0.136158
H2    H     H_    0.747463 0.516318 0.297553 0.138565
H3    H     H_    0.116648 0.187492 0.516778 0.185009
H4    H     H_    0.883440 0.801880 0.447249 0.186297
C29   C     C_R   0.974614 0.392535 0.615208 -0.010715
C30   C     C_R   0.026462 0.622524 0.585414 -0.011810
C31   C     C_R   0.975794 0.619411 0.562343 0.052511
C32   C     C_R   0.025062 0.390358 0.588946 0.052327
C33   C     C_R   0.949866 0.504919 0.582816 0.054012
C34   C     C_R   0.051049 0.506019 0.579715 0.053470
C35   C     C_R   0.947284 0.287132 0.665145 0.133453
C36   C     C_R   0.054100 0.735570 0.606741 0.139026
C37   C     C_R   0.897087 0.285055 0.644949 -0.151972
C38   C     C_R   0.104151 0.732884 0.583844 -0.150803
O11   O     O_2   0.796977 0.283299 0.602526 -0.540285
O12   O     O_2   0.204273 0.724245 0.542108 -0.537921
C39   C     C_R   0.049555 0.277371 0.558523 -0.236602
C40   C     C_R   0.950919 0.723189 0.506835 -0.238856
H5    H     H_    0.648907 0.471398 0.731125 0.181240
H6    H     H_    0.349956 0.426966 0.713871 0.169871
H7    H     H_    0.736549 0.471708 0.745972 0.152588
H8    H     H_    0.261915 0.427658 0.724656 0.149827
H9    H     H_    0.876672 0.201509 0.673796 0.192053
H10   H     H_    0.124739 0.820156 0.590498 0.192548
H11   H     H_    0.030309 0.188715 0.546034 0.142613
H12   H     H_    0.969941 0.806944 0.472326 0.145212
C41   C     C_3   0.541256 0.042877 0.554119 0.193601
C42   C     C_3   0.458623 0.957060 0.445813 0.179851
C43   C     C_3   0.537218 0.956988 0.422286 -0.190374
C44   C     C_3   0.462658 0.042974 0.577646 -0.191770
H13   H     H_    0.567755 0.918982 0.359626 0.149877
H14   H     H_    0.432113 0.080980 0.640271 0.145375
C45   C     C_3   0.499792 0.877003 0.502190 -0.061186
C46   C     C_3   0.500095 0.122965 0.497762 -0.056429
C47   C     C_3   0.504283 0.961304 0.634828 -0.171590
C48   C     C_3   0.495595 0.038657 0.365111 -0.172929
H15   H     H_    0.507663 0.929328 0.745470 0.139973
H16   H     H_    0.492224 0.070641 0.254475 0.139994
C49   C     C_3   0.488075 0.607421 0.049988 0.530029
C50   C     C_3   0.511842 0.392596 0.950021 0.496243
C51   C     C_3   0.457306 0.526839 0.948724 -0.194726
C52   C     C_3   0.542647 0.473202 0.051153 -0.213597
H17   H     H_    0.421838 0.551173 0.902336 0.151012
H18   H     H_    0.577975 0.447507 0.096975 0.195219
N3    N     N_3   0.500040 0.499970 0.858290 -0.206414
N4    N     N_3   0.499960 0.500030 0.141710 -0.206156
C53   C     C_3   0.530352 0.582449 0.951823 0.137775
C54   C     C_3   0.469586 0.417685 0.048180 0.150115
O13   O     O_3   0.350693 0.587041 0.265861 -0.727123
H19   H     H_    0.326426 0.612889 0.195083 0.320623
O14   O     O_3   0.652403 0.521167 0.250407 -0.754120
H20   H     H_    0.677427 0.527646 0.175884 0.313939
C55   C     C_3   0.588635 0.095764 0.613765 -0.399141
C56   C     C_3   0.622070 0.990285 0.659272 -0.805578
H21   H     H_    0.604535 0.932420 0.742144 0.245063
H22   H     H_    0.631177 0.928809 0.567703 0.254978
H23   H     H_    0.655982 0.031671 0.702791 0.261444
H24   H     H_    0.606847 0.153545 0.531865 0.198937
H25   H     H_    0.580823 0.157429 0.706037 0.251794
C57   C     C_3   0.411268 0.903948 0.386192 -0.374780
C58   C     C_3   0.377837 0.009217 0.340098 -0.808954
H26   H     H_    0.368752 0.071133 0.431317 0.253145
H27   H     H_    0.395358 0.066662 0.256824 0.244071
H28   H     H_    0.343917 0.967616 0.296881 0.262079
H29   H     H_    0.419116 0.841973 0.294210 0.265232
H30   H     H_    0.393026 0.846409 0.468246 0.202696
O15   O     O_3   0.474729 0.723869 0.107142 -0.717462
H31   H     H_    0.468138 0.778331 0.025025 0.292955
O16   O     O_3   0.525071 0.276016 0.892957 -0.728444
H32   H     H_    0.531202 0.221234 0.975117 0.295418
C59   C     C_3   0.566334 0.680695 0.896564 -0.382454
C60   C     C_3   0.591166 0.752868 0.016878 -0.845344
H33   H     H_    0.564540 0.808237 0.078493 0.273218
H34   H     H_    0.609752 0.686832 0.088211 0.292895
H35   H     H_    0.618453 0.819127 0.973002 0.239858
H36   H     H_    0.594273 0.633042 0.832376 0.223661
H37   H     H_    0.547235 0.749088 0.829942 0.210792
C61   C     C_3   0.433383 0.320003 0.103365 -0.364109
C62   C     C_3   0.407069 0.251977 0.982750 -0.863434
H38   H     H_    0.387181 0.320510 0.917423 0.252338
H39   H     H_    0.432968 0.199894 0.915068 0.276747
H40   H     H_    0.380669 0.183291 0.026584 0.244760
H41   H     H_    0.452579 0.249363 0.166845 0.201229
H42   H     H_    0.406230 0.367535 0.170619 0.251911
C63   C     C_3   0.968937 0.183111 0.754292 -0.438555
C64   C     C_3   0.944776 0.173116 0.899131 -0.803329
H43   H     H_    0.945311 0.266365 0.953694 0.260966
H44   H     H_    0.906944 0.138723 0.889438 0.252498
H45   H     H_    0.964720 0.104906 0.964943 0.238686
H46   H     H_    0.965330 0.091343 0.697435 0.201007
H47   H     H_    0.007603 0.201156 0.777162 0.224715
C65   C     C_3   0.033047 0.855895 0.669565 -0.442718
C66   C     C_3   0.058681 0.896863 0.805929 -0.809139
H48   H     H_    0.059577 0.817410 0.881498 0.262661
H49   H     H_    0.096067 0.929993 0.784466 0.253323
H50   H     H_    0.038892 0.976178 0.855737 0.240582
H51   H     H_    0.035728 0.933095 0.591327 0.191238
H52   H     H_    0.994684 0.842968 0.699482 0.223624

loop_
_geom_bond_atom_site_label_1
_geom_bond_atom_site_label_2
_geom_bond_distance
_ccdc_geom_bond_type
C66   H50   1.110109 S    
C51   N3    1.489650 S    
O14   H20   0.991800 S    
C13   C15   1.408977 A    
C41   C47   1.541273 S    
C55   C56   1.524713 S    
C44   C46   1.536602 S    
N1    C17   1.433911 S    
C64   H43   1.111113 S    
C8    O11   1.349697 S    
C60   H33   1.109906 S    
C66   H48   1.111056 S    
C19   C34   1.414042 A    
C30   C36   1.428009 A    
C20   C33   1.414187 A    
C19   C25   1.405735 A    
C31   C40   1.410119 A    
O1    C1    1.296256 A    
C32   C39   1.410200 A    
N1    C7    1.368690 A    
C12   H5    1.082546 S    
C46   C48   1.539348 S    
C5    N1    1.368348 A    
C65   H52   1.107304 S    
C19   C21   1.408889 A    
C48   H16   1.108811 S    
C42   C48   1.541367 S    
C50   N3    1.477913 S    
C36   C65   1.524052 S    
C56   H23   1.110206 S    
C41   C46   1.527924 S    
C66   H49   1.109463 S    
C14   C28   1.415749 A    
O4    Cu1   1.955027 S    
C41   C43   1.541858 S    
C63   H46   1.111070 S    
C62   H40   1.109991 S    
C4    C28   1.483099 S    
C35   C63   1.523282 S    
C39   H11   1.081151 S    
C59   H37   1.104778 S    
O16   H32   0.991203 S    
C31   C33   1.418757 A    
C56   H22   1.110666 S    
C32   C34   1.418732 A    
C57   H30   1.110997 S    
C16   C18   1.399359 A    
C58   H26   1.110683 S    
C6    N2    1.369237 A    
C29   C35   1.427553 A    
C49   C53   1.519356 S    
C47   H15   1.108864 S    
Cu1   Cu2   2.712079 S    
C15   H1    1.083340 S    
C16   H2    1.083281 S    
O2    C2    1.296145 A    
C5    C21   1.403130 A    
C49   C51   1.531381 S    
C29   C32   1.419807 A    
C53   C59   1.530030 S    
C35   C37   1.403406 A    
C36   C38   1.403823 A    
C24   H4    1.083240 S    
C60   H35   1.109948 S    
C63   H47   1.107023 S    
C2    C45   1.450035 S    
C44   H14   1.110389 S    
C11   C27   1.405789 A    
O13   H19   0.991785 S    
C43   H13   1.110398 S    
C55   H24   1.110993 S    
C29   C33   1.416897 A    
C61   H42   1.107929 S    
O3    C1    1.294251 A    
C14   O14   1.379598 S    
C9    C17   1.396433 A    
O5    C3    1.307604 A    
O7    Cu2   1.943269 S    
C10   C18   1.395960 A    
C44   C47   1.549870 S    
O7    C3    1.307215 A    
C13   C27   1.414931 A    
C25   C38   1.400357 A    
C7    C25   1.405015 A    
C30   C34   1.417275 A    
O6    C4    1.311082 A    
C26   C37   1.400141 A    
C8    C26   1.404606 A    
C56   H21   1.109767 S    
Cu1   N3    2.037992 S    
C57   H29   1.109199 S    
C58   H27   1.109855 S    
C13   O13   1.381867 S    
C45   C47   1.539187 S    
C62   H38   1.109562 S    
C23   C39   1.391170 A    
O3    Cu2   1.955026 S    
O8    C4    1.307407 A    
C24   C40   1.391555 A    
O4    C2    1.294271 A    
C9    H8    1.083146 S    
C51   H17   1.110026 S    
N4    C54   1.491451 S    
C10   H7    1.083032 S    
C50   C52   1.531285 S    
N3    C53   1.491334 S    
C20   C26   1.405357 A    
O1    Cu1   1.950972 S    
C52   C53   1.539997 S    
C23   H3    1.083340 S    
C63   C64   1.530767 S    
C64   H45   1.110668 S    
C65   H51   1.111263 S    
C61   C62   1.526347 S    
C12   C28   1.408707 A    
C59   C60   1.526268 S    
N2    C18   1.435915 S    
C5    O9    1.349631 S    
C51   C54   1.539894 S    
C30   C31   1.420351 A    
O6    Cu2   1.943215 S    
C21   C23   1.400197 A    
C37   H9    1.083079 S    
C52   N4    1.489195 S    
N2    C8    1.369453 A    
C41   C55   1.527800 S    
O8    Cu1   1.943269 S    
C64   H44   1.109432 S    
C60   H34   1.108239 S    
C42   C57   1.527976 S    
C65   C66   1.530976 S    
C49   O15   1.396688 S    
C50   C54   1.519082 S    
C50   O16   1.396719 S    
C1    C46   1.450231 S    
C14   C16   1.408934 A    
Cu2   N4    2.037992 S    
C7    O12   1.349627 S    
C15   C17   1.399925 A    
O15   H31   0.991208 S    
C6    C22   1.403605 A    
C43   C45   1.536454 S    
C10   C12   1.390069 A    
C38   H10   1.083037 S    
C22   C24   1.400232 A    
C61   H41   1.105431 S    
C3    C27   1.475762 S    
C58   H28   1.110231 S    
C20   C22   1.408413 A    
C11   H6    1.082477 S    
C9    C11   1.389993 A    
C57   C58   1.524621 S    
O2    Cu2   1.950971 S    
C62   H39   1.110116 S    
C49   N4    1.478533 S    
C59   H36   1.107430 S    
O5    Cu1   1.943215 S    
C40   H12   1.081031 S    
C6    O10   1.349606 S    
C42   C45   1.527956 S    
C52   H18   1.108100 S    
C42   C44   1.542007 S    
C43   C48   1.549798 S    
C55   H25   1.109220 S    
C54   C61   1.529719 S    
