data_mof_unit_64992.cif
_audit_creation_date              2012-10-26T20:30:02-0400
_audit_creation_method            fapswitch 2.2
_symmetry_space_group_name_H-M    P1
_symmetry_Int_Tables_number       1
_space_group_crystal_system       triclinic
_cell_length_a                    13.007085
_cell_length_b                    19.440289
_cell_length_c                    18.115221
_cell_angle_alpha                 90.274726
_cell_angle_beta                  96.037913
_cell_angle_gamma                 90.277
_cell_volume                      4555.11272507

loop_
_atom_site_label
_atom_site_type_symbol
_atom_type_description
_atom_site_fract_x
_atom_site_fract_y
_atom_site_fract_z
_atom_type_partial_charge
C1    C     C_R   0.502778 0.367626 0.499941 0.561611
C2    C     C_R   0.505484 0.292270 0.499557 0.021646
C3    C     C_R   0.407459 0.964909 0.506882 -0.105862
C4    C     C_R   0.592541 0.035092 0.493130 -0.105865
C5    C     C_R   0.409308 0.036533 0.507511 -0.103480
C6    C     C_R   0.590694 0.963468 0.492504 -0.103479
C7    C     C_R   0.501848 0.072161 0.500607 0.031590
C8    C     C_R   0.498152 0.927839 0.499405 0.031598
C9    C     C_R   0.433081 0.458478 0.716071 0.057346
C10   C     C_R   0.566951 0.541498 0.283932 0.057355
C11   C     C_R   0.431597 0.458282 0.793519 -0.131679
C12   C     C_R   0.497222 0.632374 0.500058 0.561617
C13   C     C_R   0.568434 0.541695 0.206483 -0.131667
C14   C     C_R   0.498787 0.501650 0.838470 0.036694
C15   C     C_R   0.501209 0.498352 0.161530 0.036696
C16   C     C_R   0.300280 0.499962 0.486281 0.554489
C17   C     C_R   0.699720 0.500038 0.513719 0.554479
C18   C     C_R   0.567885 0.543257 0.803725 -0.103126
C19   C     C_R   0.432080 0.456767 0.196273 -0.103128
C20   C     C_R   0.566967 0.541865 0.726123 0.071225
C21   C     C_R   0.433000 0.458159 0.273874 0.071228
C22   C     C_R   0.480743 0.562062 0.961699 0.099806
C23   C     C_R   0.496413 0.852113 0.499394 0.006304
C24   C     C_R   0.519247 0.437940 0.038302 0.099815
C25   C     C_R   0.482724 0.559913 0.039451 -0.113578
C26   C     C_R   0.517269 0.440090 0.960551 -0.113578
C27   C     C_R   0.501281 0.498257 0.078822 0.009338
C28   C     C_R   0.498713 0.501746 0.921179 0.009345
C29   C     C_R   0.812375 0.500196 0.521687 0.004862
C30   C     C_R   0.187625 0.499805 0.478313 0.004868
C31   C     C_R   0.024362 0.497061 0.400766 -0.126495
C32   C     C_R   0.975638 0.502941 0.599234 -0.126493
C33   C     C_R   0.131815 0.497557 0.407686 -0.128526
C34   C     C_R   0.503587 0.147886 0.500614 0.006295
C35   C     C_R   0.868185 0.502444 0.592314 -0.128528
C36   C     C_R   0.135320 0.501676 0.542053 -0.116867
C37   C     C_R   0.864680 0.498325 0.457947 -0.116877
C38   C     C_R   0.027950 0.501173 0.535601 0.048141
C39   C     C_R   0.972050 0.498829 0.464399 0.048140
C40   C     C_R   0.546690 0.743487 0.448413 -0.146530
C41   C     C_R   0.453347 0.256514 0.551610 -0.146532
C42   C     C_R   0.547976 0.815053 0.448039 -0.121948
C43   C     C_R   0.452062 0.184948 0.551988 -0.121954
C44   C     C_R   0.442898 0.816598 0.550776 -0.090373
C45   C     C_R   0.557064 0.183397 0.449209 -0.090377
C46   C     C_R   0.441152 0.744874 0.551660 0.083872
C47   C     C_R   0.558809 0.255121 0.448320 0.083877
C48   C     C_R   0.494515 0.707728 0.500443 0.021656
Cu1   Cu    Cu3+1 0.499970 0.500000 0.573360 0.972917
Cu2   Cu    Cu3+1 0.500030 0.500000 0.426640 0.972926
H1    H     H_    0.822071 0.496497 0.403183 0.134906
H2    H     H_    0.379952 0.425657 0.300169 0.127845
H3    H     H_    0.467787 0.606593 0.069329 0.140246
H4    H     H_    0.532206 0.393409 0.930674 0.140237
H5    H     H_    0.828914 0.503962 0.642134 0.133007
H6    H     H_    0.171086 0.496038 0.357866 0.132998
H7    H     H_    0.982291 0.495258 0.345867 0.118381
H8    H     H_    0.017709 0.504744 0.654132 0.118387
H9    H     H_    0.587715 0.715969 0.408488 0.122534
H10   H     H_    0.412354 0.284033 0.591552 0.122541
H11   H     H_    0.588568 0.841470 0.407199 0.120230
H12   H     H_    0.177929 0.503504 0.596816 0.134921
H13   H     H_    0.411500 0.158531 0.592845 0.120238
H14   H     H_    0.402738 0.844694 0.590710 0.137636
H15   H     H_    0.597195 0.155298 0.409261 0.137645
H16   H     H_    0.334875 0.938474 0.511233 0.114953
H17   H     H_    0.665124 0.061528 0.488775 0.114961
H18   H     H_    0.338120 0.064103 0.512245 0.112890
H19   H     H_    0.661883 0.935899 0.487771 0.112882
H20   H     H_    0.380548 0.425288 0.681858 0.115874
H21   H     H_    0.619510 0.574670 0.318146 0.115874
H22   H     H_    0.377756 0.424964 0.818130 0.105474
H23   H     H_    0.622301 0.574994 0.181875 0.105480
H24   H     H_    0.622426 0.576386 0.836426 0.127909
H25   H     H_    0.377515 0.423656 0.163570 0.127895
H26   H     H_    0.619990 0.574384 0.699826 0.127854
I1    I     I_    0.442369 0.657310 0.909235 -0.347547
I2    I     I_    0.557602 0.342691 0.090769 -0.347514
I3    I     I_    0.349998 0.698222 0.628825 -0.316539
I4    I     I_    0.649907 0.301766 0.371114 -0.316503
N1    N     N_R   0.499990 0.500020 0.683620 -0.217513
N2    N     N_R   0.500010 0.499980 0.316380 -0.217508
O1    O     O_R   0.499960 0.400180 0.561970 -0.514049
O2    O     O_R   0.500040 0.599820 0.438030 -0.514031
O3    O     O_R   0.500010 0.400190 0.438070 -0.471497
O4    O     O_R   0.499990 0.599810 0.561930 -0.471518
O5    O     O_R   0.348980 0.499990 0.551890 -0.501475
O6    O     O_R   0.651020 0.500010 0.448110 -0.501494
O7    O     O_R   0.349030 0.499990 0.427990 -0.514707
O8    O     O_R   0.650970 0.500010 0.572010 -0.514697

loop_
_geom_bond_atom_site_label_1
_geom_bond_atom_site_label_2
_ccdc_geom_bond_type
C6    H19   S    
C17   O6    A    
C17   C29   S    
Cu1   O5    S    
C24   C27   A    
C32   H8    S    
Cu1   O8    S    
C12   C48   S    
Cu2   O2    S    
C44   H14   S    
C15   C19   A    
C12   O2    A    
C23   C42   A    
C19   C21   A    
C25   H3    S    
C5    H18   S    
C38   C39   A    
C37   H1    S    
C11   C14   A    
C2    C41   A    
C16   C30   S    
C8    C23   S    
C20   H26   S    
C1    C2    S    
Cu1   N1    S    
C14   C18   A    
Cu2   O3    S    
C22   C25   A    
C16   O5    A    
C31   C33   A    
C32   C38   A    
Cu2   O6    S    
C10   H21   S    
C33   H6    S    
C40   C42   A    
C16   O7    A    
C18   H24   S    
C40   H9    S    
C22   C28   A    
C20   N1    A    
C41   C43   A    
C47   I4    S    
C4    C7    A    
C36   H12   S    
C26   H4    S    
C44   C46   A    
C45   C47   A    
C1    O3    A    
C46   C48   A    
C34   C43   A    
C43   H13   S    
C32   C35   A    
C9    H20   S    
C41   H10   S    
C4    C6    A    
C3    C8    A    
C5    C7    A    
C11   H22   S    
C6    C8    A    
C35   H5    S    
C10   N2    A    
C23   C44   A    
Cu2   O7    S    
C15   C27   S    
C34   C45   A    
C9    C11   A    
C42   H11   S    
C24   I2    S    
C13   H23   S    
C13   C15   A    
C45   H15   S    
C7    C34   S    
C3    H16   S    
C1    O1    A    
Cu2   N2    S    
C40   C48   A    
C30   C33   A    
Cu1   O4    S    
C17   O8    A    
C22   I1    S    
C24   C26   A    
C3    C5    A    
C10   C13   A    
C4    H17   S    
C30   C36   A    
C2    C47   A    
C25   C27   A    
C29   C35   A    
C26   C28   A    
C12   O4    A    
C31   H7    S    
C19   H25   S    
C37   C39   A    
Cu1   O1    S    
C46   I3    S    
C36   C38   A    
C31   C39   A    
C18   C20   A    
C21   N2    A    
Cu1   Cu2   S    
C29   C37   A    
C14   C28   S    
C21   H2    S    
C9    N1    A    
