data_mof_unit_6995.cif
_audit_creation_date              2012-10-26T19:15:57-0400
_audit_creation_method            fapswitch 2.2
_symmetry_space_group_name_H-M    P1
_symmetry_Int_Tables_number       1
_space_group_crystal_system       triclinic
_cell_length_a                    8.001049
_cell_length_b                    9.071189
_cell_length_c                    16.935099
_cell_angle_alpha                 89.629732
_cell_angle_beta                  90.429613
_cell_angle_gamma                 89.988587
_cell_volume                      1229.07276403

loop_
_atom_site_label
_atom_site_type_symbol
_atom_type_description
_atom_site_fract_x
_atom_site_fract_y
_atom_site_fract_z
_atom_type_partial_charge
C1    C     C_R   0.499989 0.220908 0.499995 0.544536
C2    C     C_R   0.635914 0.488058 0.139011 0.025699
C3    C     C_R   0.507632 0.563681 0.899481 0.183249
C4    C     C_R   0.492364 0.436315 0.100519 0.183250
C5    C     C_R   0.612794 0.649963 0.852002 -0.150544
C6    C     C_R   0.387199 0.350037 0.147998 -0.150545
C7    C     C_R   0.625916 0.619831 0.771692 -0.148226
C8    C     C_R   0.374079 0.380171 0.228308 -0.148226
C9    C     C_1   0.500006 0.065611 0.499997 -0.047243
C10   C     C_1   0.499993 0.934389 0.500003 -0.047243
C11   C     C_R   0.795552 0.432418 0.109557 0.050262
C12   C     C_R   0.500011 0.779092 0.500004 0.544537
C13   C     C_R   0.802922 0.290555 0.075396 -0.075278
C14   C     C_R   0.948380 0.241591 0.040254 -0.141529
C15   C     C_R   0.086590 0.333435 0.038977 -0.108007
C16   C     C_R   0.084146 0.468997 0.078780 -0.079467
C17   C     C_R   0.940636 0.516124 0.116505 -0.107612
C18   C     C_R   0.204445 0.567575 0.890441 0.050261
C19   C     C_R   0.059361 0.483870 0.883491 -0.107611
C20   C     C_R   0.915850 0.530997 0.921215 -0.079465
C21   C     C_R   0.913405 0.666559 0.961019 -0.108005
C22   C     C_R   0.051615 0.758402 0.959742 -0.141530
C23   C     C_R   0.515679 0.501804 0.650883 0.536310
C24   C     C_R   0.197073 0.709439 0.924602 -0.075279
C25   C     C_R   0.484321 0.498195 0.349116 0.536310
C26   C     C_R   0.512237 0.522865 0.736469 -0.002297
C27   C     C_R   0.487762 0.477133 0.263531 -0.002297
C28   C     C_R   0.373505 0.476290 0.780572 -0.150924
C29   C     C_R   0.626496 0.523702 0.219427 -0.150924
C30   C     C_R   0.364084 0.511935 0.860989 0.025699
Cu1   Cu    Cu3+1 0.669080 0.500010 0.500000 1.016894
Cu2   Cu    Cu3+1 0.330920 0.499990 0.500000 1.016894
H1    H     H_    0.734176 0.570408 0.249295 0.129027
H2    H     H_    0.189121 0.543348 0.076212 0.159522
H3    H     H_    0.938763 0.623503 0.144092 0.098315
H4    H     H_    0.061234 0.376491 0.855904 0.098315
H5    H     H_    0.810874 0.456646 0.923783 0.159521
H6    H     H_    0.805209 0.700081 0.994244 0.137211
H7    H     H_    0.048323 0.864252 0.988799 0.098621
H8    H     H_    0.305151 0.781191 0.926085 0.115559
H9    H     H_    0.265828 0.429582 0.750704 0.129027
H10   H     H_    0.684382 0.739596 0.875618 0.120835
H11   H     H_    0.315607 0.260407 0.124383 0.120837
H12   H     H_    0.717857 0.677929 0.736646 0.137985
H13   H     H_    0.282135 0.322076 0.263355 0.137986
H14   H     H_    0.694844 0.218803 0.073913 0.115558
H15   H     H_    0.951671 0.135741 0.011198 0.098621
H16   H     H_    0.194786 0.299911 0.005753 0.137211
N1    N     N_1   0.076820 0.499970 0.500010 -0.083762
N2    N     N_1   0.923180 0.500030 0.499990 -0.083762
N3    N     N_2   0.526463 0.558442 0.984203 -0.264673
N4    N     N_2   0.473533 0.441553 0.015797 -0.264674
O1    O     O_R   0.642760 0.288400 0.500000 -0.492461
O2    O     O_R   0.357240 0.711600 0.500000 -0.492461
O3    O     O_R   0.357190 0.288380 0.500000 -0.496617
O4    O     O_R   0.642810 0.711620 0.500000 -0.496617
O5    O     O_R   0.658410 0.498660 0.613920 -0.499553
O6    O     O_R   0.341590 0.501340 0.386080 -0.499553
O7    O     O_R   0.372840 0.498650 0.613930 -0.505834
O8    O     O_R   0.627160 0.501350 0.386070 -0.505834

loop_
_geom_bond_atom_site_label_1
_geom_bond_atom_site_label_2
_ccdc_geom_bond_type
Cu1   O8    S    
C3    C30   A    
C2    C4    A    
C5    H10   S    
C14   H15   S    
C18   C30   S    
C25   O8    A    
Cu1   O4    S    
C25   C27   S    
C9    C10   T    
Cu2   O3    S    
C26   C28   A    
C19   C20   A    
Cu2   O6    S    
C6    H11   S    
Cu1   O5    S    
C23   O5    A    
C28   C30   A    
C1    O3    A    
C8    H13   S    
C13   C14   A    
Cu1   O1    S    
C23   O7    A    
C20   H5    S    
C11   C13   A    
C12   O4    A    
C7    C26   A    
C10   C12   S    
C15   H16   S    
C4    N4    S    
C2    C29   A    
C18   C24   A    
C2    C11   S    
C6    C8    A    
Cu2   O2    S    
C24   H8    S    
N1    N2    T    
C19   H4    S    
C13   H14   S    
C22   C24   A    
Cu2   N1    S    
C27   C29   A    
C25   O6    A    
C22   H7    S    
Cu1   N2    S    
C15   C16   A    
C29   H1    S    
C28   H9    S    
C1    C9    S    
C20   C21   A    
C4    C6    A    
C18   C19   A    
C23   C26   S    
C5    C7    A    
C8    C27   A    
C1    O1    A    
C14   C15   A    
C11   C17   A    
C3    N3    S    
C17   H3    S    
Cu2   O7    S    
C16   H2    S    
C21   C22   A    
C7    H12   S    
Cu1   Cu2   S    
C12   O2    A    
C21   H6    S    
N3    N4    D    
C16   C17   A    
C3    C5    A    
