data_mof_unit_5194.cif
_audit_creation_date              2013-03-05T16:35:51-0500
_audit_creation_method            fapswitch 2.2
_symmetry_space_group_name_H-M    P1
_symmetry_Int_Tables_number       1
_space_group_crystal_system       triclinic
_cell_length_a                    23.557943
_cell_length_b                    9.082321
_cell_length_c                    7.790386
_cell_angle_alpha                 89.62858
_cell_angle_beta                  89.997668
_cell_angle_gamma                 90.00051
_cell_volume                      1666.80220025

loop_
_atom_site_label
_atom_site_type_symbol
_atom_site_description
_atom_site_fract_x
_atom_site_fract_y
_atom_site_fract_z
_atom_type_partial_charge
O1    O     O_R   0.500000 0.288390 0.642760 -0.575375
O2    O     O_R   0.500000 0.711610 0.357240 -0.575377
O3    O     O_R   0.500000 0.711610 0.642760 -0.575517
O4    O     O_R   0.500000 0.288390 0.357240 -0.575514
C1    C     C_R   0.500001 0.220054 0.500340 0.849767
C2    C     C_R   0.500001 0.779946 0.499660 0.849759
O5    O     O_R   0.417880 0.500000 0.642820 -0.582124
O6    O     O_R   0.582120 0.500000 0.357180 -0.581319
O7    O     O_R   0.582120 0.500000 0.642820 -0.581316
O8    O     O_R   0.417880 0.500000 0.357180 -0.582118
C3    C     C_R   0.208870 0.500027 0.500052 0.128301
C4    C     C_R   0.790601 0.500104 0.499997 0.140320
C5    C     C_R   0.390712 0.499999 0.500004 0.847772
C6    C     C_R   0.609264 0.500007 0.499997 0.846653
Cu1   Cu    Cu3+1 0.500000 0.500000 0.669080 1.027901
Cu2   Cu    Cu3+1 0.500000 0.500000 0.330920 1.027903
C7    C     C_R   0.298378 0.545901 0.353816 -0.228785
C8    C     C_R   0.701547 0.447589 0.357110 -0.228367
C9    C     C_R   0.298380 0.454120 0.646237 -0.228800
C10   C     C_R   0.701536 0.552527 0.642875 -0.228391
H1    H     H_    0.320965 0.582433 0.240136 0.200365
H2    H     H_    0.678991 0.405685 0.246416 0.198943
H3    H     H_    0.320968 0.417585 0.759907 0.200366
H4    H     H_    0.678972 0.594406 0.753566 0.198943
C11   C     C_R   0.328334 0.500003 0.500016 -0.170008
C12   C     C_R   0.671592 0.500038 0.499994 -0.166427
C13   C     C_R   0.879444 0.624749 0.450626 0.715813
C14   C     C_R   0.119045 0.370190 0.519751 0.715827
C15   C     C_R   0.879435 0.375442 0.549416 0.715797
C16   C     C_R   0.119056 0.629915 0.480379 0.715834
N1    N     N_R   0.851530 0.500100 0.500015 -0.463635
N2    N     N_R   0.147617 0.500044 0.500065 -0.466019
C17   C     C_R   0.939393 0.372027 0.554002 -0.142994
C18   C     C_R   0.059596 0.630254 0.458521 -0.144842
C19   C     C_R   0.939404 0.628152 0.446086 -0.143003
C20   C     C_R   0.059584 0.369885 0.541619 -0.144852
C21   C     C_R   0.969359 0.500087 0.500056 -0.096267
C22   C     C_R   0.029416 0.500076 0.500068 -0.107462
C23   C     C_R   0.970265 0.246693 0.612299 0.368900
C24   C     C_R   0.029862 0.754631 0.395426 0.376485
C25   C     C_R   0.970288 0.753477 0.387806 0.368886
C26   C     C_R   0.029840 0.245522 0.604713 0.376470
C27   C     C_1   0.500002 0.065395 0.500469 -0.148255
C28   C     C_1   0.500002 0.934605 0.499531 -0.148255
C29   C     C_R   0.239167 0.547649 0.353666 0.420119
C30   C     C_R   0.760764 0.446202 0.357361 0.415590
C31   C     C_R   0.239169 0.452393 0.646424 0.420103
C32   C     C_R   0.760752 0.553979 0.642629 0.415561
N3    N     N_1   0.500000 0.500000 0.076820 -0.040924
N4    N     N_1   0.500000 0.500000 0.923180 -0.040925
O9    O     O_2   0.848515 0.744307 0.407933 -0.395117
O10   O     O_2   0.148333 0.242719 0.515410 -0.385554
O11   O     O_2   0.848500 0.255883 0.592057 -0.395147
O12   O     O_2   0.148355 0.757364 0.484698 -0.385586
Cl1   Cl    Cl    0.936608 0.089769 0.704113 -0.321878
Cl2   Cl    Cl    0.066201 0.907569 0.303910 -0.319030
Cl3   Cl    Cl    0.936648 0.910395 0.295938 -0.321899
Cl4   Cl    Cl    0.066165 0.092588 0.696277 -0.319061
Cl5   Cl    Cl    0.204233 0.610359 0.167559 -0.432868
Cl6   Cl    Cl    0.796966 0.375693 0.178285 -0.433254
Cl7   Cl    Cl    0.204239 0.389694 0.832560 -0.432847
Cl8   Cl    Cl    0.796937 0.624518 0.821712 -0.433265

loop_
_geom_bond_atom_site_label_1
_geom_bond_atom_site_label_2
_geom_bond_distance
_ccdc_geom_bond_type
O4    Cu2   1.931496 S    
O5    C5    1.283568 A    
C9    H3    1.083359 S    
O7    C6    1.283289 A    
C31   Cl7   1.758783 S    
C21   C22   1.414826 A    
O1    Cu1   1.934139 S    
C23   Cl1   1.777151 S    
O2    Cu2   1.934138 S    
C20   C26   1.414617 A    
C8    C12   1.403824 A    
C14   O10   1.348349 S    
C17   C21   1.421736 A    
C4    C32   1.405536 A    
O3    C2    1.272405 A    
C7    C11   1.401037 A    
C26   Cl4   1.776983 S    
O5    Cu1   1.945375 S    
C3    C31   1.410888 A    
C1    C27   1.404657 S    
C25   Cl3   1.777135 S    
C15   N1    1.362525 A    
C24   Cl2   1.776973 S    
C2    C28   1.404657 S    
C6    C12   1.468329 S    
C16   N2    1.365727 A    
C16   O12   1.348299 S    
C5    C11   1.469502 S    
C10   C32   1.395087 A    
C10   C12   1.403845 A    
C13   C19   1.413313 A    
C27   C28   1.187951 T    
C18   C24   1.414619 A    
C8    C30   1.395103 A    
C20   C22   1.415312 A    
C24   C25   1.404759 A    
C19   C21   1.421732 A    
C13   O9    1.347572 S    
C3    N2    1.442973 S    
C23   C26   1.404754 A    
C9    C31   1.394980 A    
C4    N1    1.435362 S    
O7    Cu1   1.945357 S    
C19   C25   1.422784 A    
O1    C1    1.274810 A    
C3    C29   1.410874 A    
C16   C18   1.411080 A    
C9    C11   1.401058 A    
C13   N1    1.362515 A    
Cu1   Cu2   2.634398 S    
C15   C17   1.413286 A    
C14   N2    1.365715 A    
O3    Cu1   1.931495 S    
Cu2   N3    1.979536 S    
C14   C20   1.411084 A    
C4    C30   1.405558 A    
N3    N4    1.196916 T    
O6    Cu2   1.945373 S    
Cu1   N4    1.979536 S    
C10   H4    1.083999 S    
C29   Cl5   1.758726 S    
O8    Cu2   1.945359 S    
O6    C6    1.283293 A    
C30   Cl6   1.759303 S    
C8    H2    1.084028 S    
C32   Cl8   1.759304 S    
C17   C23   1.422778 A    
C7    H1    1.083361 S    
O2    C2    1.274810 A    
C7    C29   1.394983 A    
O4    C1    1.272405 A    
C15   O11   1.347536 S    
O8    C5    1.283576 A    
C18   C22   1.415312 A    
