data_mof_unit_58999.cif
_audit_creation_date              2012-12-10T17:35:50-0500
_audit_creation_method            fapswitch 2.2
_symmetry_space_group_name_H-M    P1
_symmetry_Int_Tables_number       1
_space_group_crystal_system       triclinic
_cell_length_a                    10.602726
_cell_length_b                    12.315329
_cell_length_c                    13.052431
_cell_angle_alpha                 95.170882
_cell_angle_beta                  93.875111
_cell_angle_gamma                 89.605881
_cell_volume                      1693.51767505

loop_
_atom_site_label
_atom_site_type_symbol
_atom_type_description
_atom_site_fract_x
_atom_site_fract_y
_atom_site_fract_z
_atom_type_partial_charge
C1    C     C_R   0.492695 0.521450 0.699028 0.881812
C2    C     C_R   0.612352 0.167534 0.587893 0.279204
C3    C     C_R   0.559474 0.863955 0.536703 0.011531
C4    C     C_R   0.440516 0.136043 0.463313 0.011522
C5    C     C_R   0.542696 0.979754 0.536833 -0.110974
C6    C     C_R   0.457302 0.020245 0.463181 -0.110919
C7    C     C_R   0.741787 0.502371 0.499670 0.866105
C8    C     C_R   0.258213 0.497629 0.500327 0.866102
C9    C     C_3   0.962816 0.474847 0.591309 -0.254425
C10   C     C_3   0.037186 0.525151 0.408685 -0.254450
C11   C     C_3   0.048501 0.571461 0.575166 0.077277
C12   C     C_R   0.507302 0.478549 0.300971 0.881803
C13   C     C_3   0.951500 0.428537 0.424828 0.077289
C14   C     C_3   0.122508 0.495106 0.501757 -0.010505
C15   C     C_3   0.877493 0.504893 0.498236 -0.010489
C16   C     C_3   0.038728 0.397858 0.517252 -0.194380
C17   C     C_3   0.961275 0.602141 0.482741 -0.194371
C18   C     C_R   0.507429 0.467746 0.189166 -0.108901
C19   C     C_R   0.492563 0.532254 0.810833 -0.108916
C20   C     C_R   0.579965 0.627219 0.968499 0.214468
C21   C     C_R   0.420026 0.372783 0.031500 0.214485
C22   C     C_R   0.564727 0.614495 0.862776 -0.289271
C23   C     C_R   0.436413 0.453507 0.865466 -0.075056
C24   C     C_R   0.435283 0.385499 0.137222 -0.289299
C25   C     C_R   0.111256 0.647976 0.661015 0.120264
C26   C     C_R   0.099836 0.630577 0.764861 -0.174094
C27   C     C_R   0.168229 0.694380 0.843569 -0.166466
C28   C     C_R   0.246211 0.778100 0.819538 -0.113716
C29   C     C_R   0.253725 0.799633 0.716989 -0.146087
C30   C     C_R   0.185595 0.735763 0.638426 -0.120441
C31   C     C_R   0.888747 0.352018 0.338978 0.120261
C32   C     C_R   0.900202 0.369398 0.235126 -0.174097
C33   C     C_R   0.831819 0.305590 0.156410 -0.166478
C34   C     C_R   0.563566 0.546498 0.134535 -0.075026
C35   C     C_R   0.753810 0.221885 0.180441 -0.113712
C36   C     C_R   0.746264 0.200365 0.282999 -0.146087
C37   C     C_R   0.814390 0.264236 0.361569 -0.120405
C38   C     C_R   0.657400 0.624618 0.188945 0.170941
C39   C     C_R   0.618150 0.723991 0.238166 -0.011485
C40   C     C_R   0.706602 0.802835 0.277724 -0.159254
C41   C     C_R   0.835281 0.783521 0.267846 -0.136969
C42   C     C_R   0.875160 0.685921 0.216812 -0.157479
C43   C     C_R   0.786391 0.607540 0.176371 -0.172092
C44   C     C_R   0.342596 0.375373 0.811056 0.170981
C45   C     C_R   0.463592 0.455658 0.973645 0.018496
C46   C     C_R   0.213601 0.392416 0.823648 -0.172070
C47   C     C_R   0.124854 0.314014 0.783209 -0.157480
C48   C     C_R   0.164766 0.216428 0.732164 -0.136932
C49   C     C_R   0.293448 0.197148 0.722273 -0.159272
C50   C     C_R   0.381875 0.276011 0.761829 -0.011488
C51   C     C_3   0.568500 0.822923 0.003148 -0.827903
C52   C     C_3   0.431562 0.177097 0.996808 -0.828207
C53   C     C_R   0.323528 0.176435 0.413081 0.243874
C54   C     C_R   0.207746 0.150015 0.451156 -0.197747
C55   C     C_R   0.096669 0.147297 0.387402 -0.198634
C56   C     C_R   0.536386 0.544350 0.026356 0.018463
C57   C     C_R   0.099980 0.172484 0.285618 -0.095761
C58   C     C_R   0.213310 0.203263 0.248490 -0.197049
C59   C     C_R   0.325277 0.203948 0.311945 -0.077117
C60   C     C_R   0.676453 0.823557 0.586946 0.243887
C61   C     C_R   0.674699 0.796071 0.688093 -0.077185
C62   C     C_R   0.786671 0.796751 0.751545 -0.197082
C63   C     C_R   0.900011 0.827488 0.714400 -0.095774
C64   C     C_R   0.903322 0.852652 0.612607 -0.198666
C65   C     C_R   0.792241 0.849943 0.548858 -0.197751
C66   C     C_3   0.834208 0.208742 0.643950 -0.917723
C67   C     C_R   0.388885 0.943713 0.393390 0.140282
C68   C     C_3   0.165819 0.791228 0.356014 -0.917868
C69   C     C_3   0.389379 0.944180 0.206599 -0.838889
C70   C     C_3   0.610796 0.055971 0.793426 -0.838817
C71   C     C_R   0.611124 0.056293 0.606613 0.140209
C72   C     C_R   0.387657 0.832470 0.412099 0.279150
H1    H     H_    0.925349 0.456031 0.664982 0.129693
H2    H     H_    0.312139 0.865896 0.698263 0.123425
H3    H     H_    0.191081 0.755212 0.560124 0.163930
H4    H     H_    0.961835 0.432094 0.214424 0.119119
H5    H     H_    0.839804 0.320812 0.076721 0.127832
H6    H     H_    0.701124 0.172501 0.119583 0.127819
H7    H     H_    0.687835 0.134107 0.301725 0.123405
H8    H     H_    0.808902 0.244781 0.439878 0.163954
H9    H     H_    0.518866 0.741238 0.242626 0.133390
H10   H     H_    0.675084 0.879664 0.314281 0.113727
H11   H     H_    0.903416 0.845290 0.297806 0.126752
H12   H     H_    0.074656 0.543970 0.335015 0.129707
H13   H     H_    0.974238 0.672008 0.205607 0.127322
H14   H     H_    0.816755 0.536691 0.129597 0.123162
H15   H     H_    0.183218 0.463255 0.870430 0.123127
H16   H     H_    0.025767 0.327900 0.794416 0.127319
H17   H     H_    0.096658 0.154638 0.702203 0.126743
H18   H     H_    0.324988 0.120329 0.685705 0.113732
H19   H     H_    0.481165 0.258787 0.757357 0.133384
H20   H     H_    0.732493 0.731043 0.994336 0.220609
H21   H     H_    0.615616 0.891666 0.051577 0.245024
H22   H     H_    0.471713 0.813252 0.028395 0.249178
H23   H     H_    0.074064 0.316657 0.535091 0.171507
H24   H     H_    0.562026 0.842528 0.921560 0.232326
H25   H     H_    0.267546 0.268913 0.005680 0.220650
H26   H     H_    0.384453 0.108335 0.948413 0.245034
H27   H     H_    0.438113 0.157504 0.078379 0.232389
H28   H     H_    0.528294 0.186794 0.971509 0.249272
H29   H     H_    0.205121 0.120249 0.526212 0.119824
H30   H     H_    0.009606 0.120256 0.415561 0.131234
H31   H     H_    0.016043 0.163405 0.234082 0.158357
H32   H     H_    0.215403 0.217063 0.168137 0.126668
H33   H     H_    0.415654 0.207730 0.278931 0.134496
H34   H     H_    0.925945 0.683340 0.464890 0.171505
H35   H     H_    0.584322 0.792305 0.721113 0.134478
H36   H     H_    0.784577 0.782978 0.831905 0.126693
H37   H     H_    0.983955 0.836558 0.765930 0.158364
H38   H     H_    0.990389 0.879671 0.584436 0.131247
H39   H     H_    0.794870 0.879691 0.473795 0.119831
H40   H     H_    0.684103 0.318864 0.659712 0.281510
H41   H     H_    0.886684 0.275404 0.616152 0.253091
H42   H     H_    0.849969 0.134605 0.591100 0.233203
H43   H     H_    0.872835 0.195710 0.722931 0.247978
H44   H     H_    0.315934 0.681129 0.340314 0.281577
H45   H     H_    0.386807 0.330974 0.179042 0.154948
H46   H     H_    0.127163 0.804181 0.277021 0.247980
H47   H     H_    0.150019 0.865401 0.408805 0.233209
H48   H     H_    0.113397 0.724591 0.383884 0.253124
H49   H     H_    0.232162 0.970490 0.292272 0.261941
H50   H     H_    0.349740 0.992493 0.144239 0.241208
H51   H     H_    0.369721 0.857014 0.182665 0.246532
H52   H     H_    0.492710 0.959542 0.217217 0.242025
H53   H     H_    0.767889 0.029426 0.707638 0.261930
H54   H     H_    0.630541 0.143148 0.817281 0.246534
H55   H     H_    0.650462 0.007696 0.855809 0.241194
H56   H     H_    0.613247 0.668996 0.820952 0.154953
H57   H     H_    0.507442 0.040658 0.782888 0.242044
H58   H     H_    0.038215 0.567873 0.785565 0.119122
H59   H     H_    0.160277 0.679141 0.923253 0.127848
H60   H     H_    0.298906 0.827479 0.880390 0.127816
N1    N     N_R   0.523490 0.207800 0.519350 -0.174846
N2    N     N_R   0.476510 0.792200 0.480650 -0.174845
N3    N     N_2   0.640655 0.724034 0.014306 -0.293411
N4    N     N_2   0.359361 0.275959 0.985693 -0.293417
N5    N     N_2   0.701774 0.237419 0.647088 -0.294803
N6    N     N_2   0.298262 0.762583 0.352869 -0.294809
N7    N     N_2   0.328900 0.976809 0.300250 -0.284486
N8    N     N_2   0.671142 0.023209 0.699742 -0.284493
O1    O     O_R   0.506270 0.421700 0.658830 -0.661711
O2    O     O_R   0.493730 0.578300 0.341170 -0.661711
O3    O     O_R   0.491200 0.609310 0.646410 -0.614326
O4    O     O_R   0.508800 0.390690 0.353590 -0.614352
O5    O     O_R   0.693580 0.406210 0.506230 -0.639429
O6    O     O_R   0.306420 0.593790 0.493770 -0.639469
O7    O     O_R   0.678510 0.593830 0.493810 -0.608617
O8    O     O_R   0.321490 0.406170 0.506190 -0.608629
Zn1   Zn    Zn3+2 0.510060 0.374730 0.508290 0.932102
Zn2   Zn    Zn3+2 0.489940 0.625270 0.491710 0.932109

loop_
_geom_bond_atom_site_label_1
_geom_bond_atom_site_label_2
_ccdc_geom_bond_type
C70   H55   S    
C69   N7    S    
C34   C56   A    
C23   C45   A    
C66   H41   S    
C4    C53   S    
C27   H59   S    
C41   C42   A    
C54   H29   S    
C68   N6    S    
C35   C36   A    
C49   H18   S    
C20   C56   A    
C33   H5    S    
C53   C59   A    
O1    Zn1   S    
C53   C54   A    
C70   N8    S    
C55   H30   S    
C26   C27   A    
C29   C30   A    
C18   C24   A    
C28   C29   A    
C9    C16   S    
C68   H47   S    
C38   C39   A    
C11   C14   S    
C62   H36   S    
C69   H51   S    
C10   C17   S    
N2    Zn2   S    
C67   C72   A    
C46   C47   A    
C10   H12   S    
C72   N2    A    
C65   H39   S    
C68   H46   S    
O6    Zn2   S    
C64   H38   S    
C35   H6    S    
O3    Zn2   S    
C47   C48   A    
C45   C56   A    
C52   H26   S    
C67   N7    S    
C21   N4    S    
C7    O7    A    
C26   H58   S    
C51   H24   S    
C3    C60   S    
C70   H54   S    
C72   N6    S    
C43   H14   S    
C8    O8    A    
C9    H1    S    
C44   C46   A    
C21   C45   A    
H53   N8    S    
C57   H31   S    
C37   H8    S    
C1    C19   S    
C2    N1    A    
C66   H43   S    
C40   H10   S    
C19   C22   A    
N1    Zn1   S    
O8    Zn1   S    
C39   H9    S    
C4    C6    A    
C10   C14   S    
C39   C40   A    
C29   H2    S    
C69   H52   S    
C25   C26   A    
C10   C13   S    
C70   H57   S    
C23   C44   S    
C31   C37   A    
C60   C61   A    
C28   H60   S    
C63   H37   S    
C19   C23   A    
C62   C63   A    
C1    O3    A    
C18   C34   A    
C22   H56   S    
C31   C32   A    
O7    Zn2   S    
C24   H45   S    
C42   H13   S    
C59   H33   S    
C9    C11   S    
C51   H21   S    
C48   C49   A    
C20   C22   A    
C60   C65   A    
C48   H17   S    
C55   C57   A    
C52   N4    S    
C14   C16   S    
C21   C24   A    
H20   N3    S    
C58   H32   S    
C42   C43   A    
C2    C71   A    
H44   N6    S    
C46   H15   S    
C44   C50   A    
C25   C30   A    
C15   C17   S    
C54   C55   A    
C11   C17   S    
C16   H23   S    
C8    C14   S    
C66   H42   S    
O4    Zn1   S    
C34   C38   S    
C2    N5    S    
H40   N5    S    
C13   C31   S    
C8    O6    A    
C3    C5    A    
C36   H7    S    
C32   H4    S    
C71   N8    S    
C52   H27   S    
C52   H28   S    
C3    N2    A    
C47   H16   S    
H49   N7    S    
C13   C15   S    
C58   C59   A    
C38   C43   A    
C5    C71   A    
C6    C67   A    
C17   H34   S    
C32   C33   A    
C30   H3    S    
O2    Zn2   S    
C57   C58   A    
C5    C6    A    
C66   N5    S    
C51   N3    S    
C69   H50   S    
C64   C65   A    
C7    C15   S    
C33   C35   A    
C12   O2    A    
C20   N3    S    
C9    C15   S    
C61   C62   A    
C61   H35   S    
O5    Zn1   S    
C1    O1    A    
C51   H22   S    
C63   C64   A    
C12   O4    A    
C50   H19   S    
C36   C37   A    
C49   C50   A    
C13   C16   S    
C12   C18   S    
C27   C28   A    
C11   C25   S    
C40   C41   A    
H25   N4    S    
C68   H48   S    
C4    N1    A    
C7    O5    A    
C41   H11   S    
