data_mof_unit_65472.cif
_audit_creation_date              2012-12-10T22:08:30-0500
_audit_creation_method            fapswitch 2.2
_symmetry_space_group_name_H-M    P1
_symmetry_Int_Tables_number       1
_space_group_crystal_system       triclinic
_cell_length_a                    16.04002
_cell_length_b                    16.181488
_cell_length_c                    30.107028
_cell_angle_alpha                 90.673244
_cell_angle_beta                  89.911
_cell_angle_gamma                 90.590523
_cell_volume                      7813.35852169

loop_
_atom_site_label
_atom_site_type_symbol
_atom_type_description
_atom_site_fract_x
_atom_site_fract_y
_atom_site_fract_z
_atom_type_partial_charge
C1    C     C_R   0.618016 0.999094 0.559238 0.883706
C2    C     C_R   0.382003 0.000902 0.440748 0.883227
C3    C     C_R   0.918082 0.820109 0.174020 0.429142
C4    C     C_R   0.082377 0.179371 0.826215 0.430549
C5    C     C_R   0.058748 0.923786 0.180813 0.451896
C6    C     C_R   0.941203 0.076497 0.819069 0.451086
C7    C     C_R   0.055364 0.860650 0.149402 -0.198455
C8    C     C_R   0.944655 0.139641 0.850463 -0.201921
C9    C     C_R   0.941209 0.092346 0.186440 -0.244171
C10   C     C_R   0.059095 0.907137 0.813203 -0.152157
C11   C     C_R   0.937277 0.156259 0.156488 -0.153141
C12   C     C_R   0.062972 0.843314 0.843212 -0.092186
C13   C     C_R   0.138275 0.936103 0.283131 0.401160
C14   C     C_R   0.862048 0.064017 0.716639 0.397043
C15   C     C_R   0.201386 0.940959 0.314923 -0.222576
C16   C     C_R   0.798994 0.059194 0.684827 -0.222715
C17   C     C_R   0.872882 0.079353 0.289744 -0.149520
C18   C     C_R   0.125876 0.919485 0.709714 -0.151626
C19   C     C_R   0.805877 0.074267 0.319805 0.303559
C20   C     C_R   0.192749 0.924346 0.679333 0.346428
C21   C     C_3   0.001990 0.007117 0.248319 0.011303
C22   C     C_3   0.997930 0.992799 0.751655 0.018637
C23   C     C_R   0.616954 0.000971 0.440638 0.875723
C24   C     C_R   0.383058 0.999035 0.559373 0.875657
C25   C     C_R   0.078401 0.001309 0.280296 -0.027063
C26   C     C_R   0.921638 0.998596 0.719635 -0.011036
C27   C     C_R   0.205007 0.005287 0.345942 0.048085
C28   C     C_R   0.795105 0.994619 0.653972 0.044595
C29   C     C_R   0.926597 0.009063 0.282380 -0.138449
C30   C     C_R   0.073310 0.990546 0.717549 -0.171199
C31   C     C_R   0.794680 0.004289 0.345701 -0.058741
C32   C     C_R   0.205677 0.995511 0.654539 -0.087800
C33   C     C_R   0.006816 0.085545 0.217951 0.081380
C34   C     C_R   0.992841 0.914591 0.782156 0.014832
C35   C     C_R   0.998670 0.216665 0.156550 0.115336
C36   C     C_R   0.001000 0.783506 0.843557 0.106942
C37   C     C_R   0.993495 0.934362 0.213098 -0.066487
C38   C     C_R   0.006618 0.065554 0.786901 -0.060768
C39   C     C_R   0.987384 0.808002 0.146902 -0.051693
C40   C     C_R   0.012881 0.191906 0.853134 -0.051892
C41   C     C_1   0.730899 0.002882 0.378797 0.157002
C42   C     C_1   0.269359 0.997121 0.621359 0.153432
C43   C     C_1   0.678700 0.001690 0.407095 -0.069375
C44   C     C_1   0.321433 0.998344 0.592989 -0.068926
C45   C     C_R   0.082900 0.063941 0.313747 -0.352695
C46   C     C_R   0.916848 0.935582 0.686372 -0.359118
C47   C     C_1   0.268104 0.002641 0.379097 0.070665
C48   C     C_1   0.732015 0.997287 0.620821 0.070928
C49   C     C_1   0.320224 0.001286 0.407332 -0.080143
C50   C     C_1   0.679855 0.998686 0.592613 -0.079185
C51   C     C_1   0.997990 0.278390 0.123406 -0.027762
C52   C     C_1   0.001841 0.721753 0.876678 -0.023453
C53   C     C_1   0.998370 0.329078 0.094917 -0.126039
C54   C     C_1   0.001578 0.671006 0.905134 -0.123690
C55   C     C_1   0.988554 0.743404 0.114329 0.086207
C56   C     C_1   0.011660 0.256570 0.885677 0.086616
C57   C     C_1   0.990324 0.688968 0.087222 -0.105245
C58   C     C_1   0.009762 0.311029 0.912771 -0.105417
C59   C     C_R   0.993568 0.623592 0.055671 0.882536
C60   C     C_R   0.006443 0.376413 0.944322 0.882833
C61   C     C_R   0.999149 0.388748 0.060975 0.891440
C62   C     C_R   0.000845 0.611266 0.939035 0.891159
C63   C     C_R   0.145020 0.067661 0.345878 -0.012544
C64   C     C_R   0.854741 0.931913 0.654226 0.002072
C65   C     C_R   0.913620 0.939167 0.311172 -0.133683
C66   C     C_R   0.087227 0.060971 0.689276 -0.130601
C67   C     C_R   0.848165 0.937620 0.341984 0.333301
C68   C     C_R   0.153391 0.062943 0.658944 0.338480
C69   C     C_R   0.071714 0.148604 0.216362 0.074066
C70   C     C_R   0.927496 0.851992 0.784046 0.005919
C71   C     C_R   0.064339 0.213852 0.186351 -0.089445
C72   C     C_R   0.934815 0.786813 0.814104 -0.115912
C73   C     C_R   0.917973 0.885525 0.205611 -0.134786
C74   C     C_R   0.082379 0.113994 0.794571 -0.142635
H1    H     H_    0.891226 0.047763 0.184785 0.129847
H2    H     H_    0.109480 0.951245 0.814556 0.129230
H3    H     H_    0.112881 0.260935 0.184350 0.178602
H4    H     H_    0.885962 0.740094 0.816362 0.187124
H5    H     H_    0.107137 0.852204 0.126602 0.204102
H6    H     H_    0.892729 0.148393 0.873132 0.204622
H7    H     H_    0.886399 0.157909 0.132864 0.160912
H8    H     H_    0.114314 0.841224 0.866534 0.156710
H9    H     H_    0.246321 0.891456 0.316888 0.202258
H10   H     H_    0.754277 0.108872 0.682736 0.203083
H11   H     H_    0.037872 0.112832 0.314046 0.222298
H12   H     H_    0.961557 0.886324 0.686215 0.149251
O1    O     O_R   0.591150 0.068800 0.545430 -0.618051
O2    O     O_R   0.408850 0.931200 0.454570 -0.618378
O3    O     O_R   0.588750 0.931200 0.454570 -0.593653
O4    O     O_R   0.411250 0.068800 0.545430 -0.592906
O5    O     O_R   0.590220 0.070350 0.455860 -0.599706
O6    O     O_R   0.409780 0.929650 0.544140 -0.600414
O7    O     O_R   0.589680 0.929650 0.544140 -0.581727
O8    O     O_R   0.410320 0.070350 0.455860 -0.581789
O9    O     O_R   0.065580 0.596830 0.043410 -0.612469
O10   O     O_R   0.934420 0.403170 0.956590 -0.612725
O11   O     O_R   0.928990 0.412290 0.044840 -0.607635
O12   O     O_R   0.071010 0.587710 0.955160 -0.605347
O13   O     O_R   0.069930 0.417270 0.047240 -0.606786
O14   O     O_R   0.930070 0.582730 0.952760 -0.607277
O15   O     O_R   0.924640 0.591850 0.041010 -0.593260
O16   O     O_R   0.075360 0.408150 0.958990 -0.592515
Zn1   Zn    Zn3+2 0.500990 0.093570 0.500870 1.094382
Zn2   Zn    Zn3+2 0.499010 0.906430 0.499130 1.093413
Zn3   Zn    Zn3+2 0.094790 0.503330 0.001610 1.055114
Zn4   Zn    Zn3+2 0.905210 0.496670 0.998390 1.052349
C75   C     C_2   0.143512 0.138162 0.378163 0.504806
H13   H     H_    0.093084 0.182328 0.376879 0.100554
O17   O     O_2   0.197698 0.148743 0.406122 -0.531830
C76   C     C_2   0.855866 0.861106 0.622129 0.496263
H14   H     H_    0.906017 0.816650 0.623551 0.077507
O18   O     O_2   0.801666 0.850598 0.594170 -0.530224
C77   C     C_2   0.967816 0.865938 0.311063 0.613848
H15   H     H_    0.021905 0.865339 0.332569 0.066097
O19   O     O_2   0.948183 0.803331 0.290473 -0.438080
C78   C     C_2   0.033166 0.134302 0.689390 0.614835
H16   H     H_    0.978957 0.134884 0.667979 0.064332
O20   O     O_2   0.053037 0.196991 0.709848 -0.437803
C79   C     C_2   0.151986 0.148817 0.240819 0.440984
H17   H     H_    0.187895 0.093172 0.244455 0.137699
O21   O     O_2   0.180493 0.213067 0.256513 -0.525570
C80   C     C_2   0.847125 0.851964 0.759655 0.446223
H18   H     H_    0.811672 0.907796 0.755674 0.146893
O22   O     O_2   0.818019 0.787644 0.744362 -0.541874
C81   C     C_2   0.835315 0.905415 0.225416 0.534975
H19   H     H_    0.811080 0.967486 0.224533 0.016815
O23   O     O_2   0.793255 0.852239 0.243559 -0.428172
C82   C     C_2   0.165045 0.093961 0.774771 0.532318
H20   H     H_    0.188872 0.031721 0.775188 0.043296
O24   O     O_2   0.207581 0.147264 0.757042 -0.425604
Cl1   Cl    Cl    0.150719 0.984057 0.177905 -0.626019
Cl2   Cl    Cl    0.848881 0.016777 0.821884 -0.618282
Cl3   Cl    Cl    0.134678 0.839273 0.255459 -0.537660
Cl4   Cl    Cl    0.865844 0.160940 0.744219 -0.538768
C83   C     C_2   0.884800 0.161762 0.269861 0.533200
H21   H     H_    0.841840 0.182287 0.244559 0.099585
O25   O     O_2   0.938329 0.209457 0.283785 -0.541802
C84   C     C_2   0.109311 0.836241 0.728083 0.541940
H22   H     H_    0.049807 0.805552 0.722843 0.048126
O26   O     O_2   0.162669 0.800867 0.749391 -0.480669
Cl5   Cl    Cl    0.833097 0.850894 0.376990 -0.497728
Cl6   Cl    Cl    0.170369 0.150915 0.625059 -0.492963
Cl7   Cl    Cl    0.828826 0.756145 0.164984 -0.471551
Cl8   Cl    Cl    0.171920 0.242775 0.835584 -0.467897
Cl9   Cl    Cl    0.736628 0.158578 0.327003 -0.539817
Cl10  Cl    Cl    0.258208 0.838051 0.669028 -0.489337

loop_
_geom_bond_atom_site_label_1
_geom_bond_atom_site_label_2
_ccdc_geom_bond_type
C16   C28   A    
C66   C68   A    
C1    O1    A    
C23   O5    A    
C5    C37   A    
C17   C29   A    
C19   C31   A    
C82   H20   S    
C83   H21   S    
C47   C49   T    
C11   H7    S    
C22   C34   S    
C31   C67   A    
C19   Cl9   S    
O12   Zn3   S    
C59   O9    A    
C20   C32   A    
C57   C59   S    
C21   C33   S    
C58   C60   S    
C22   C38   S    
C16   H10   S    
C23   C43   S    
C78   H16   S    
O16   Zn3   S    
C18   C84   S    
C69   C71   A    
C76   H14   S    
C37   C73   A    
O9    Zn3   S    
C62   O12   A    
C10   H2    S    
C74   C82   S    
C4    C40   A    
C78   O20   D    
C65   C67   A    
C17   C83   S    
C72   H4    S    
C75   H13   S    
C6    C38   A    
C2    O2    A    
C18   C30   A    
C65   C77   S    
C12   C36   A    
C31   C41   S    
C1    C50   S    
C34   C70   A    
C4    C74   A    
C36   C52   S    
C33   C69   A    
C32   C68   A    
C48   C50   T    
C35   C71   A    
C9    C33   A    
C75   O17   D    
C13   C25   A    
C61   O13   A    
C42   C44   T    
C60   O16   A    
C24   O6    A    
O7    Zn2   S    
O2    Zn2   S    
C52   C54   T    
C69   C79   S    
C79   O21   D    
C15   C27   A    
O13   Zn3   S    
C39   C55   S    
C59   O15   A    
C2    O8    A    
C3    Cl7   S    
C6    Cl2   S    
C21   C25   S    
C5    C7    A    
O6    Zn2   S    
C15   H9    S    
C54   C62   S    
C40   C56   S    
C21   C29   S    
C45   C63   A    
C24   O4    A    
C51   C53   T    
C45   H11   S    
C2    C49   S    
C70   C80   S    
C64   C76   S    
C8    H6    S    
C23   O3    A    
C62   O14   A    
C12   H8    S    
C10   C34   A    
C14   C26   A    
C68   Cl6   S    
C9    C11   A    
C30   C66   A    
C10   C12   A    
C29   C65   A    
O11   Zn4   S    
C60   O10   A    
O8    Zn1   S    
C55   C57   T    
O3    Zn2   S    
C35   C51   S    
C81   H19   S    
C24   C44   S    
C20   Cl10  S    
C80   O22   D    
C67   Cl5   S    
C25   C45   A    
C71   H3    S    
C8    C40   A    
C28   C64   A    
C7    H5    S    
C77   H15   S    
C38   C74   A    
C27   C47   S    
O15   Zn4   S    
C83   O25   D    
O10   Zn4   S    
C28   C48   S    
C32   C42   S    
C22   C30   S    
C13   Cl3   S    
C53   C61   S    
C61   O11   A    
C41   C43   T    
O5    Zn1   S    
C82   O24   D    
C4    Cl8   S    
C18   C20   A    
C6    C8    A    
C79   H17   S    
C84   O26   D    
C14   Cl4   S    
O14   Zn4   S    
C13   C15   A    
C66   C78   S    
O1    Zn1   S    
C73   C81   S    
C11   C35   A    
C17   C19   A    
C56   C58   T    
C14   C16   A    
C3    C73   A    
C76   O18   D    
O4    Zn1   S    
C84   H22   S    
C26   C46   A    
C3    C39   A    
C5    Cl1   S    
C21   C37   S    
C1    O7    A    
C22   C26   S    
C46   C64   A    
C81   O23   D    
C7    C39   A    
C27   C63   A    
C70   C72   A    
C9    H1    S    
C77   O19   D    
C80   H18   S    
C63   C75   S    
C36   C72   A    
C46   H12   S    
