data_mof_unit_6562.cif
_audit_creation_date              2012-12-10T17:01:41-0500
_audit_creation_method            fapswitch 2.2
_symmetry_space_group_name_H-M    P1
_symmetry_Int_Tables_number       1
_space_group_crystal_system       triclinic
_cell_length_a                    20.017996
_cell_length_b                    22.560451
_cell_length_c                    15.110604
_cell_angle_alpha                 90.361208
_cell_angle_beta                  90.642531
_cell_angle_gamma                 90.100116
_cell_volume                      6823.59971623

loop_
_atom_site_label
_atom_site_type_symbol
_atom_type_description
_atom_site_fract_x
_atom_site_fract_y
_atom_site_fract_z
_atom_type_partial_charge
C1    C     C_R   0.372719 0.885953 0.484616 0.524378
C2    C     C_R   0.251983 0.765131 0.545337 0.000951
C3    C     C_3   0.733082 0.413367 0.322319 0.026108
C4    C     C_3   0.702668 0.405713 0.229797 -0.261347
C5    C     C_3   0.648638 0.451833 0.211651 -0.497074
C6    C     C_3   0.382887 0.394386 0.521458 0.024961
C7    C     C_3   0.365163 0.405404 0.423214 -0.277609
C8    C     C_3   0.394527 0.464039 0.392022 -0.481341
C9    C     C_3   0.175479 0.762653 0.756157 0.019088
C10   C     C_3   0.113187 0.789047 0.709806 -0.280445
C11   C     C_3   0.051233 0.781419 0.766486 -0.468900
C12   C     C_3   0.851674 0.857436 0.696424 0.034985
C13   C     C_R   0.782063 0.759275 0.528640 -0.005738
C14   C     C_3   0.870170 0.903764 0.626274 -0.278301
C15   C     C_3   0.918928 0.949531 0.665159 -0.498740
C16   C     C_3   0.785065 0.184174 0.757343 0.028857
C17   C     C_3   0.716257 0.209156 0.783526 -0.275779
C18   C     C_3   0.697577 0.190127 0.876775 -0.481559
C19   C     C_3   0.690793 0.846602 0.743392 -0.011416
C20   C     C_3   0.614709 0.841065 0.746726 -0.248548
C21   C     C_3   0.591904 0.816115 0.835051 -0.492223
C22   C     C_3   0.801131 0.076186 0.585066 -0.004895
C23   C     C_3   0.789784 0.051777 0.490639 -0.257116
C24   C     C_R   0.765801 0.253764 0.544994 0.006680
C25   C     C_3   0.853962 0.028169 0.450032 -0.499757
C26   C     C_3   0.258709 0.400195 0.687264 -0.012226
C27   C     C_3   0.190497 0.398218 0.732298 -0.261285
C28   C     C_3   0.198222 0.392902 0.832514 -0.494819
C29   C     C_3   0.243813 0.622578 0.719175 -0.012587
C30   C     C_3   0.276013 0.573745 0.662810 -0.264057
C31   C     C_3   0.341788 0.553274 0.704367 -0.489012
C32   C     C_3   0.400425 0.091188 0.160211 0.053380
C33   C     C_3   0.333312 0.108315 0.200211 -0.245294
C34   C     C_3   0.327067 0.175178 0.212645 -0.501344
C35   C     C_R   0.337185 0.219215 0.495405 0.231015
C36   C     C_3   0.899949 0.600168 0.140644 0.051762
C37   C     C_3   0.930477 0.632526 0.220882 -0.270227
C38   C     C_3   0.917210 0.699044 0.216785 -0.498158
C39   C     C_3   0.311800 0.970440 0.996300 0.050844
C40   C     C_3   0.248179 0.976172 0.050399 -0.257367
C41   C     C_3   0.208164 0.918527 0.049085 -0.494892
C42   C     C_3   0.812566 0.467921 0.999103 0.049882
C43   C     C_3   0.737742 0.477477 0.984093 -0.257267
C44   C     C_3   0.700613 0.418750 0.971768 -0.500074
C45   C     C_R   0.291628 0.817159 0.551763 0.245038
C46   C     C_R   0.834029 0.717010 0.524886 0.235146
C47   C     C_R   0.808396 0.303240 0.554546 0.236467
C48   C     C_R   0.254049 0.142136 0.462093 0.203887
C49   C     C_R   0.303297 0.818324 0.391087 0.202046
C50   C     C_R   0.766877 0.656923 0.421841 0.221563
C51   C     C_R   0.372401 0.113960 0.485701 0.537015
C52   C     C_R   0.775602 0.337364 0.406990 0.216945
C53   C     C_R   0.203795 0.185145 0.463955 -0.143212
C54   C     C_R   0.260892 0.769548 0.383937 -0.130011
C55   C     C_R   0.723761 0.704891 0.410742 -0.139101
C56   C     C_R   0.726596 0.293408 0.403372 -0.131155
C57   C     C_R   0.518271 0.999398 0.163079 0.010670
C58   C     C_R   0.018806 0.501860 0.163135 0.021870
C59   C     C_R   0.477323 0.001061 0.833604 0.006307
C60   C     C_R   0.977445 0.501309 0.833714 0.004074
C61   C     C_R   0.408498 0.016789 0.962062 0.251985
C62   C     C_R   0.871859 0.386217 0.485914 0.526500
C63   C     C_R   0.908481 0.516431 0.962459 0.249954
C64   C     C_R   0.416478 0.018635 0.870137 0.237002
C65   C     C_R   0.915535 0.515573 0.870119 0.229234
C66   C     C_R   0.531557 0.986140 0.887232 -0.194307
C67   C     C_R   0.032844 0.490427 0.887297 -0.188706
C68   C     C_R   0.626900 0.113852 0.514434 0.543517
C69   C     C_R   0.627786 0.887140 0.516514 0.544921
C70   C     C_R   0.127403 0.613796 0.515644 0.534769
C71   C     C_R   0.127373 0.386412 0.514825 0.538697
C72   C     C_R   0.526505 0.990528 0.978813 -0.049924
C73   C     C_R   0.873210 0.615060 0.484471 0.500315
C74   C     C_R   0.027664 0.494757 0.978844 -0.048054
C75   C     C_R   0.464894 0.006791 0.017517 0.002083
C76   C     C_R   0.965665 0.509791 0.017637 -0.001059
C77   C     C_R   0.461551 0.012856 0.110242 0.249345
C78   C     C_R   0.962773 0.517245 0.110383 0.273451
C79   C     C_R   0.578424 0.983212 0.123214 -0.181383
C80   C     C_R   0.079223 0.486447 0.123227 -0.180996
C81   C     C_R   0.582544 0.978912 0.031838 -0.151638
C82   C     C_R   0.083926 0.483948 0.031809 -0.149389
C83   C     C_R   0.514111 0.000236 0.259865 0.499010
C84   C     C_R   0.729612 0.754692 0.465516 -0.102364
C85   C     C_R   0.014184 0.500828 0.259879 0.508793
C86   C     C_R   0.485268 0.000219 0.738917 0.543272
C87   C     C_R   0.985280 0.500241 0.738946 0.533821
C88   C     C_R   0.320392 0.159300 0.480109 0.031108
C89   C     C_R   0.321618 0.839937 0.475503 0.023819
C90   C     C_R   0.824178 0.663587 0.476309 0.016581
C91   C     C_R   0.817988 0.341651 0.482007 0.010148
C92   C     C_R   0.679558 0.842830 0.524283 0.014370
C93   C     C_R   0.677498 0.159210 0.521090 0.009294
C94   C     C_R   0.179903 0.342257 0.520208 0.004707
C95   C     C_R   0.722348 0.251348 0.470340 -0.099539
C96   C     C_R   0.177337 0.660416 0.524902 0.001064
C97   C     C_R   0.780287 0.804317 0.595125 0.274518
C98   C     C_R   0.766969 0.205856 0.605781 0.285778
C99   C     C_R   0.298819 0.320857 0.533348 0.283645
C100  C     C_R   0.226382 0.736284 0.621139 0.280131
C101  C     C_R   0.723468 0.842125 0.597545 0.238654
C102  C     C_R   0.728669 0.154726 0.584226 0.237739
C103  C     C_R   0.243778 0.358670 0.549960 0.245226
C104  C     C_R   0.196298 0.679706 0.609912 0.251451
C105  C     C_R   0.681865 0.798922 0.459829 -0.192043
C106  C     C_R   0.218918 0.243980 0.485884 -0.101046
C107  C     C_R   0.675384 0.206246 0.462686 -0.200969
C108  C     C_R   0.167141 0.284975 0.490644 -0.194110
C109  C     C_R   0.198946 0.690267 0.450419 -0.208082
C110  C     C_3   0.431060 0.253545 0.425665 0.035871
C111  C     C_3   0.479648 0.207294 0.389370 -0.267318
C112  C     C_3   0.516641 0.230606 0.308903 -0.514239
C113  C     C_3   0.248085 0.886472 0.646461 0.031525
C114  C     C_3   0.267019 0.950081 0.622187 -0.265631
C115  C     C_3   0.211656 0.993222 0.647375 -0.475407
C116  C     C_3   0.933578 0.768137 0.525610 0.033887
C117  C     C_R   0.238017 0.741143 0.459823 -0.104789
C118  C     C_3   0.991290 0.736992 0.479409 -0.264377
C119  C     C_3   0.035708 0.781011 0.431167 -0.506639
C120  C     C_3   0.801150 0.356463 0.681643 0.035017
C121  C     C_3   0.838566 0.377627 0.764601 -0.228002
C122  C     C_3   0.852737 0.327772 0.829840 -0.408375
C123  C     C_3   0.359161 0.096553 0.812872 0.020997
C124  C     C_3   0.308904 0.114372 0.741074 -0.256522
C125  C     C_3   0.305861 0.181522 0.729998 -0.471317
C126  C     C_3   0.844836 0.583731 0.809795 0.021809
C127  C     C_3   0.795425 0.592841 0.733342 -0.267388
C128  C     C_R   0.285787 0.261827 0.504164 -0.004185
C129  C     C_3   0.773865 0.657497 0.726505 -0.470100
C130  C     C_3   0.197360 0.069738 0.381256 0.000765
C131  C     C_3   0.207777 0.005137 0.353621 -0.231387
C132  C     C_3   0.161085 0.987416 0.277500 -0.495322
C133  C     C_3   0.380086 0.824269 0.281146 0.015221
C134  C     C_3   0.397874 0.858006 0.197112 -0.244574
C135  C     C_3   0.465871 0.839592 0.161726 -0.489476
C136  C     C_3   0.698644 0.575086 0.412094 0.010521
C137  C     C_3   0.718565 0.539177 0.494203 -0.263525
C138  C     C_3   0.659137 0.505270 0.531024 -0.501401
H1    H     H_    0.629607 0.966146 0.002541 0.116124
H2    H     H_    0.638868 0.206325 0.409234 0.114226
H3    H     H_    0.817484 0.876669 0.745713 0.154563
H4    H     H_    0.893374 0.882615 0.568059 0.140210
H5    H     H_    0.824379 0.926951 0.603286 0.177807
H6    H     H_    0.896420 0.972177 0.723079 0.144469
H7    H     H_    0.931347 0.983332 0.614998 0.140397
H8    H     H_    0.966137 0.927667 0.686230 0.141772
H9    H     H_    0.821179 0.195955 0.810927 0.133837
H10   H     H_    0.784696 0.135106 0.756337 0.174244
H11   H     H_    0.716975 0.258164 0.781069 0.150679
H12   H     H_    0.676754 0.192989 0.737209 0.172331
H13   H     H_    0.116662 0.272450 0.471288 0.128231
H14   H     H_    0.695718 0.141002 0.880894 0.157072
H15   H     H_    0.647602 0.208051 0.893392 0.148194
H16   H     H_    0.734582 0.207485 0.925810 0.138971
H17   H     H_    0.707843 0.871429 0.803262 0.135607
H18   H     H_    0.713917 0.801743 0.747650 0.144304
H19   H     H_    0.592071 0.885492 0.737616 0.213312
H20   H     H_    0.597097 0.811093 0.692710 0.178311
H21   H     H_    0.613939 0.771567 0.846027 0.140080
H22   H     H_    0.536611 0.812044 0.834677 0.165140
H23   H     H_    0.607084 0.846195 0.890238 0.143842
H24   H     H_    0.184239 0.674355 0.385131 0.124816
H25   H     H_    0.817279 0.039067 0.627971 0.153481
H26   H     H_    0.842889 0.108926 0.586386 0.153112
H27   H     H_    0.752139 0.015551 0.492051 0.206891
H28   H     H_    0.770908 0.087474 0.446860 0.173943
H29   H     H_    0.894262 0.062013 0.454188 0.147936
H30   H     H_    0.844727 0.017040 0.379253 0.149668
H31   H     H_    0.870325 0.987287 0.483888 0.143156
H32   H     H_    0.288261 0.436958 0.716981 0.145548
H33   H     H_    0.287374 0.358918 0.701828 0.147478
H34   H     H_    0.162069 0.439190 0.716573 0.173693
H35   H     H_    0.622227 0.972883 0.162888 0.140936
H36   H     H_    0.161629 0.359411 0.707211 0.174951
H37   H     H_    0.227885 0.352925 0.849610 0.145913
H38   H     H_    0.148218 0.388722 0.862895 0.151230
H39   H     H_    0.223442 0.432904 0.860276 0.137337
H40   H     H_    0.231875 0.603688 0.784860 0.141395
H41   H     H_    0.280085 0.659155 0.732139 0.165759
H42   H     H_    0.241108 0.535563 0.656577 0.197418
H43   H     H_    0.286428 0.590538 0.595402 0.163228
H44   H     H_    0.377480 0.590923 0.709632 0.149535
H45   H     H_    0.364358 0.518330 0.662307 0.142229
H46   H     H_    0.122900 0.475637 0.162857 0.141435
H47   H     H_    0.333148 0.534989 0.771363 0.135114
H48   H     H_    0.405526 0.113772 0.095217 0.136868
H49   H     H_    0.441304 0.106449 0.205599 0.114082
H50   H     H_    0.292088 0.092619 0.156091 0.173009
H51   H     H_    0.328085 0.086426 0.265365 0.194742
H52   H     H_    0.367363 0.191900 0.257005 0.140665
H53   H     H_    0.278213 0.185709 0.243033 0.142033
H54   H     H_    0.330118 0.197894 0.147817 0.144791
H55   H     H_    0.845902 0.611111 0.136683 0.178922
H56   H     H_    0.922552 0.617121 0.078488 0.110018
H57   H     H_    0.459792 0.294807 0.439291 0.168042
H58   H     H_    0.908495 0.614859 0.282411 0.214588
H59   H     H_    0.985298 0.625039 0.223087 0.136459
H60   H     H_    0.938484 0.717930 0.155493 0.142653
H61   H     H_    0.940975 0.721389 0.274719 0.142443
H62   H     H_    0.862637 0.707819 0.218154 0.156594
H63   H     H_    0.343128 0.934806 0.026486 0.126510
H64   H     H_    0.298091 0.957524 0.927163 0.158090
H65   H     H_    0.261813 0.987446 0.119972 0.189701
H66   H     H_    0.216734 0.012411 0.023052 0.161717
H67   H     H_    0.194227 0.906066 0.980057 0.139390
H68   H     H_    0.392869 0.264446 0.373837 0.091040
H69   H     H_    0.161711 0.924441 0.087564 0.144543
H70   H     H_    0.237878 0.882216 0.079334 0.154798
H71   H     H_    0.820951 0.447361 0.064933 0.159359
H72   H     H_    0.830549 0.436174 0.947831 0.126249
H73   H     H_    0.716870 0.501875 0.041578 0.164140
H74   H     H_    0.729877 0.504755 0.923845 0.182511
H75   H     H_    0.717368 0.395942 0.910600 0.143703
H76   H     H_    0.646152 0.427266 0.965716 0.142254
H77   H     H_    0.709615 0.389249 0.029118 0.142926
H78   H     H_    0.516526 0.195494 0.441718 0.190919
H79   H     H_    0.452045 0.166655 0.369317 0.144863
H80   H     H_    0.480649 0.242876 0.255662 0.141396
H81   H     H_    0.131303 0.472157 0.002486 0.117160
H82   H     H_    0.550313 0.195621 0.283100 0.141575
H83   H     H_    0.547163 0.270045 0.327423 0.140889
H84   H     H_    0.236616 0.885436 0.718207 0.171570
H85   H     H_    0.201166 0.874083 0.610168 0.101637
H86   H     H_    0.314228 0.963039 0.656659 0.201053
H87   H     H_    0.274265 0.953194 0.549778 0.171753
H88   H     H_    0.163627 0.979857 0.615474 0.139894
H89   H     H_    0.224460 0.038340 0.624241 0.185668
H90   H     H_    0.205561 0.994375 0.720342 0.146922
H91   H     H_    0.955657 0.798588 0.575960 0.154977
H92   H     H_    0.578404 0.973202 0.857281 0.118007
H93   H     H_    0.905528 0.795921 0.476844 0.101166
H94   H     H_    0.021890 0.714124 0.530081 0.205947
H95   H     H_    0.971564 0.703784 0.431252 0.152337
H96   H     H_    0.006279 0.805246 0.380271 0.143720
H97   H     H_    0.076673 0.756807 0.397811 0.154707
H98   H     H_    0.058071 0.813280 0.478860 0.140826
H99   H     H_    0.752522 0.336784 0.700740 0.112671
H100  H     H_    0.790647 0.396579 0.641015 0.081469
H101  H     H_    0.886447 0.397906 0.745069 0.216886
H102  H     H_    0.808210 0.412222 0.797637 0.136239
H103  H     H_    0.080364 0.479934 0.857243 0.116868
H104  H     H_    0.805318 0.309528 0.855494 0.129216
H105  H     H_    0.882484 0.345379 0.886637 0.113724
H106  H     H_    0.881992 0.292011 0.797762 0.216953
H107  H     H_    0.408414 0.116945 0.797141 0.145573
H108  H     H_    0.341880 0.114194 0.877681 0.156113
H109  H     H_    0.323452 0.093869 0.677088 0.187410
H110  H     H_    0.258572 0.097810 0.758996 0.161323
H111  H     H_    0.267640 0.192703 0.678989 0.155141
H112  H     H_    0.354969 0.198836 0.708270 0.188275
H113  H     H_    0.291969 0.203243 0.793326 0.133968
H114  H     H_    0.682622 0.701164 0.363715 0.121281
H115  H     H_    0.890180 0.611152 0.797099 0.147200
H116  H     H_    0.821371 0.598907 0.872364 0.164256
H117  H     H_    0.819368 0.579142 0.670466 0.173755
H118  H     H_    0.750542 0.564655 0.743233 0.158870
H119  H     H_    0.739752 0.662941 0.668672 0.141519
H120  H     H_    0.818137 0.686456 0.717704 0.221792
H121  H     H_    0.747160 0.671371 0.787230 0.131534
H122  H     H_    0.208964 0.098558 0.323633 0.117366
H123  H     H_    0.144246 0.075830 0.400011 0.129613
H124  H     H_    0.260391 0.998784 0.332786 0.206588
H125  H     H_    0.694384 0.290079 0.345415 0.122736
H126  H     H_    0.198316 0.975731 0.410931 0.171628
H127  H     H_    0.108199 0.990677 0.298433 0.140613
H128  H     H_    0.171384 0.940899 0.257544 0.166751
H129  H     H_    0.168962 0.016670 0.219701 0.134532
H130  H     H_    0.373182 0.776502 0.264007 0.117053
H131  H     H_    0.421885 0.829043 0.330031 0.125465
H132  H     H_    0.358993 0.849481 0.145481 0.149935
H133  H     H_    0.398677 0.906336 0.211502 0.225620
H134  H     H_    0.505770 0.849824 0.211221 0.144928
H135  H     H_    0.476428 0.864487 0.100239 0.155533
H136  H     H_    0.152196 0.172149 0.453388 0.114828
H137  H     H_    0.466253 0.791398 0.146284 0.141200
H138  H     H_    0.678882 0.544046 0.360914 0.134492
H139  H     H_    0.656697 0.605668 0.427898 0.113321
H140  H     H_    0.758525 0.507185 0.476916 0.184532
H141  H     H_    0.738063 0.569509 0.546535 0.143991
H142  H     H_    0.619816 0.536681 0.552698 0.147772
H143  H     H_    0.675686 0.478764 0.588924 0.137389
H144  H     H_    0.637841 0.474765 0.480102 0.132859
H145  H     H_    0.754456 0.458699 0.327996 0.188430
H146  H     H_    0.692694 0.409931 0.372488 0.094559
H147  H     H_    0.246782 0.753333 0.318646 0.128290
H148  H     H_    0.742680 0.410305 0.180015 0.178563
H149  H     H_    0.680529 0.360702 0.223093 0.150003
H150  H     H_    0.609020 0.449368 0.262407 0.135919
H151  H     H_    0.625554 0.443373 0.145635 0.146407
H152  H     H_    0.670726 0.497023 0.211979 0.155279
H153  H     H_    0.438101 0.397307 0.528426 0.133589
H154  H     H_    0.363803 0.430446 0.564140 0.173485
H155  H     H_    0.385041 0.369171 0.381373 0.136057
H156  H     H_    0.310190 0.407235 0.413286 0.175888
H157  H     H_    0.374705 0.501390 0.432116 0.156163
H158  H     H_    0.644062 0.797637 0.407755 0.111399
H159  H     H_    0.380603 0.471235 0.321570 0.146285
H160  H     H_    0.449892 0.463336 0.397917 0.133843
H161  H     H_    0.186144 0.790582 0.815471 0.128950
H162  H     H_    0.164898 0.718237 0.783303 0.180896
H163  H     H_    0.120770 0.837064 0.698621 0.128090
H164  H     H_    0.103196 0.767267 0.644945 0.162346
H165  H     H_    0.040715 0.733603 0.776793 0.173900
H166  H     H_    0.007581 0.801556 0.732349 0.147719
H167  H     H_    0.058411 0.803705 0.831669 0.130909
H168  H     H_    0.897460 0.847035 0.735367 0.137507
O1    O     O_3   0.500000 0.000000 0.500000 -0.449442
O2    O     O_R   0.135640 0.430410 0.463140 -0.522501
O3    O     O_R   0.456890 0.000000 0.295720 -0.512748
O4    O     O_R   0.956890 0.500000 0.295720 -0.488263
O5    O     O_R   0.488070 0.049450 0.698020 -0.540668
O6    O     O_R   0.488070 0.950550 0.698020 -0.545518
O7    O     O_R   0.988070 0.549450 0.698020 -0.529496
O8    O     O_R   0.988070 0.450550 0.698020 -0.558464
O9    O     O_R   0.370630 0.069610 0.433010 -0.535307
O10   O     O_R   0.370630 0.930390 0.433010 -0.527499
O11   O     O_R   0.870630 0.569610 0.433010 -0.523823
O12   O     O_3   0.000000 0.500000 0.500000 -0.457357
O13   O     O_R   0.870630 0.430390 0.433010 -0.519918
O14   O     O_R   0.574320 0.880940 0.560740 -0.553771
O15   O     O_R   0.574320 0.119060 0.560740 -0.539509
O16   O     O_R   0.074320 0.380940 0.560740 -0.550371
O17   O     O_R   0.074320 0.619060 0.560740 -0.528612
O18   O     O_R   0.566990 0.000000 0.308240 -0.560960
O19   O     O_R   0.066990 0.500000 0.308240 -0.566046
O20   O     O_3   0.403847 0.234585 0.507081 -0.505839
O21   O     O_3   0.301711 0.846571 0.631702 -0.506233
O22   O     O_3   0.893483 0.726480 0.570942 -0.506793
O23   O     O_R   0.419410 0.880950 0.543120 -0.515547
O24   O     O_3   0.840149 0.314740 0.634687 -0.486593
O25   O     O_3   0.363453 0.034019 0.815429 -0.575685
O26   O     O_3   0.860564 0.522856 0.814921 -0.591935
O27   O     O_3   0.239032 0.082094 0.455158 -0.569467
O28   O     O_3   0.320770 0.848489 0.315383 -0.557858
O29   O     O_3   0.754716 0.604513 0.375998 -0.545987
O30   O     O_3   0.786101 0.372507 0.333625 -0.540803
O31   O     O_3   0.364262 0.337659 0.553823 -0.542252
O32   O     O_3   0.234488 0.762700 0.704277 -0.548686
O33   O     O_3   0.828017 0.802130 0.663099 -0.562809
O34   O     O_R   0.419410 0.119050 0.543120 -0.519274
O35   O     O_3   0.811194 0.207840 0.677759 -0.537004
O36   O     O_3   0.710871 0.879652 0.668455 -0.589036
O37   O     O_3   0.741540 0.099803 0.621216 -0.586065
O38   O     O_3   0.251329 0.411712 0.595520 -0.590920
O39   O     O_3   0.183154 0.642812 0.680739 -0.576977
O40   O     O_3   0.402076 0.028934 0.149621 -0.529869
O41   O     O_3   0.905121 0.537810 0.150378 -0.514274
O42   O     O_3   0.345632 0.025479 0.996726 -0.544486
O43   O     O_3   0.845421 0.523514 0.997460 -0.555259
O44   O     O_R   0.919410 0.380950 0.543120 -0.502918
O45   O     O_R   0.919410 0.619050 0.543120 -0.514504
O46   O     O_R   0.635640 0.069590 0.463140 -0.550364
O47   O     O_R   0.635640 0.930410 0.463140 -0.550004
O48   O     O_R   0.135640 0.569590 0.463140 -0.546625
Zn1   Zn    Zn3+2 0.583120 1.000000 0.434770 0.913534
Zn2   Zn    Zn3+2 0.083120 0.500000 0.434770 0.927462
Zn3   Zn    Zn3+2 0.425830 0.000000 0.416880 0.929597
Zn4   Zn    Zn3+2 0.925830 0.500000 0.416880 0.951590
Zn5   Zn    Zn3+2 0.495530 0.070660 0.574170 0.946279
Zn6   Zn    Zn3+2 0.495530 0.929340 0.574170 0.940469
Zn7   Zn    Zn3+2 0.995530 0.570660 0.574170 0.940872
Zn8   Zn    Zn3+2 0.995530 0.429340 0.574170 0.941561

loop_
_geom_bond_atom_site_label_1
_geom_bond_atom_site_label_2
_ccdc_geom_bond_type
C48   O27   S    
C99   C103  A    
C63   C65   A    
C81   H1    S    
C126  C127  S    
C19   H17   S    
C79   H35   S    
O7    Zn7   S    
C19   C20   S    
C114  C115  S    
C7    H155  S    
O12   Zn7   S    
C49   O28   S    
C44   H76   S    
C59   C66   A    
C104  O39   S    
C63   C76   A    
O1    Zn5   S    
O5    Zn5   S    
C100  C104  A    
C33   H51   S    
C107  H2    S    
C110  C111  S    
C53   C106  A    
C50   C90   A    
O23   Zn6   S    
C66   C72   A    
O3    Zn3   S    
C12   H168  S    
C57   C83   S    
C110  O20   S    
C69   C92   S    
C43   H73   S    
C120  H99   S    
C131  H124  S    
C1    O23   A    
C25   H30   S    
C20   H20   S    
C21   H21   S    
C48   C53   A    
O16   Zn8   S    
C18   H14   S    
O47   Zn1   S    
C2    C117  A    
C6    H154  S    
O9    Zn3   S    
C26   O38   S    
C123  H107  S    
C121  H101  S    
C51   O34   A    
C41   H69   S    
C122  H105  S    
C43   C44   S    
C115  H89   S    
C37   C38   S    
C108  H13   S    
C125  H113  S    
C19   O36   S    
C84   C105  A    
C67   C74   A    
C99   C128  A    
C42   H71   S    
C119  H97   S    
C8    H160  S    
C60   C65   A    
C96   C104  A    
C24   C98   A    
C102  O37   S    
C79   C81   A    
C138  H142  S    
C73   O11   A    
C35   O20   S    
C4    C5    S    
C71   O2    A    
C10   H164  S    
C130  H122  S    
C28   H37   S    
C6    C7    S    
C8    H157  S    
O1    Zn3   S    
C96   C109  A    
C101  O36   S    
C5    H150  S    
C34   H54   S    
C130  C131  S    
C114  H87   S    
C30   C31   S    
C138  H143  S    
C125  H111  S    
C116  C118  S    
C135  H137  S    
C13   C97   A    
C116  O22   S    
C36   H56   S    
C130  H123  S    
C20   C21   S    
C26   H32   S    
C29   H41   S    
C39   H64   S    
C110  H57   S    
C30   H42   S    
C22   C23   S    
C52   C91   A    
C97   O33   S    
C135  H135  S    
C12   O33   S    
C70   O17   A    
C56   C95   A    
C14   H4    S    
C62   O13   A    
C111  C112  S    
C105  H158  S    
C123  C124  S    
C54   H147  S    
C13   C84   A    
C74   C76   A    
C127  H117  S    
C100  O32   S    
C36   C37   S    
C76   C78   A    
C73   C90   S    
C129  H119  S    
C62   O44   A    
C51   O9    A    
O46   Zn1   S    
C39   O42   S    
C12   H3    S    
C113  H85   S    
C9    H162  S    
O45   Zn7   S    
C132  H127  S    
C23   H27   S    
C11   H165  S    
C82   H81   S    
C40   H66   S    
C60   C67   A    
C38   H60   S    
C78   O41   S    
C9    C10   S    
C63   O43   S    
C18   H16   S    
C87   O7    A    
C50   O29   S    
C72   C75   A    
C27   H36   S    
C2    C45   A    
O1    Zn1   S    
C86   O5    A    
C4    H149  S    
C34   H52   S    
C56   H125  S    
C80   C82   A    
C39   C40   S    
C70   O48   A    
O8    Zn8   S    
C124  H110  S    
C70   C96   S    
C127  C129  S    
C29   C30   S    
C22   H26   S    
C92   C105  A    
C62   C91   S    
C31   H47   S    
C17   C18   S    
C112  H82   S    
C126  H116  S    
C75   C77   A    
C53   H136  S    
C3    C4    S    
C83   O18   A    
C120  C121  S    
C137  H141  S    
C112  H80   S    
C32   H49   S    
C126  O26   S    
C103  O38   S    
O17   Zn7   S    
C136  C137  S    
C129  H121  S    
C51   C88   S    
C15   H8    S    
C134  C135  S    
O12   Zn8   S    
C134  H132  S    
C120  O24   S    
O11   Zn4   S    
O18   Zn1   S    
C20   H19   S    
C132  H129  S    
C118  H95   S    
C11   H166  S    
C106  C108  A    
C33   H50   S    
C80   H46   S    
C10   C11   S    
C54   C117  A    
O34   Zn5   S    
C14   C15   S    
C111  H79   S    
C114  H86   S    
C27   H34   S    
O10   Zn3   S    
C120  H100  S    
C11   H167  S    
C112  H83   S    
C17   H12   S    
C5    H152  S    
C109  C117  A    
C130  O27   S    
C26   C27   S    
C16   H9    S    
C36   O41   S    
C109  H24   S    
C16   O35   S    
C106  C128  A    
C133  O28   S    
C64   O25   S    
O44   Zn8   S    
C16   C17   S    
C48   C88   A    
C45   C89   A    
C28   H39   S    
C72   C81   A    
C42   H72   S    
C58   C80   A    
C19   H18   S    
C74   C82   A    
O13   Zn4   S    
C7    H156  S    
C44   H75   S    
C57   C77   A    
C7    C8    S    
C111  H78   S    
C24   C95   A    
C28   H38   S    
C122  H106  S    
O1    Zn6   S    
C61   C75   A    
C61   C64   A    
C68   O15   A    
C45   O21   S    
C42   O43   S    
C123  O25   S    
C138  H144  S    
C29   O39   S    
C43   H74   S    
C121  C122  S    
C95   C107  A    
C92   C101  A    
C94   C103  A    
C29   H40   S    
C39   H63   S    
C31   H44   S    
C133  C134  S    
C21   H22   S    
C42   C43   S    
O15   Zn5   S    
C131  C132  S    
C6    H153  S    
C113  C114  S    
O14   Zn6   S    
C14   H5    S    
C34   H53   S    
C47   C91   A    
C32   O40   S    
C50   C55   A    
C93   C102  A    
C123  H108  S    
C46   C90   A    
C121  H102  S    
C46   O22   S    
C32   H48   S    
C32   C33   S    
C41   H70   S    
C115  H90   S    
C98   C102  A    
C135  H134  S    
C35   C128  A    
C4    H148  S    
C113  H84   S    
C9    H161  S    
C98   O35   S    
C58   C78   A    
C132  H128  S    
O19   Zn2   S    
C119  H98   S    
C8    H159  S    
C83   O3    A    
C38   H61   S    
C55   C84   A    
O12   Zn4   S    
C85   O4    A    
C116  H91   S    
C136  O29   S    
C44   H77   S    
C57   C79   A    
C10   H163  S    
C67   H103  S    
C122  H104  S    
C71   C94   S    
C22   O37   S    
C25   H29   S    
C86   O6    A    
C94   C108  A    
C59   C64   A    
C69   O14   A    
C125  H112  S    
C13   C46   A    
C73   O45   A    
C49   C54   A    
C3    H146  S    
C118  C119  S    
C36   H55   S    
C47   O24   S    
C118  H94   S    
C37   H59   S    
C3    H145  S    
C2    C100  A    
C136  H138  S    
C85   O19   A    
C60   C87   S    
C137  H140  S    
C21   H23   S    
C127  H118  S    
C37   H58   S    
O6    Zn6   S    
C115  H88   S    
C129  H120  S    
C99   O31   S    
C15   H7    S    
C134  H133  S    
O2    Zn2   S    
C69   O47   A    
C23   H28   S    
C35   C88   A    
C119  H96   S    
C133  H131  S    
C40   H65   S    
C33   C34   S    
C110  H68   S    
C65   O26   S    
C68   O46   A    
C18   H15   S    
O12   Zn2   S    
C40   C41   S    
C12   C14   S    
C87   O8    A    
O48   Zn2   S    
C116  H93   S    
C1    O10   A    
C58   C85   S    
C133  H130  S    
C131  H126  S    
C25   H31   S    
C71   O16   A    
C1    C89   S    
C31   H45   S    
C55   H114  S    
C24   C47   A    
O4    Zn4   S    
C17   H11   S    
C49   C89   A    
C5    H151  S    
C26   H33   S    
C137  C138  S    
C66   H92   S    
C68   C93   S    
C61   O42   S    
C9    O32   S    
C16   H10   S    
C124  H109  S    
C136  H139  S    
C113  O21   S    
C59   C86   S    
C6    O31   S    
C93   C107  A    
C22   H25   S    
C3    O30   S    
C30   H43   S    
C126  H115  S    
C38   H62   S    
C23   C25   S    
C41   H67   S    
C77   O40   S    
C15   H6    S    
C27   C28   S    
C52   O30   S    
C97   C101  A    
C52   C56   A    
C124  C125  S    
