data_mof_unit_24741.cif
_audit_creation_date              2012-12-10T19:00:48-0500
_audit_creation_method            fapswitch 2.2
_symmetry_space_group_name_H-M    P1
_symmetry_Int_Tables_number       1
_space_group_crystal_system       triclinic
_cell_length_a                    15.012524
_cell_length_b                    10.932657
_cell_length_c                    9.667416
_cell_angle_alpha                 91.879122
_cell_angle_beta                  89.247336
_cell_angle_gamma                 93.473385
_cell_volume                      1582.81660061

loop_
_atom_site_label
_atom_site_type_symbol
_atom_type_description
_atom_site_fract_x
_atom_site_fract_y
_atom_site_fract_z
_atom_type_partial_charge
C1    C     C_R   0.497590 0.262353 0.498317 0.820863
C2    C     C_R   0.912460 0.611111 0.488605 0.095083
C3    C     C_R   0.942615 0.273439 0.465994 0.162454
C4    C     C_R   0.034372 0.272295 0.438668 0.182366
C5    C     C_R   0.089436 0.381323 0.462169 0.063043
C6    C     C_R   0.047818 0.495275 0.474220 -0.102222
C7    C     C_R   0.100133 0.607473 0.484362 0.094522
C8    C     C_R   0.059276 0.719477 0.467945 0.135827
C9    C     C_R   0.965875 0.722152 0.480330 0.156272
C10   C     C_R   0.183536 0.380859 0.480036 0.107640
C11   C     C_R   0.232845 0.493533 0.500609 -0.107766
C12   C     C_R   0.329505 0.497959 0.500641 0.802892
C13   C     C_R   0.191706 0.604711 0.511042 0.059318
C14   C     C_R   0.494316 0.066661 0.619733 -0.062006
C15   C     C_R   0.486442 0.128147 0.496793 -0.137468
C16   C     C_R   0.457864 0.057425 0.378061 0.143723
C17   C     C_R   0.449686 0.927010 0.381731 0.118233
C18   C     C_R   0.478052 0.868197 0.502279 -0.156310
C19   C     C_R   0.489461 0.941041 0.622854 -0.009720
C20   C     C_3   0.546855 0.940271 0.748961 0.328476
C21   C     C_3   0.552562 0.083139 0.745937 0.321592
C22   C     C_R   0.575033 0.530998 0.072661 0.171574
C23   C     C_R   0.494179 0.736700 0.501408 0.822238
C24   C     C_R   0.431810 0.440713 0.074174 0.259703
C25   C     C_R   0.428732 0.447680 0.925853 0.203475
C26   C     C_R   0.577570 0.522767 0.927429 0.144333
C27   C     C_3   0.646353 0.629212 0.927995 -0.085907
C28   C     C_3   0.636234 0.641597 0.085195 -0.451061
C29   C     C_R   0.670586 0.499493 0.498476 0.817997
C30   C     C_R   0.818610 0.609807 0.505651 0.077277
C31   C     C_R   0.767374 0.498495 0.492046 -0.150995
C32   C     C_R   0.807378 0.389732 0.453527 0.096557
C33   C     C_R   0.900669 0.385589 0.466477 0.075057
C34   C     C_R   0.953670 0.497402 0.475114 -0.105240
Cu1   Cu    Cu3+1 0.500000 0.499980 0.640670 0.915034
Cu2   Cu    Cu3+1 0.500000 0.500020 0.359330 0.934793
H1    H     H_    0.626344 0.708504 0.871763 0.210866
H2    H     H_    0.697304 0.625073 0.143989 0.213378
H3    H     H_    0.601451 0.724169 0.119817 0.174107
N1    N     N_R   0.500570 0.500930 0.147930 -0.202551
N2    N     N_R   0.500570 0.500890 0.852020 -0.219335
O1    O     O_R   0.500000 0.319640 0.618810 -0.601503
O2    O     O_R   0.500010 0.319680 0.381230 -0.556840
O3    O     O_R   0.370250 0.499950 0.618800 -0.594376
O4    O     O_R   0.370260 0.499990 0.381220 -0.587781
O5    O     O_R   0.499990 0.680320 0.618770 -0.563298
O6    O     O_R   0.500000 0.680360 0.381190 -0.578705
O7    O     O_R   0.629740 0.500010 0.618780 -0.591779
O8    O     O_R   0.629750 0.500050 0.381200 -0.576461
N3    N     N_3   0.774409 0.721761 0.528670 -0.553299
H4    H     H_    0.737224 0.716079 0.620259 0.233790
H5    H     H_    0.730994 0.732454 0.446788 0.212872
C35   C     C_3   0.412863 0.853451 0.256781 -0.826417
H6    H     H_    0.369466 0.773696 0.289552 0.239068
H7    H     H_    0.369775 0.905757 0.191526 0.210234
H8    H     H_    0.468471 0.821925 0.190939 0.240756
C36   C     C_3   0.496498 0.883526 0.873442 -0.812219
H9    H     H_    0.429360 0.919685 0.887830 0.214040
H10   H     H_    0.486281 0.782815 0.858260 0.245250
H11   H     H_    0.535624 0.903675 0.969001 0.220155
N4    N     N_3   0.631057 0.882514 0.719649 -0.606008
H12   H     H_    0.677742 0.912175 0.794667 0.230288
H13   H     H_    0.656840 0.905549 0.622317 0.214995
N5    N     N_3   0.507345 0.141494 0.864798 -0.580801
H14   H     H_    0.522341 0.236026 0.866157 0.250725
H15   H     H_    0.437978 0.129568 0.855298 0.202940
C37   C     C_3   0.646225 0.144708 0.718620 -0.883621
H16   H     H_    0.676437 0.107666 0.622197 0.209937
H17   H     H_    0.643104 0.245019 0.708232 0.253966
H18   H     H_    0.690546 0.130090 0.806801 0.235075
C38   C     C_3   0.361954 0.358158 0.144539 -0.761865
H19   H     H_    0.378653 0.332306 0.247852 0.291832
H20   H     H_    0.296383 0.400161 0.147014 0.214756
H21   H     H_    0.356502 0.267536 0.089658 0.185043
C39   C     C_3   0.346212 0.393178 0.852395 -0.758648
H22   H     H_    0.303443 0.468253 0.826842 0.241237
H23   H     H_    0.365428 0.333697 0.763882 0.253276
H24   H     H_    0.299924 0.332262 0.911400 0.180446
N6    N     N_3   0.736201 0.592733 0.890300 -0.567017
H25   H     H_    0.739445 0.574012 0.784419 0.247008
H26   H     H_    0.749273 0.511249 0.938147 0.227625
C40   C     C_3   0.751698 0.288318 0.377863 -0.833997
H27   H     H_    0.715476 0.327013 0.291780 0.247938
H28   H     H_    0.792309 0.218878 0.326102 0.237243
H29   H     H_    0.702319 0.243990 0.449060 0.219141
C41   C     C_3   0.895627 0.157541 0.520014 -0.869401
H30   H     H_    0.834039 0.177130 0.579021 0.247724
H31   H     H_    0.879432 0.090082 0.434571 0.235018
H32   H     H_    0.939526 0.115225 0.594147 0.233327
C42   C     C_3   0.067259 0.158938 0.365427 -0.883143
H33   H     H_    0.117616 0.184451 0.284860 0.236294
H34   H     H_    0.093039 0.096085 0.440545 0.238927
H35   H     H_    0.012604 0.107704 0.307861 0.229074
C43   C     C_3   0.230483 0.263052 0.499945 -0.861298
H36   H     H_    0.296486 0.278175 0.549059 0.210089
H37   H     H_    0.191482 0.203482 0.572284 0.237707
H38   H     H_    0.242997 0.215286 0.399450 0.232884
N7    N     N_3   0.241077 0.712814 0.563930 -0.590264
H39   H     H_    0.264707 0.695308 0.662169 0.231050
H40   H     H_    0.295755 0.732622 0.498994 0.206585
C44   C     C_3   0.113111 0.834427 0.425322 -0.841473
H41   H     H_    0.129565 0.893987 0.517778 0.245524
H42   H     H_    0.174845 0.812215 0.367971 0.249514
H43   H     H_    0.076475 0.886127 0.350193 0.213106
N8    N     N_3   0.925257 0.837841 0.482197 -0.553543
H44   H     H_    0.931389 0.875524 0.384407 0.215424
H45   H     H_    0.956948 0.896925 0.555856 0.229606
N9    N     N_3   0.439532 0.117766 0.253357 -0.586229
H46   H     H_    0.371604 0.102930 0.232318 0.202470
H47   H     H_    0.477333 0.081387 0.172032 0.247918

loop_
_geom_bond_atom_site_label_1
_geom_bond_atom_site_label_2
_ccdc_geom_bond_type
C8    C9    A    
C44   H41   S    
C19   C20   S    
C36   H9    S    
C7    C8    A    
C29   O8    A    
C35   H6    S    
N8    H45   S    
C26   C27   S    
C14   C21   S    
C27   N6    S    
C5    C6    A    
C41   H31   S    
C36   H10   S    
C3    C33   A    
C9    N8    S    
C15   C16   A    
C20   N4    S    
N9    H46   S    
Cu2   O6    S    
C18   C19   A    
C13   N7    S    
N4    H13   S    
Cu1   O1    S    
C21   N5    S    
C1    O2    A    
Cu1   Cu2   S    
C16   C17   A    
N3    H5    S    
C1    C15   S    
C8    C44   S    
C2    C34   A    
C30   N3    S    
C44   H42   S    
C23   O5    A    
C22   C28   S    
C21   C37   S    
C3    C41   S    
C43   H36   S    
Cu1   O7    S    
C33   C34   A    
C4    C42   S    
C35   H7    S    
C23   O6    A    
C29   O7    A    
C18   C23   S    
Cu2   N1    S    
C24   C25   A    
C25   N2    A    
C38   H20   S    
C41   H30   S    
C4    C5    A    
C36   H11   S    
C43   H38   S    
N3    H4    S    
C37   H16   S    
C37   H17   S    
N5    H15   S    
C2    C9    A    
C39   H22   S    
C42   H34   S    
C31   C32   A    
C28   H2    S    
C22   N1    A    
C17   C18   A    
Cu2   O4    S    
C43   H37   S    
Cu1   O3    S    
C39   H23   S    
N7    H39   S    
C44   H43   S    
N7    H40   S    
C3    C4    A    
C17   C35   S    
C42   H35   S    
N6    H26   S    
C35   H8    S    
C14   C19   A    
C12   O4    A    
C41   H32   S    
C38   H21   S    
C11   C12   S    
C6    C7    A    
C40   H29   S    
C32   C40   S    
N8    H44   S    
C40   H28   S    
C28   H3    S    
C2    C30   A    
C37   H18   S    
N5    H14   S    
C5    C10   A    
C12   O3    A    
C32   C33   A    
C11   C13   A    
C42   H33   S    
C30   C31   A    
C27   H1    S    
C24   N1    A    
N9    H47   S    
N4    H12   S    
Cu1   N2    S    
C39   H24   S    
C10   C11   A    
C16   N9    S    
N6    H25   S    
C6    C34   A    
C1    O1    A    
C7    C13   A    
C38   H19   S    
C20   C21   S    
C26   N2    A    
C29   C31   S    
C40   H27   S    
C22   C26   A    
C27   C28   S    
C10   C43   S    
C14   C15   A    
Cu2   O2    S    
C25   C39   S    
C20   C36   S    
Cu1   O5    S    
Cu2   O8    S    
C24   C38   S    
