data_mof_unit_14738.cif
_audit_creation_date              2013-03-05T16:04:29-0500
_audit_creation_method            fapswitch 2.2
_symmetry_space_group_name_H-M    P1
_symmetry_Int_Tables_number       1
_space_group_crystal_system       triclinic
_cell_length_a                    10.819614
_cell_length_b                    9.681678
_cell_length_c                    14.98466
_cell_angle_alpha                 89.745713
_cell_angle_beta                  95.27027
_cell_angle_gamma                 89.869206
_cell_volume                      1563.01648395

loop_
_atom_site_label
_atom_site_type_symbol
_atom_site_description
_atom_site_fract_x
_atom_site_fract_y
_atom_site_fract_z
_atom_type_partial_charge
O1    O     O_R   0.319640 0.618740 0.499990 -0.589215
O2    O     O_R   0.680360 0.381260 0.500010 -0.588529
O3    O     O_R   0.680360 0.618740 0.500010 -0.590442
O4    O     O_R   0.319640 0.381260 0.499990 -0.590227
C1    C     C_R   0.262507 0.500093 0.499648 0.762603
C2    C     C_R   0.737504 0.499908 0.500408 0.760529
O5    O     O_R   0.499970 0.618800 0.370260 -0.584618
O6    O     O_R   0.500030 0.381200 0.629740 -0.577860
O7    O     O_R   0.500030 0.618800 0.629740 -0.580029
O8    O     O_R   0.499970 0.381200 0.370260 -0.578453
C3    C     C_R   0.502007 0.500249 0.329316 0.806015
C4    C     C_R   0.500050 0.499580 0.670619 0.803729
Cu1   Cu    Cu3+1 0.500000 0.640660 0.500000 0.922834
Cu2   Cu    Cu3+1 0.500000 0.359340 0.500000 0.928147
C5    C     C_R   0.609901 0.519212 0.818803 -0.291549
C6    C     C_R   0.406232 0.439325 0.181807 -0.282300
C7    C     C_R   0.498732 0.496770 0.767196 -0.054399
C8    C     C_R   0.505880 0.498823 0.232591 -0.062661
C9    C     C_R   0.390108 0.462509 0.806637 0.135888
C10   C     C_R   0.609905 0.546949 0.192099 0.122949
C11   C     C_R   0.398118 0.434968 0.900126 0.064863
C12   C     C_R   0.618904 0.516939 0.100243 0.070496
C13   C     C_R   0.508383 0.473071 0.953321 -0.064222
C14   C     C_R   0.510334 0.473657 0.047241 -0.062482
C15   C     C_R   0.616219 0.512393 0.912443 0.085401
C16   C     C_R   0.403320 0.432807 0.088345 0.082471
C17   C     C_R   0.301147 0.369455 0.942190 0.163026
C18   C     C_R   0.732343 0.525792 0.059785 0.164559
C19   C     C_R   0.298415 0.379802 0.036032 0.175874
C20   C     C_R   0.729536 0.536118 0.965497 0.173194
C21   C     C_R   0.064516 0.374595 0.502237 -0.191982
C22   C     C_R   0.935543 0.625422 0.498123 -0.191994
C23   C     C_R   0.936679 0.374493 0.502453 -0.188008
C24   C     C_R   0.063386 0.625523 0.497937 -0.188348
C25   C     C_R   0.871604 0.499898 0.500381 -0.016282
C26   C     C_R   0.128442 0.500114 0.499898 -0.011082
C27   C     C_R   0.418956 0.074731 0.441243 0.243316
C28   C     C_R   0.581103 0.925268 0.558709 0.240546
C29   C     C_R   0.581020 0.073574 0.558737 0.235679
C30   C     C_R   0.419010 0.926430 0.441244 0.233662
N1    N     N_R   0.500000 0.852070 0.500000 -0.191258
N2    N     N_R   0.500000 0.147930 0.500000 -0.190865
H1    H     H_    0.690779 0.542829 0.784119 0.143006
H2    H     H_    0.329643 0.401999 0.216787 0.147525
C31   C     C_3   0.266905 0.476399 0.749990 -0.857986
H3    H     H_    0.267218 0.570100 0.706954 0.228173
H4    H     H_    0.250489 0.385132 0.705937 0.235804
H5    H     H_    0.188345 0.491853 0.791369 0.242527
C32   C     C_3   0.701553 0.640667 0.245149 -0.847269
H6    H     H_    0.651229 0.724513 0.276842 0.251093
H7    H     H_    0.757130 0.580897 0.298107 0.226193
H8    H     H_    0.763638 0.695496 0.202269 0.238852
C33   C     C_3   0.214952 0.267560 0.891276 -0.866618
H9    H     H_    0.251399 0.233162 0.828287 0.244569
H10   H     H_    0.207983 0.171551 0.931357 0.239407
H11   H     H_    0.120752 0.312570 0.876768 0.229086
C34   C     C_3   0.855228 0.496350 0.113902 -0.879112
H12   H     H_    0.842754 0.450122 0.180283 0.246903
H13   H     H_    0.907943 0.417952 0.078941 0.239773
H14   H     H_    0.911660 0.591735 0.122774 0.230655
C35   C     C_3   0.184363 0.334328 0.080479 -0.897083
H15   H     H_    0.104609 0.306571 0.032355 0.243704
H16   H     H_    0.207515 0.243490 0.124412 0.233401
H17   H     H_    0.151249 0.420427 0.120908 0.229529
C36   C     C_3   0.846985 0.569726 0.921329 -0.884084
H18   H     H_    0.927754 0.594297 0.969360 0.246814
H19   H     H_    0.872937 0.480888 0.880215 0.227748
H20   H     H_    0.831265 0.662724 0.878110 0.228320
H21   H     H_    0.112943 0.276448 0.503978 0.153938
H22   H     H_    0.887112 0.723568 0.496351 0.155765
H23   H     H_    0.889165 0.276317 0.504231 0.153895
H24   H     H_    0.110908 0.723696 0.496184 0.153394
C37   C     C_3   0.326347 0.147080 0.374086 -0.781910
H25   H     H_    0.326047 0.258853 0.374622 0.271030
H26   H     H_    0.344432 0.118711 0.304809 0.202531
H27   H     H_    0.230340 0.117511 0.386300 0.191162
C38   C     C_3   0.673878 0.852917 0.625737 -0.776851
H28   H     H_    0.673958 0.741126 0.625420 0.271539
H29   H     H_    0.769832 0.882284 0.613229 0.190161
H30   H     H_    0.656178 0.881569 0.695033 0.203954
C39   C     C_3   0.673281 0.144761 0.625954 -0.775241
H31   H     H_    0.673234 0.256549 0.625223 0.272713
H32   H     H_    0.654924 0.115615 0.695183 0.204724
H33   H     H_    0.769406 0.115010 0.613977 0.189418
C40   C     C_3   0.326743 0.855252 0.374045 -0.778336
H34   H     H_    0.326831 0.743467 0.374765 0.274375
H35   H     H_    0.230622 0.884943 0.386075 0.190475
H36   H     H_    0.345044 0.884471 0.304816 0.203358

loop_
_geom_bond_atom_site_label_1
_geom_bond_atom_site_label_2
_geom_bond_distance
_ccdc_geom_bond_type
C3    C8    1.453967 S    
C17   C19   1.413207 A    
C37   H25   1.082215 S    
O3    C2    1.304588 A    
Cu1   N1    2.046804 S    
C39   H31   1.082301 S    
C18   C34   1.518138 S    
C33   H11   1.110118 S    
O5    C3    1.304956 A    
O1    C1    1.305515 A    
C9    C11   1.419646 A    
C14   C16   1.416800 A    
C27   C30   1.435804 A    
C28   C29   1.435848 A    
C40   H36   1.109398 S    
C1    C26   1.450884 S    
C2    C25   1.450948 S    
C31   H4    1.110145 S    
C27   N2    1.383063 A    
C35   H16   1.110468 S    
O7    Cu1   1.954632 S    
C7    C9    1.402926 A    
C36   H19   1.110651 S    
C4    C7    1.448696 S    
C13   C14   1.405627 A    
C21   C23   1.383453 A    
C6    H2    1.082367 S    
C24   C26   1.400899 A    
O3    Cu1   1.962435 S    
C38   H28   1.082360 S    
Cu2   N2    2.046805 S    
C36   H20   1.110358 S    
C38   H29   1.109235 S    
C11   C17   1.421750 A    
C12   C18   1.420571 A    
Cu1   Cu2   2.723650 S    
C37   H26   1.109486 S    
O2    C2    1.305550 A    
C39   H32   1.109384 S    
C29   N2    1.382434 A    
C33   H10   1.110898 S    
C6    C16   1.399665 A    
C19   C35   1.520206 S    
C40   H35   1.109164 S    
C22   C25   1.401579 A    
C29   C39   1.520049 S    
C28   N1    1.383019 A    
O8    Cu2   1.954632 S    
C34   H14   1.109981 S    
C22   H22   1.083118 S    
C31   H5    1.107435 S    
C32   H7    1.110352 S    
C40   H34   1.082269 S    
C22   C24   1.383467 A    
C30   C40   1.519890 S    
C35   H17   1.110509 S    
C10   C32   1.517943 S    
C21   H21   1.083119 S    
O6    C4    1.301930 A    
C32   H8    1.106240 S    
C9    C31   1.518493 S    
C16   C19   1.417364 A    
C30   N1    1.382417 A    
C10   C12   1.420039 A    
C36   H18   1.106886 S    
C11   C13   1.422913 A    
C37   H27   1.109191 S    
C12   C14   1.421284 A    
O1    Cu1   1.963399 S    
C24   H24   1.083037 S    
C39   H33   1.109163 S    
C38   H30   1.109367 S    
C15   C20   1.418390 A    
C5    C7    1.387004 A    
C27   C37   1.520734 S    
O6    Cu2   1.956500 S    
O4    C1    1.304574 A    
C17   C33   1.518287 S    
C33   H9    1.108090 S    
C28   C38   1.520654 S    
C18   C20   1.413502 A    
C5    H1    1.082378 S    
C34   H12   1.108572 S    
C23   C25   1.400914 A    
C8    C10   1.406192 A    
C13   C15   1.418693 A    
O4    Cu2   1.962436 S    
C35   H15   1.106940 S    
O2    Cu2   1.963399 S    
O7    C4    1.304304 A    
C20   C36   1.520929 S    
C34   H13   1.110098 S    
O8    C3    1.304490 A    
C23   H23   1.083039 S    
C31   H3    1.110901 S    
O5    Cu1   1.956500 S    
C5    C15   1.399791 A    
C6    C8    1.389003 A    
C32   H6    1.108991 S    
C21   C26   1.401538 A    
