data_mof_unit_34887.cif
_audit_creation_date              2012-10-26T20:43:06-0400
_audit_creation_method            fapswitch 2.2
_symmetry_space_group_name_H-M    P1
_symmetry_Int_Tables_number       1
_space_group_crystal_system       triclinic
_cell_length_a                    10.82929
_cell_length_b                    9.560089
_cell_length_c                    15.161526
_cell_angle_alpha                 90.849538
_cell_angle_beta                  91.584727
_cell_angle_gamma                 89.980629
_cell_volume                      1568.88442877

loop_
_atom_site_label
_atom_site_type_symbol
_atom_type_description
_atom_site_fract_x
_atom_site_fract_y
_atom_site_fract_z
_atom_type_partial_charge
C1    C     C_R   0.262189 0.500012 0.499910 0.560846
C2    C     C_R   0.128280 0.500016 0.499958 0.027421
C3    C     C_R   0.421748 0.073353 0.444461 0.078614
C4    C     C_R   0.578252 0.926647 0.555539 0.078614
C5    C     C_R   0.578688 0.075587 0.555270 0.076714
C6    C     C_R   0.421312 0.924413 0.444729 0.076713
C7    C     C_R   0.503410 0.498593 0.328809 0.555976
C8    C     C_R   0.496590 0.501407 0.671191 0.555976
C9    C     C_R   0.525569 0.383126 0.812884 -0.126679
C10   C     C_R   0.474430 0.616874 0.187116 -0.126679
C11   C     C_R   0.492293 0.504725 0.768116 -0.019434
C12   C     C_R   0.737811 0.499988 0.500090 0.560846
C13   C     C_R   0.507706 0.495275 0.231883 -0.019434
C14   C     C_R   0.456846 0.625751 0.816129 -0.015441
C15   C     C_R   0.543154 0.374249 0.183871 -0.015441
C16   C     C_R   0.461949 0.624657 0.909170 -0.001963
C17   C     C_R   0.538050 0.375343 0.090830 -0.001963
C18   C     C_R   0.497762 0.500945 0.953467 0.039173
C19   C     C_R   0.502237 0.499055 0.046533 0.039174
C20   C     C_R   0.528552 0.378964 0.904865 0.002719
C21   C     C_R   0.471447 0.621036 0.095135 0.002719
C22   C     C_R   0.432418 0.744974 0.958949 -0.111414
C23   C     C_R   0.437255 0.744301 0.050652 -0.009489
C24   C     C_R   0.567581 0.255026 0.041050 -0.111414
C25   C     C_1   0.411122 0.749064 0.770757 0.236741
C26   C     C_1   0.588879 0.250936 0.229242 0.236740
C27   C     C_1   0.406616 0.872580 0.097097 0.195165
C28   C     C_1   0.593381 0.127418 0.902903 0.195165
C29   C     C_1   0.339398 0.146423 0.384388 0.263138
C30   C     C_1   0.660602 0.853577 0.615611 0.263138
C31   C     C_1   0.664253 0.150685 0.613344 0.247230
C32   C     C_1   0.335747 0.849315 0.386656 0.247230
C33   C     C_R   0.562744 0.255698 0.949348 -0.009489
C34   C     C_R   0.063839 0.372889 0.498214 -0.116790
C35   C     C_R   0.936161 0.627111 0.501786 -0.116790
C36   C     C_R   0.936098 0.372874 0.498201 -0.114222
C37   C     C_R   0.063902 0.627126 0.501799 -0.114223
C38   C     C_R   0.871720 0.499984 0.500042 0.027421
Cu1   Cu    Cu3+1 0.500000 0.640660 0.500000 1.008878
Cu2   Cu    Cu3+1 0.500000 0.359340 0.500000 1.008878
H1    H     H_    0.550756 0.290984 0.775250 0.167147
H2    H     H_    0.449242 0.709016 0.224750 0.167147
H3    H     H_    0.405844 0.841405 0.926894 0.145858
H4    H     H_    0.594156 0.158595 0.073106 0.145858
H5    H     H_    0.111800 0.273472 0.496819 0.145378
H6    H     H_    0.888200 0.726528 0.503181 0.145378
H7    H     H_    0.888081 0.273458 0.496660 0.148700
H8    H     H_    0.111919 0.726542 0.503340 0.148700
N1    N     N_R   0.500000 0.852070 0.500000 -0.266800
N2    N     N_1   0.266417 0.790506 0.339952 -0.291730
N3    N     N_R   0.500000 0.147930 0.500000 -0.266800
N4    N     N_1   0.374576 0.847410 0.734826 -0.280847
N5    N     N_1   0.625427 0.152591 0.265174 -0.280847
N6    N     N_1   0.382130 0.975120 0.134214 -0.270935
N7    N     N_1   0.617864 0.024876 0.865787 -0.270936
N8    N     N_1   0.273114 0.203820 0.335857 -0.271023
N9    N     N_1   0.726886 0.796180 0.664143 -0.271023
N10   N     N_1   0.733583 0.209493 0.660048 -0.291731
O1    O     O_R   0.319640 0.618740 0.499990 -0.502620
O2    O     O_R   0.680360 0.381260 0.500010 -0.502620
O3    O     O_R   0.680360 0.618740 0.500010 -0.509691
O4    O     O_R   0.319640 0.381260 0.499990 -0.509691
O5    O     O_R   0.499970 0.618800 0.370260 -0.505849
O6    O     O_R   0.500030 0.381200 0.629740 -0.505849
O7    O     O_R   0.500030 0.618800 0.629740 -0.484768
O8    O     O_R   0.499970 0.381200 0.370260 -0.484768

loop_
_geom_bond_atom_site_label_1
_geom_bond_atom_site_label_2
_ccdc_geom_bond_type
C6    C32   S    
C26   N5    T    
Cu2   O2    S    
C29   N8    T    
C23   C27   S    
C10   H2    S    
Cu2   N3    S    
C9    C11   A    
C9    C20   A    
C9    H1    S    
C24   C33   A    
Cu2   O6    S    
C4    N1    A    
C3    C6    A    
Cu1   O1    S    
C1    O4    A    
C2    C34   A    
C15   C26   S    
C36   C38   A    
C27   N6    T    
Cu2   O4    S    
C8    O7    A    
C6    N1    A    
C34   H5    S    
Cu2   O8    S    
C14   C25   S    
C7    O8    A    
C12   O3    A    
Cu1   O7    S    
C2    C37   A    
C32   N2    T    
C5    C31   S    
C8    O6    A    
C8    C11   S    
C24   H4    S    
C20   C33   A    
C31   N10   T    
C19   C21   A    
C1    O1    A    
C28   C33   S    
C1    C2    S    
C18   C20   A    
C13   C15   A    
C10   C21   A    
C12   C38   S    
Cu1   O3    S    
C11   C14   A    
C14   C16   A    
C25   N4    T    
C17   C24   A    
C17   C19   A    
C12   O2    A    
C30   N9    T    
C7    C13   S    
C35   C38   A    
Cu1   O5    S    
C34   C36   A    
C36   H7    S    
C16   C18   A    
C18   C19   A    
C7    O5    A    
C35   C37   A    
Cu1   Cu2   S    
C15   C17   A    
C3    N3    A    
C22   C23   A    
C5    N3    A    
C3    C29   S    
C16   C22   A    
Cu1   N1    S    
C35   H6    S    
C21   C23   A    
C28   N7    T    
C4    C30   S    
C22   H3    S    
C4    C5    A    
C37   H8    S    
C10   C13   A    
