data_mof_unit_66787.cif
_audit_creation_date              2013-03-05T15:41:05-0500
_audit_creation_method            fapswitch 2.2
_symmetry_space_group_name_H-M    P1
_symmetry_Int_Tables_number       1
_space_group_crystal_system       triclinic
_cell_length_a                    8.811004
_cell_length_b                    14.572469
_cell_length_c                    15.208096
_cell_angle_alpha                 94.825947
_cell_angle_beta                  99.128066
_cell_angle_gamma                 92.116111
_cell_volume                      1918.61744682

loop_
_atom_site_label
_atom_site_type_symbol
_atom_site_description
_atom_site_fract_x
_atom_site_fract_y
_atom_site_fract_z
_atom_type_partial_charge
P1    P     P_3+3 0.947560 0.714050 0.560480 0.597153
O1    O     O_2   0.113690 0.728200 0.532750 -0.310494
O2    O     O_3   0.871900 0.612110 0.540440 -0.329043
O3    O     O_3   0.325660 0.668890 0.372600 -0.437727
O4    O     O_2   0.254650 0.840356 0.410124 -0.406846
O5    O     O_3   0.958184 0.763646 0.673347 -0.604086
O6    O     O_3   0.329759 0.809457 0.249015 -0.446438
H1    H     H_    0.137033 0.728101 0.202649 0.118942
C1    C     C_3   0.266547 0.737604 0.090912 -0.330130
P2    P     P_3+3 0.325150 0.423860 0.297970 0.488406
P3    P     P_3+3 0.850794 0.597480 0.211991 0.470470
O7    O     O_2   0.147570 0.451710 0.282630 -0.369588
O8    O     O_3   0.905540 0.621350 0.329600 -0.300292
O9    O     O_2   0.970082 0.532784 0.180761 -0.420811
O10   O     O_3   0.319180 0.305069 0.264736 -0.519418
O11   O     O_3   0.876811 0.693076 0.149045 -0.602115
C2    C     C_3   0.823455 0.783087 0.169754 0.206378
C3    C     C_3   0.809153 0.829885 0.079243 -0.642046
H2    H     H_    0.923606 0.836034 0.058876 0.238936
H3    H     H_    0.737319 0.783768 0.025230 0.214463
C4    C     C_3   0.776104 0.340117 0.279552 0.364371
H4    H     H_    0.654640 0.350997 0.286677 0.092254
H5    H     H_    0.848758 0.402986 0.306977 0.133200
C5    C     C_3   0.793494 0.323163 0.180777 -0.856434
H6    H     H_    0.800502 0.388488 0.150168 0.186966
H7    H     H_    0.904632 0.292674 0.175978 0.204364
Ba1   Ba    Ba6+2 0.142880 0.544780 0.454020 1.605595
C6    C     C_3   0.031076 0.738292 0.758107 0.272181
C7    C     C_3   0.039675 0.827673 0.823145 -1.061506
H8    H     H_    0.144228 0.871635 0.821291 0.275161
H9    H     H_    0.039165 0.814056 0.893609 0.277147
H10   H     H_    0.942792 0.872248 0.804021 0.279377
C8    C     C_3   0.262699 0.249959 0.324305 0.202351
H11   H     H_    0.158773 0.279686 0.345846 0.083909
H12   H     H_    0.353928 0.247086 0.383461 0.122663
C9    C     C_3   0.216781 0.151084 0.276760 -0.442985
P4    P     P_3+3 0.862730 0.285940 0.439440 0.478801
O12   O     O_2   0.696600 0.271740 0.467230 -0.329184
O13   O     O_3   0.938380 0.387880 0.459490 -0.412867
O14   O     O_3   0.484630 0.331100 0.627330 -0.343515
O15   O     O_3   0.824129 0.262540 0.322650 -0.566629
P5    P     P_3+3 0.960444 0.378163 0.786389 0.435076
O16   O     O_3   0.389110 0.548970 0.605210 -0.329766
O17   O     O_3   0.904740 0.378630 0.670330 -0.363832
O18   O     O_2   0.836388 0.429982 0.829577 -0.405031
O19   O     O_3   0.939753 0.263912 0.813355 -0.579701
Ba2   Ba    Ba6+2 0.667290 0.455210 0.545900 1.610452
P6    P     P_3+3 0.369247 0.785401 0.362359 0.464077
C10   C     C_3   0.257061 0.732252 0.193333 0.385041
H13   H     H_    0.300503 0.665508 0.213331 0.018506
O20   O     O_3   0.421180 0.451020 0.394720 -0.421053
C11   C     C_3   0.546644 0.773718 0.730115 0.414760
C12   C     C_3   0.509552 0.855560 0.792392 -0.806786
H14   H     H_    0.549150 0.844315 0.863644 0.247344
H15   H     H_    0.566635 0.920904 0.778432 0.251958
H16   H     H_    0.383820 0.862620 0.783002 0.258704
P7    P     P_3+3 0.489716 0.576481 0.717654 0.540313
O21   O     O_2   0.662730 0.548230 0.717350 -0.340121
O22   O     O_3   0.492931 0.693171 0.763822 -0.535657
C13   C     C_3   0.906713 0.204706 0.733845 0.446277
H17   H     H_    0.786473 0.212426 0.701470 0.160230
H18   H     H_    0.985997 0.219282 0.686134 0.070660
C14   C     C_3   0.925729 0.104913 0.754580 -0.986073
H19   H     H_    0.868040 0.057742 0.696863 0.248737
H20   H     H_    0.049510 0.090679 0.767410 0.265064
H21   H     H_    0.875357 0.090319 0.814324 0.271814
P8    P     P_3+3 0.439119 0.210930 0.614461 0.498094
C15   C     C_3   0.449055 0.214534 0.791044 0.432121
O23   O     O_2   0.547994 0.166832 0.554450 -0.335185
O24   O     O_3   0.500593 0.165159 0.717352 -0.511357
C16   C     C_3   0.480346 0.156951 0.874114 -0.409427
H22   H     H_    0.477010 0.203056 0.935959 0.172775
C17   C     C_R   0.000712 0.946095 0.555284 -0.005047
C18   C     C_R   0.824356 0.800678 0.499968 0.282860
C19   C     C_R   0.676944 0.765976 0.455965 -0.227804
C20   C     C_R   0.568365 0.825504 0.417263 0.276623
C21   C     C_R   0.611637 0.917620 0.415536 -0.169952
C22   C     C_R   0.756594 0.956734 0.457744 -0.035856
C23   C     C_R   0.861518 0.900438 0.507046 -0.034927
C24   C     C_R   0.933534 0.096875 0.496965 -0.041816
C25   C     C_R   0.037302 0.041786 0.549111 0.067447
C26   C     C_R   0.981827 0.192585 0.490598 0.168473
C27   C     C_R   0.136796 0.219563 0.518546 -0.409490
C28   C     C_R   0.236678 0.167720 0.570928 0.320251
C29   C     C_R   0.184103 0.081491 0.589931 -0.347856
C30   C     C_R   0.796897 0.050824 0.447453 -0.070283
H23   H     H_    0.528172 0.958947 0.380045 0.217386
H24   H     H_    0.265920 0.043432 0.631032 0.205785
H25   H     H_    0.182598 0.279683 0.494871 0.127648
C31   C     C_R   0.244557 0.469977 0.770182 -0.476945
C32   C     C_R   0.159192 0.431939 0.830174 0.163625
C33   C     C_R   0.227308 0.430890 0.921274 -0.130776
C34   C     C_R   0.371410 0.480361 0.955678 0.072231
C35   C     C_R   0.447234 0.525327 0.892753 -0.081540
C36   C     C_R   0.391874 0.512951 0.799253 0.243540
C37   C     C_R   0.601019 0.511494 0.085897 -0.315451
C38   C     C_R   0.659315 0.536455 0.176447 0.285549
C39   C     C_R   0.418550 0.482861 0.215836 0.339265
C40   C     C_R   0.351105 0.476882 0.125048 -0.235828
C41   C     C_R   0.441327 0.488133 0.056091 0.149088
C42   C     C_R   0.571040 0.515482 0.240634 -0.512793
H26   H     H_    0.683600 0.511180 0.040835 0.158599
H27   H     H_    0.228935 0.462698 0.111378 0.155597
H28   H     H_    0.625539 0.518485 0.309530 0.149329
C43   C     C_2   0.662631 0.264192 0.126358 1.186403
O25   O     O_2   0.535014 0.294922 0.113072 -0.573710
O26   O     O_R   0.684584 0.176355 0.087623 -0.806411
H29   H     H_    0.795282 0.158367 0.099191 0.273580
C44   C     C_2   0.185569 0.709592 0.759188 0.978502
O27   O     O_2   0.227728 0.690420 0.688800 -0.515662
O28   O     O_R   0.276155 0.693300 0.840094 -0.794910
H30   H     H_    0.224267 0.703067 0.894133 0.322366
C45   C     C_2   0.953777 0.657514 0.792424 0.850886
O29   O     O_2   0.936220 0.584287 0.747311 -0.539210
O30   O     O_R   0.921149 0.662251 0.879500 -0.861654
H31   H     H_    0.910665 0.599148 0.901677 0.334521
N1    N     N_3   0.140592 0.679502 0.037699 -0.221125
H32   H     H_    0.036085 0.708677 0.041010 0.177745
H33   H     H_    0.136359 0.614510 0.061828 0.150364
N2    N     N_3   0.068084 0.153841 0.217899 -0.185718
H34   H     H_    0.083007 0.193707 0.165560 0.141663
H35   H     H_    0.033619 0.087594 0.187503 0.176765
C46   C     C_2   0.202137 0.085342 0.347335 1.078931
O31   O     O_2   0.080357 0.043489 0.348535 -0.596411
O32   O     O_R   0.330339 0.070047 0.409813 -0.766290
H36   H     H_    0.310412 0.019033 0.448420 0.340939
C47   C     C_2   0.333538 0.114683 0.219838 1.130676
O33   O     O_2   0.360426 0.155717 0.156799 -0.559956
O34   O     O_R   0.400055 0.030319 0.233848 -0.738050
H37   H     H_    0.468660 0.012084 0.188409 0.346308
N3    N     N_3   0.407937 0.699230 0.067083 -0.186066
H38   H     H_    0.464182 0.663512 0.117343 0.097416
H39   H     H_    0.485275 0.747965 0.050084 0.160687
N4    N     N_3   0.707807 0.772680 0.736330 -0.214810
H40   H     H_    0.748213 0.765882 0.803576 0.162127
H41   H     H_    0.724006 0.712106 0.698102 0.129648
C48   C     C_2   0.481047 0.789591 0.636662 0.891361
O35   O     O_2   0.501428 0.864668 0.608533 -0.685777
O36   O     O_R   0.406647 0.717592 0.580723 -0.715806
H42   H     H_    0.369731 0.737370 0.520706 0.362619
C49   C     C_2   0.255165 0.835582 0.062162 1.130148
O37   O     O_2   0.296718 0.853658 0.992288 -0.685870
O38   O     O_R   0.198028 0.905203 0.114084 -0.723504
H43   H     H_    0.190710 0.965368 0.085096 0.322483
N5    N     N_3   0.749290 0.922653 0.079938 -0.188039
H44   H     H_    0.630482 0.918022 0.057649 0.196231
H45   H     H_    0.771110 0.957537 0.143696 0.213292
N6    N     N_3   0.283073 0.228401 0.771656 -0.216321
H46   H     H_    0.263293 0.283194 0.732517 0.111872
H47   H     H_    0.244392 0.248743 0.831266 0.079536
N7    N     N_3   0.534021 0.304264 0.811122 -0.178943
H48   H     H_    0.507743 0.336678 0.870320 0.055217
H49   H     H_    0.651336 0.293271 0.822324 0.183177
C50   C     C_2   0.357455 0.081208 0.870828 1.106165
O39   O     O_2   0.327237 0.025547 0.805215 -0.690067
O40   O     O_R   0.275145 0.077104 0.941916 -0.773011
H50   H     H_    0.192566 0.025248 0.930807 0.324151
C51   C     C_2   0.936627 0.836292 0.242202 1.022118
O41   O     O_2   0.011415 0.903349 0.226749 -0.561585
O42   O     O_R   0.948246 0.812021 0.329306 -0.750082
H51   H     H_    0.997439 0.864471 0.373126 0.353465
N8    N     N_3   0.631561 0.117368 0.880944 -0.176050
H52   H     H_    0.715360 0.170336 0.903936 0.153570
H53   H     H_    0.641935 0.071377 0.930604 0.154582
N9    N     N_3   0.641162 0.668722 0.449963 -0.156737
H54   H     H_    0.571446 0.651591 0.495441 0.169418
H55   H     H_    0.590508 0.643109 0.386544 0.153549
N10   N     N_3   0.107812 0.895957 0.610644 -0.156196
H56   H     H_    0.124753 0.927660 0.675854 0.156356
H57   H     H_    0.211718 0.895751 0.585914 0.176231
C52   C     C_2   0.718628 0.088499 0.366460 1.116220
O43   O     O_2   0.598663 0.127098 0.367642 -0.590906
O44   O     O_R   0.776443 0.072818 0.286642 -0.776467
H58   H     H_    0.710700 0.099169 0.235015 0.330682
N11   N     N_3   0.153012 0.376065 0.977524 -0.195302
H59   H     H_    0.042089 0.398539 0.979103 0.144761
H60   H     H_    0.145736 0.307011 0.952126 0.176801
C53   C     C_2   0.674300 0.782966 0.204724 0.885900
O45   O     O_2   0.583707 0.843186 0.189711 -0.653630
O46   O     O_R   0.650923 0.722270 0.266158 -0.796285
H61   H     H_    0.541033 0.700327 0.259176 0.285186
N12   N     N_3   0.575245 0.589072 0.924507 -0.217474
H62   H     H_    0.544855 0.656162 0.914290 0.201297
H63   H     H_    0.664628 0.571451 0.890310 0.163852
C54   C     C_2   0.180004 0.463912 0.675174 1.162855
O47   O     O_2   0.101186 0.523699 0.643935 -0.517440
O48   O     O_R   0.219467 0.393385 0.618783 -0.831532
H64   H     H_    0.202779 0.410806 0.555398 0.338504

loop_
_geom_bond_atom_site_label_1
_geom_bond_atom_site_label_2
_geom_bond_distance
_ccdc_geom_bond_type
P2    Ba1   3.468576 S    
C2    C53   1.493896 S    
O14   Ba2   2.861662 S    
C40   H27   1.072378 S    
C52   O43   1.217467 D    
C14   H20   1.107511 S    
N9    H54   1.034660 S    
C16   N8    1.463425 S    
C37   H26   1.075652 S    
C11   N4    1.408840 S    
P6    C20   1.869259 S    
O28   H30   1.004498 S    
C3    N5    1.468961 S    
C54   O48   1.373094 S    
C53   O45   1.219431 D    
C31   C32   1.406204 A    
C31   C36   1.408462 A    
N11   H60   1.043023 S    
O44   H58   1.011097 S    
C11   C12   1.537248 S    
C43   O26   1.396568 S    
P4    O12   1.597717 D    
C13   C14   1.523375 S    
P1    C18   1.897010 S    
C6    C7    1.559719 S    
C5    H7    1.100445 S    
P1    O1    1.597246 D    
C7    H10   1.108687 S    
P2    O10   1.758536 S    
C49   O38   1.391159 S    
N5    H44   1.045772 S    
P3    O9    1.541217 D    
C46   O32   1.393610 S    
O30   H31   1.011774 S    
C8    C9    1.565700 S    
C1    N1    1.460754 S    
C13   H18   1.111488 S    
C3    H2    1.103643 S    
P5    O19   1.757721 S    
C1    N3    1.468546 S    
O2    Ba2   2.873988 S    
P2    C39   1.852390 S    
N12   H62   1.040844 S    
C24   C30   1.426331 A    
C44   O28   1.399613 S    
O5    C6    1.430245 S    
C40   C41   1.429135 A    
Ba1   O13   2.873433 S    
O11   C2    1.436572 S    
O14   P8    1.769546 S    
N7    H48   1.043980 S    
C5    H6    1.098205 S    
O1    Ba1   2.872987 S    
P4    Ba2   3.492498 S    
C50   O40   1.398141 S    
C15   N6    1.470244 S    
O17   Ba2   2.911204 S    
C48   O35   1.225077 D    
C22   C30   1.431208 A    
N10   H57   1.043497 S    
C14   H21   1.105099 S    
P8    C28   1.867793 S    
N9    H55   1.029222 S    
C4    H4    1.108466 S    
C51   O42   1.388821 S    
P5    O17   1.756043 S    
C17   N10   1.426718 S    
P2    O20   1.587391 S    
C17   C25   1.433754 A    
N5    H45   1.042251 S    
Ba1   O20   3.071592 S    
C11   C48   1.487295 S    
N8    H53   1.046760 S    
C12   H15   1.112343 S    
C33   N11   1.432721 S    
C27   H25   1.064477 S    
O4    P6    1.543721 D    
C18   C19   1.417514 A    
O7    Ba1   2.842284 S    
C30   C52   1.471873 S    
C46   O31   1.217950 D    
C9    C46   1.514688 S    
C1    C10   1.581305 S    
C28   C29   1.392013 A    
O6    C10   1.416878 S    
C24   C26   1.458659 A    
C29   H24   1.078361 S    
C44   O27   1.202265 D    
C32   C33   1.421399 A    
C1    C49   1.530188 S    
C22   C23   1.424591 A    
Ba2   O20   2.894285 S    
C21   C22   1.411649 A    
C16   C50   1.509474 S    
P1    O5    1.792418 S    
C13   H17   1.109096 S    
P1    O2    1.590687 S    
P5    O18   1.549731 D    
C19   C20   1.408105 A    
C47   O34   1.399267 S    
C7    H8    1.107948 S    
C11   O22   1.414818 S    
C52   O44   1.394041 S    
P3    O11   1.783257 S    
C53   O46   1.372698 S    
N11   H59   1.045371 S    
O26   H29   1.011534 S    
C38   C42   1.387365 A    
C37   C38   1.403579 A    
O12   Ba2   2.873521 S    
C2    C3    1.576367 S    
C17   C23   1.434277 A    
C19   N9    1.432607 S    
C34   C35   1.437877 A    
C20   C21   1.385382 A    
C2    C51   1.503335 S    
C48   O36   1.369818 S    
C34   C41   1.546485 S    
C50   O39   1.219866 D    
P2    O7    1.616881 D    
C4    O15   1.399523 S    
C15   O24   1.424725 S    
N10   H56   1.044070 S    
C39   C40   1.408088 A    
C42   H28   1.077698 S    
C18   C23   1.469523 A    
C4    H5    1.109407 S    
O32   H36   1.012274 S    
C10   H13   1.106954 S    
P4    C26   1.892531 S    
C27   C28   1.381231 A    
C9    C47   1.527979 S    
C47   O33   1.220999 D    
O3    Ba1   2.862219 S    
O46   H61   0.994897 S    
N2    H35   1.047174 S    
O13   Ba2   3.057281 S    
C45   O29   1.210080 D    
O3    P6    1.752071 S    
C12   H16   1.104059 S    
Ba1   Ba2   4.793394 S    
O40   H50   1.013848 S    
O19   C13   1.409085 S    
N6    H47   1.042190 S    
C24   C25   1.428498 A    
N3    H39   1.042402 S    
N4    H41   1.042504 S    
O36   H42   0.989426 S    
C12   H14   1.112181 S    
N4    H40   1.042386 S    
C31   C54   1.460507 S    
C6    C44   1.436753 S    
N8    H52   1.045859 S    
C39   C42   1.391155 A    
C43   O25   1.219027 D    
C54   O47   1.215204 D    
P3    C38   1.856982 S    
P8    O24   1.766400 S    
O6    P6    1.770770 S    
N1    H33   1.045593 S    
O38   H43   1.013616 S    
O34   H37   1.013426 S    
C16   H22   1.113907 S    
C7    H9    1.106806 S    
C15   N7    1.466792 S    
N1    H32   1.034987 S    
O42   H51   1.007148 S    
Ba2   O21   2.842588 S    
P3    O8    1.778193 S    
P7    O21   1.594261 D    
C51   O41   1.218434 D    
C15   C16   1.568790 S    
C37   C41   1.427390 A    
O2    Ba1   3.056526 S    
C33   C34   1.436570 A    
C8    H12   1.112031 S    
C8    H11   1.110874 S    
C3    H3    1.112540 S    
N6    H46   1.039008 S    
N7    H49   1.041190 S    
P4    O15   1.756286 S    
C35   C36   1.422228 A    
C9    N2    1.468780 S    
N12   H63   1.038783 S    
P7    O22   1.781729 S    
C6    C45   1.509577 S    
O16   P7    1.802292 S    
C14   H19   1.110156 S    
Ba1   O16   2.895046 S    
O48   H64   1.007105 S    
C21   H23   1.075318 S    
P4    O13   1.590661 S    
C26   C27   1.395605 A    
P7    C36   1.901066 S    
C4    C5    1.534421 S    
P5    C32   1.888114 S    
P1    Ba1   3.491871 S    
N2    H34   1.045820 S    
O8    Ba1   2.910439 S    
C5    C43   1.502424 S    
C35   N12   1.429197 S    
P8    O23   1.546202 D    
C49   O37   1.223154 D    
O16   Ba2   3.070738 S    
H1    C10   1.089239 S    
O10   C8    1.396167 S    
C25   C29   1.422229 A    
N3    H38   1.032745 S    
C45   O30   1.395688 S    
