data_mof_unit_48516.cif
_audit_creation_date              2012-12-10T17:03:28-0500
_audit_creation_method            fapswitch 2.2
_symmetry_space_group_name_H-M    P1
_symmetry_Int_Tables_number       1
_space_group_crystal_system       triclinic
_cell_length_a                    15.009333
_cell_length_b                    11.064315
_cell_length_c                    9.847439
_cell_angle_alpha                 109.956021
_cell_angle_beta                  97.144494
_cell_angle_gamma                 91.994731
_cell_volume                      1519.97334926

loop_
_atom_site_label
_atom_site_type_symbol
_atom_type_description
_atom_site_fract_x
_atom_site_fract_y
_atom_site_fract_z
_atom_type_partial_charge
C1    C     C_R   0.496551 0.255410 0.442913 0.911783
C2    C     C_R   0.509206 0.745327 0.556547 0.898528
C3    C     C_R   0.041547 0.280144 0.503258 -0.196785
C4    C     C_R   0.966123 0.736762 0.577781 -0.180441
C5    C     C_2   0.494668 0.118272 0.416694 -0.368258
C6    C     C_2   0.519878 0.883474 0.581309 -0.333601
C7    C     C_2   0.542008 0.069402 0.508349 0.189276
C8    C     C_2   0.533429 0.930528 0.474720 0.155860
C9    C     C_2   0.516081 0.489439 0.070631 0.443391
C10   C     C_2   0.485813 0.500516 0.923595 0.429565
C11   C     C_R   0.329527 0.501028 0.502308 0.911623
C12   C     C_R   0.670762 0.498720 0.498119 0.919979
C13   C     C_R   0.818837 0.619074 0.537046 0.035023
C14   C     C_R   0.184308 0.387748 0.495666 0.024115
C15   C     C_R   0.767665 0.500683 0.498715 -0.221457
C16   C     C_R   0.233652 0.501356 0.507453 -0.197477
C17   C     C_R   0.809107 0.385207 0.477361 0.371003
C18   C     C_R   0.192602 0.616331 0.523933 0.347487
C19   C     C_R   0.903904 0.388278 0.502208 -0.047432
C20   C     C_R   0.101133 0.622175 0.543443 -0.052475
C21   C     C_R   0.955454 0.505062 0.524083 -0.024970
C22   C     C_R   0.049668 0.505968 0.524995 -0.023765
C23   C     C_R   0.913027 0.620911 0.544793 0.032477
C24   C     C_R   0.091958 0.390031 0.505903 0.049775
C25   C     C_R   0.949257 0.279188 0.505651 0.171886
C26   C     C_R   0.058943 0.739238 0.580635 0.176719
Cu1   Cu    Cu3+1 0.515770 0.521810 0.644910 1.030491
Cu2   Cu    Cu3+1 0.484230 0.478190 0.355090 1.010779
H1    H     H_    0.073308 0.194036 0.502943 0.209990
H2    H     H_    0.936697 0.828029 0.603784 0.215779
H3    H     H_    0.516892 0.949660 0.691119 0.161630
H4    H     H_    0.451187 0.055209 0.320077 0.159256
H5    H     H_    0.599662 0.601446 0.922698 0.202523
H6    H     H_    0.397897 0.405579 0.082041 0.185986
N1    N     N_2   0.460520 0.445420 0.137370 -0.318932
N2    N     N_2   0.539480 0.554580 0.862630 -0.317681
O1    O     O_R   0.508410 0.332340 0.577400 -0.521100
O2    O     O_R   0.491590 0.667660 0.422600 -0.539971
O3    O     O_R   0.481780 0.295500 0.332650 -0.588740
O4    O     O_R   0.518220 0.704500 0.667350 -0.575484
O5    O     O_R   0.383570 0.518390 0.622380 -0.540962
O6    O     O_R   0.616430 0.481610 0.377620 -0.534542
O7    O     O_R   0.356940 0.481550 0.377630 -0.594868
O8    O     O_R   0.643060 0.518450 0.622370 -0.573571
I1    I     I_    0.751268 0.792818 0.578095 -0.300352
I2    I     I_    0.250868 0.212543 0.452696 -0.408956
O9    O     O_3   0.755312 0.270124 0.426414 -0.574893
C27   C     C_3   0.759852 0.209573 0.275781 0.058951
H7    H     H_    0.826101 0.169285 0.259044 0.170693
H8    H     H_    0.751040 0.278473 0.216946 0.120319
C28   C     C_3   0.685720 0.099789 0.209671 -0.310347
H9    H     H_    0.694394 0.030272 0.268246 0.276247
H10   H     H_    0.619096 0.139178 0.223222 0.229405
C29   C     C_3   0.688629 0.029696 0.047405 -0.844210
H11   H     H_    0.679351 0.097588 0.986749 0.262457
H12   H     H_    0.633610 0.950899 0.002709 0.275864
H13   H     H_    0.754085 0.987031 0.030978 0.271128
O10   O     O_3   0.242930 0.720611 0.516700 -0.593151
C30   C     C_3   0.226153 0.721960 0.372500 0.057930
H14   H     H_    0.153695 0.733698 0.342789 0.161171
H15   H     H_    0.244579 0.631094 0.292438 0.143478
C31   C     C_3   0.283074 0.835253 0.363001 -0.298870
H16   H     H_    0.272503 0.925141 0.451929 0.273181
H17   H     H_    0.355164 0.817493 0.377655 0.229806
C32   C     C_3   0.259469 0.853900 0.216592 -0.860690
H18   H     H_    0.275144 0.768797 0.126575 0.245288
H19   H     H_    0.299998 0.939522 0.216190 0.277039
H20   H     H_    0.186934 0.869377 0.197603 0.274212
I3    I     I_    0.890327 0.114109 0.536997 -0.278129
I4    I     I_    0.126461 0.928587 0.663411 -0.319155
I5    I     I_    0.549429 0.822012 0.254081 -0.386117
I6    I     I_    0.642197 0.176531 0.687047 -0.327083
O11   O     O_3   0.401813 0.444608 0.848887 -0.573765
C33   C     C_3   0.334320 0.526007 0.907281 0.038217
H21   H     H_    0.326026 0.599369 0.853911 0.194030
H22   H     H_    0.350208 0.579927 0.026992 0.103230
C34   C     C_3   0.245205 0.443637 0.879106 -0.318764
H23   H     H_    0.233227 0.377527 0.764281 0.267845
H24   H     H_    0.249287 0.383338 0.949303 0.216703
C35   C     C_3   0.165264 0.525600 0.908728 -0.895601
H25   H     H_    0.170711 0.582887 0.026775 0.246700
H26   H     H_    0.101781 0.461640 0.875873 0.273181
H27   H     H_    0.161998 0.591373 0.844914 0.266473
O12   O     O_3   0.603435 0.532741 0.138487 -0.559282
C36   C     C_3   0.662721 0.444165 0.066004 0.040520
H28   H     H_    0.649458 0.417463 0.945650 0.149631
H29   H     H_    0.654473 0.354033 0.090209 0.153629
C37   C     C_3   0.759690 0.504636 0.116089 -0.327732
H30   H     H_    0.764253 0.600957 0.104223 0.245302
H31   H     H_    0.779295 0.518173 0.232689 0.227813
C38   C     C_3   0.825594 0.420941 0.026812 -0.866623
H32   H     H_    0.820864 0.322469 0.032431 0.257977
H33   H     H_    0.895469 0.465124 0.070728 0.256062
H34   H     H_    0.810990 0.413874 0.910811 0.286824

loop_
_geom_bond_atom_site_label_1
_geom_bond_atom_site_label_2
_ccdc_geom_bond_type
O11   C33   S    
C7    C8    S    
C14   I2    S    
C36   H28   S    
C33   H22   S    
C1    C5    S    
C19   C21   A    
C10   O11   S    
C36   C37   S    
H5    N2    S    
C13   C23   A    
H6    N1    S    
C14   C24   A    
C3    H1    S    
C2    O2    A    
C31   H17   S    
Cu1   O8    S    
C18   O10   S    
C27   C28   S    
Cu2   N1    S    
C32   H19   S    
C33   C34   S    
C12   O6    A    
C12   C15   S    
C11   O7    A    
C9    C10   S    
C18   C20   A    
C1    O1    A    
C5    H4    S    
C27   H8    S    
C6    H3    S    
C30   H14   S    
C21   C22   A    
C3    C24   A    
C2    C6    S    
C35   H27   S    
C34   H24   S    
C29   H12   S    
C30   H15   S    
C33   H21   S    
C36   H29   S    
C28   H9    S    
C3    C25   A    
O12   C36   S    
C35   H26   S    
C38   H32   S    
C5    C7    D    
C4    C23   A    
C6    C8    D    
Cu2   O3    S    
O10   C30   S    
C34   H23   S    
C28   H10   S    
C31   H16   S    
C38   H33   S    
C11   C16   S    
Cu1   O5    S    
O9    C27   S    
C37   C38   S    
Cu2   O2    S    
Cu1   O4    S    
C32   H20   S    
C27   H7    S    
C20   C22   A    
C13   C15   A    
C26   I4    S    
C14   C16   A    
C25   I3    S    
C7    I6    S    
C34   C35   S    
C15   C17   A    
C29   H11   S    
C30   C31   S    
C31   C32   S    
C17   O9    S    
C37   H31   S    
C35   H25   S    
C4    C26   A    
Cu1   N2    S    
Cu2   O7    S    
C28   C29   S    
C21   C23   A    
C12   O8    A    
C38   H34   S    
C13   I1    S    
C20   C26   A    
Cu1   O1    S    
Cu2   O6    S    
C17   C19   A    
C11   O5    A    
C22   C24   A    
C19   C25   A    
C1    O3    A    
C9    O12   S    
C2    O4    A    
C37   H30   S    
C16   C18   A    
C32   H18   S    
Cu1   Cu2   S    
C9    N1    D    
C10   N2    D    
C4    H2    S    
C8    I5    S    
C29   H13   S    
