data_mof_unit_57738.cif
_audit_creation_date              2012-12-10T18:04:36-0500
_audit_creation_method            fapswitch 2.2
_symmetry_space_group_name_H-M    P1
_symmetry_Int_Tables_number       1
_space_group_crystal_system       triclinic
_cell_length_a                    19.663142
_cell_length_b                    17.580362
_cell_length_c                    12.581451
_cell_angle_alpha                 89.632147
_cell_angle_beta                  99.156278
_cell_angle_gamma                 90.035606
_cell_volume                      4293.71413412

loop_
_atom_site_label
_atom_site_type_symbol
_atom_type_description
_atom_site_fract_x
_atom_site_fract_y
_atom_site_fract_z
_atom_type_partial_charge
C1    C     C_R   0.410776 0.102741 0.442686 0.981523
C2    C     C_R   0.409711 0.898769 0.442225 0.962049
C3    C     C_R   0.910777 0.602742 0.442688 0.981261
C4    C     C_R   0.909712 0.398769 0.442225 0.962079
C5    C     C_R   0.721455 0.243136 0.520967 0.110160
C6    C     C_R   0.727689 0.760189 0.533119 0.087993
C7    C     C_R   0.221446 0.743143 0.520952 0.110151
C8    C     C_R   0.227708 0.260216 0.533125 0.088052
C9    C     C_R   0.700677 0.303528 0.582689 0.029016
C10   C     C_R   0.760520 0.757248 0.642039 0.014505
C11   C     C_R   0.200669 0.803534 0.582674 0.029090
C12   C     C_R   0.260567 0.257323 0.642034 0.014644
C13   C     C_R   0.221861 0.877254 0.565333 -0.327870
C14   C     C_R   0.329816 0.237492 0.665789 -0.278788
C15   C     C_R   0.721866 0.377248 0.565340 -0.327866
C16   C     C_R   0.829762 0.737396 0.665821 -0.278493
C17   C     C_R   0.270227 0.891009 0.498413 0.545286
C18   C     C_R   0.365328 0.218199 0.582862 0.551957
C19   C     C_R   0.770228 0.391004 0.498416 0.545291
C20   C     C_R   0.865304 0.718161 0.582907 0.551974
C21   C     C_R   0.691127 0.172177 0.529006 -0.324115
C22   C     C_R   0.665804 0.799477 0.509456 -0.312188
C23   C     C_R   0.191120 0.672184 0.528992 -0.324144
C24   C     C_R   0.165809 0.299480 0.509471 -0.312208
C25   C     C_R   0.626097 0.218228 0.663821 0.532945
C26   C     C_R   0.661585 0.818003 0.698866 0.508544
C27   C     C_R   0.126091 0.718232 0.663809 0.532959
C28   C     C_R   0.161626 0.318054 0.698882 0.508575
C29   C     C_R   0.361090 0.837755 0.405560 -0.230876
C30   C     C_R   0.357981 0.159782 0.403698 -0.237963
C31   C     C_R   0.861092 0.337753 0.405563 -0.230881
C32   C     C_R   0.857980 0.659780 0.403705 -0.238142
C33   C     C_R   0.642545 0.012275 0.134470 -0.269783
C34   C     C_R   0.142544 0.512288 0.134470 -0.269793
C35   C     C_R   0.379414 0.007187 0.763067 -0.110876
C36   C     C_R   0.879414 0.507185 0.763067 -0.110857
C37   C     C_R   0.354330 0.014439 0.861157 0.501324
C38   C     C_R   0.854329 0.514433 0.861157 0.501301
C39   C     C_R   0.588121 0.896293 0.556265 0.869600
C40   C     C_R   0.590612 0.100749 0.557645 0.889619
C41   C     C_R   0.088123 0.396296 0.556268 0.869597
C42   C     C_R   0.090612 0.600749 0.557643 0.889550
C43   C     C_R   0.401602 0.012003 0.955625 -0.272400
C44   C     C_R   0.901602 0.511995 0.955625 -0.272437
C45   C     C_R   0.472836 0.004021 0.953843 -0.095106
C46   C     C_R   0.972836 0.504019 0.953843 -0.095086
C47   C     C_R   0.495396 0.000963 0.853455 0.146467
C48   C     C_R   0.995396 0.500965 0.853456 0.146485
C49   C     C_R   0.522365 0.003066 0.047862 -0.072138
C50   C     C_R   0.022364 0.503066 0.047862 -0.072149
C51   C     C_R   0.593689 0.009133 0.040607 0.061730
C52   C     C_R   0.093688 0.509143 0.040607 0.061715
C53   C     C_R   0.615275 0.011381 0.940234 0.441139
C54   C     C_R   0.115274 0.511398 0.940235 0.441154
C55   C     C_R   0.566136 0.003633 0.847983 -0.184139
C56   C     C_R   0.066136 0.503642 0.847984 -0.184090
C57   C     C_R   0.503627 0.997087 0.149943 -0.013850
C58   C     C_R   0.003627 0.497085 0.149943 -0.013751
C59   C     C_R   0.620353 0.007762 0.233074 -0.009928
C60   C     C_R   0.120352 0.507770 0.233074 -0.009917
C61   C     C_R   0.655962 0.290104 0.657061 -0.329792
C62   C     C_R   0.725591 0.781577 0.724487 -0.281704
C63   C     C_R   0.155954 0.790110 0.657047 -0.329865
C64   C     C_R   0.225651 0.281665 0.724490 -0.281807
C65   C     C_R   0.638530 0.162583 0.589450 -0.157835
C66   C     C_R   0.637466 0.835499 0.590106 -0.151485
C67   C     C_R   0.138526 0.662587 0.589441 -0.157714
C68   C     C_R   0.137482 0.335516 0.590119 -0.151436
C69   C     C_R   0.379549 0.781597 0.335328 0.522109
C70   C     C_R   0.328393 0.162363 0.293633 0.513938
C71   C     C_R   0.879553 0.281594 0.335333 0.522109
C72   C     C_R   0.828403 0.662371 0.293635 0.514082
C73   C     C_R   0.342861 0.713628 0.323282 -0.238371
C74   C     C_R   0.263643 0.195063 0.264027 -0.257753
C75   C     C_R   0.842870 0.213621 0.323297 -0.238356
C76   C     C_R   0.763654 0.695078 0.264022 -0.257820
C77   C     C_R   0.290297 0.699991 0.382502 -0.247541
C78   C     C_R   0.228618 0.224925 0.341758 -0.260993
C79   C     C_R   0.790309 0.199982 0.382523 -0.247536
C80   C     C_R   0.728625 0.724935 0.341749 -0.260915
C81   C     C_R   0.270278 0.756359 0.451451 0.052978
C82   C     C_R   0.260555 0.229499 0.450827 0.058228
C83   C     C_R   0.770286 0.256351 0.451466 0.052991
C84   C     C_R   0.760552 0.729496 0.450824 0.058283
C85   C     C_R   0.300887 0.829074 0.451780 -0.111517
C86   C     C_R   0.328387 0.202234 0.479129 -0.120567
C87   C     C_R   0.800891 0.329069 0.451787 -0.111514
C88   C     C_R   0.828385 0.702232 0.479138 -0.120617
H1    H     H_    0.697183 0.017425 0.132083 0.183963
H2    H     H_    0.197181 0.517446 0.132083 0.183955
H3    H     H_    0.451361 0.989572 0.163545 0.146439
H4    H     H_    0.951361 0.489565 0.163545 0.146426
H5    H     H_    0.345256 0.010801 0.687007 0.179434
H6    H     H_    0.845256 0.510799 0.687007 0.179429
H7    H     H_    0.584530 0.003280 0.773053 0.223036
H8    H     H_    0.084530 0.503289 0.773054 0.223037
H9    H     H_    0.198904 0.924784 0.600429 0.152858
H10   H     H_    0.357838 0.243700 0.746741 0.169972
H11   H     H_    0.698906 0.424778 0.600433 0.152852
H12   H     H_    0.857762 0.743572 0.746792 0.170011
H13   H     H_    0.641223 0.336355 0.705207 0.146261
H14   H     H_    0.749851 0.776850 0.807853 0.148860
H15   H     H_    0.141218 0.836360 0.705198 0.146214
H16   H     H_    0.249936 0.276969 0.807848 0.148839
N1    N     N_R   0.552340 0.000000 0.237260 -0.098714
N2    N     N_R   0.052340 0.500000 0.237260 -0.098711
N3    N     N_R   0.448170 0.000000 0.762060 -0.133890
N4    N     N_R   0.948170 0.500000 0.762060 -0.133883
O1    O     O_R   0.448200 0.076800 0.373930 -0.587328
O2    O     O_R   0.448200 0.923200 0.373930 -0.583713
O3    O     O_R   0.948200 0.576800 0.373930 -0.587206
O4    O     O_R   0.948200 0.423200 0.373930 -0.583721
O5    O     O_R   0.414750 0.076790 0.542400 -0.565007
O6    O     O_R   0.414750 0.923210 0.542400 -0.596804
O7    O     O_R   0.914750 0.576790 0.542400 -0.565021
O8    O     O_R   0.914750 0.423210 0.542400 -0.596785
O9    O     O_R   0.585240 0.923200 0.457600 -0.623656
O10   O     O_R   0.585240 0.076800 0.457600 -0.634957
O11   O     O_R   0.085240 0.423200 0.457600 -0.623660
O12   O     O_R   0.085240 0.576800 0.457600 -0.634958
O13   O     O_R   0.551780 0.923190 0.626070 -0.597338
O14   O     O_R   0.551780 0.076810 0.626070 -0.572102
O15   O     O_R   0.051780 0.423190 0.626070 -0.597311
O16   O     O_R   0.051780 0.576810 0.626070 -0.572110
Zn1   Zn    Zn3+2 0.522330 0.000000 0.387520 0.965940
Zn2   Zn    Zn3+2 0.022330 0.500000 0.387520 0.965981
Zn3   Zn    Zn3+2 0.477660 1.000000 0.612480 1.006768
Zn4   Zn    Zn3+2 0.977660 0.500000 0.612480 1.006788
O17   O     O_3   0.576629 0.206199 0.729166 -0.560724
C89   C     C_3   0.607072 0.212481 0.838077 -0.266668
H17   H     H_    0.616891 0.272955 0.860606 0.142465
H18   H     H_    0.655470 0.178682 0.856564 0.187603
H19   H     H_    0.570548 0.189469 0.888924 0.191744
O18   O     O_3   0.627547 0.845800 0.778676 -0.631577
C90   C     C_3   0.608766 0.785126 0.841878 -0.329169
H20   H     H_    0.654301 0.762013 0.896070 0.161616
H21   H     H_    0.581617 0.739127 0.791319 0.171718
H22   H     H_    0.572606 0.807192 0.893644 0.189527
O19   O     O_3   0.076638 0.706193 0.729178 -0.560800
C91   C     C_3   0.107099 0.712475 0.838080 -0.266626
H23   H     H_    0.116922 0.772949 0.860608 0.142466
H24   H     H_    0.155498 0.678677 0.856546 0.187635
H25   H     H_    0.070586 0.689463 0.888946 0.191772
O20   O     O_3   0.127575 0.345844 0.778686 -0.631539
C92   C     C_3   0.108975 0.285197 0.842103 -0.329188
H26   H     H_    0.154574 0.262349 0.896423 0.161553
H27   H     H_    0.082002 0.239009 0.791715 0.171745
H28   H     H_    0.072717 0.307208 0.893744 0.189548
O21   O     O_3   0.682652 0.031662 0.933158 -0.639370
C93   C     C_3   0.716669 0.971414 0.890453 -0.293269
H29   H     H_    0.709028 0.916258 0.930976 0.190142
H30   H     H_    0.772763 0.983337 0.904997 0.174625
H31   H     H_    0.700737 0.968011 0.801916 0.190668
O22   O     O_3   0.182646 0.531705 0.933160 -0.639375
C94   C     C_3   0.216681 0.471474 0.890451 -0.293366
H32   H     H_    0.209065 0.416315 0.930982 0.190103
H33   H     H_    0.272771 0.483424 0.904983 0.174612
H34   H     H_    0.200744 0.468065 0.801916 0.190669
H35   H     H_    0.380954 0.020273 0.029082 0.187188
H36   H     H_    0.880952 0.520259 0.029083 0.187167
O23   O     O_3   0.286534 0.032128 0.870162 -0.597537
C95   C     C_3   0.238971 0.996008 0.791199 -0.358192
H37   H     H_    0.252431 0.935128 0.782097 0.161451
H38   H     H_    0.234340 0.027786 0.713792 0.183144
H39   H     H_    0.187628 0.997290 0.817053 0.194797
O24   O     O_3   0.786534 0.532122 0.870163 -0.597573
C96   C     C_3   0.738971 0.496003 0.791198 -0.358236
H40   H     H_    0.752430 0.435123 0.782096 0.161475
H41   H     H_    0.734340 0.527783 0.713792 0.183146
H42   H     H_    0.687627 0.497286 0.817052 0.194784
H43   H     H_    0.703638 0.124117 0.483220 0.161439
H44   H     H_    0.642156 0.809454 0.427447 0.188041
H45   H     H_    0.203633 0.624123 0.483209 0.161435
H46   H     H_    0.142135 0.309421 0.427467 0.188031
O25   O     O_3   0.438097 0.789207 0.288062 -0.599119
C97   C     C_3   0.417955 0.807870 0.178364 -0.292119
H47   H     H_    0.385394 0.860065 0.167985 0.157464
H48   H     H_    0.390528 0.759664 0.133432 0.151699
H49   H     H_    0.464893 0.819782 0.142460 0.187992
O26   O     O_3   0.357995 0.124717 0.216428 -0.604250
C98   C     C_3   0.394930 0.178344 0.164368 -0.294245
H50   H     H_    0.435295 0.207129 0.222554 0.156689
H51   H     H_    0.359752 0.221092 0.118976 0.152747
H52   H     H_    0.421468 0.148222 0.105532 0.190760
O27   O     O_3   0.938098 0.289207 0.288062 -0.599118
C99   C     C_3   0.917951 0.307868 0.178364 -0.292122
H53   H     H_    0.885389 0.360062 0.167987 0.157458
H54   H     H_    0.890524 0.259661 0.133436 0.151712
H55   H     H_    0.964887 0.319781 0.142455 0.187994
O28   O     O_3   0.858010 0.624717 0.216444 -0.604235
C100  C     C_3   0.894774 0.678374 0.164145 -0.294305
H56   H     H_    0.935066 0.707389 0.222187 0.156462
H57   H     H_    0.859461 0.720930 0.118592 0.152853
H58   H     H_    0.921387 0.648235 0.105418 0.190803
H59   H     H_    0.766356 0.144946 0.371275 0.147530
H60   H     H_    0.676439 0.742697 0.313559 0.163049
H61   H     H_    0.266338 0.644959 0.371245 0.147532
H62   H     H_    0.176433 0.242693 0.313570 0.163062
H63   H     H_    0.357700 0.669368 0.272019 0.156374
H64   H     H_    0.238634 0.193160 0.180908 0.166450
H65   H     H_    0.857711 0.169360 0.272037 0.156382
H66   H     H_    0.738649 0.693178 0.180902 0.166389
O29   O     O_3   0.284912 0.965780 0.476274 -0.623449
C101  C     C_3   0.244404 0.986572 0.377638 -0.338728
H67   H     H_    0.188846 0.973031 0.375875 0.160662
H68   H     H_    0.263941 0.959061 0.309061 0.172300
H69   H     H_    0.247879 0.048861 0.367347 0.207907
O30   O     O_3   0.436503 0.221007 0.602025 -0.559060
C102  C     C_3   0.456967 0.287884 0.552652 -0.295115
H70   H     H_    0.444855 0.284690 0.463383 0.133666
H71   H     H_    0.513296 0.294691 0.573274 0.208095
H72   H     H_    0.433134 0.339568 0.582024 0.148880
O31   O     O_3   0.784912 0.465775 0.476275 -0.623439
C103  C     C_3   0.744405 0.486564 0.377637 -0.338726
H73   H     H_    0.688846 0.473031 0.375879 0.160652
H74   H     H_    0.763937 0.459045 0.309063 0.172285
H75   H     H_    0.747885 0.548852 0.367335 0.207914
O32   O     O_3   0.936479 0.721014 0.602164 -0.558963
C104  C     C_3   0.956982 0.787675 0.552304 -0.295018
H76   H     H_    0.945682 0.783690 0.463055 0.134037
H77   H     H_    0.013190 0.795028 0.574082 0.208364
H78   H     H_    0.932496 0.839460 0.580170 0.148105
H79   H     H_    0.657063 0.010600 0.306756 0.130487
H80   H     H_    0.157062 0.510610 0.306756 0.130482

loop_
_geom_bond_atom_site_label_1
_geom_bond_atom_site_label_2
_ccdc_geom_bond_type
C90   H22   S    
C40   O10   A    
O29   C101  S    
O28   C100  S    
C94   H33   S    
C11   C13   A    
C14   C18   A    
C57   N1    A    
C91   H25   S    
C72   C76   A    
C24   H46   S    
C34   H2    S    
O23   C95   S    
C75   H65   S    
C42   O16   A    
C90   H20   S    
C96   H41   S    
C98   H50   S    
C15   C19   A    
C59   N1    A    
C2    C29   S    
C9    C61   A    
C47   C55   A    
C16   C20   A    
C28   C68   A    
C91   H24   S    
C95   H37   S    
C43   H35   S    
C12   C64   A    
C103  H74   S    
C36   N4    A    
C11   C63   A    
C6    C22   A    
C20   C88   A    
C102  H72   S    
C49   C57   A    
C48   C56   A    
C45   C47   A    
C23   C67   A    
O14   Zn3   S    
C17   O29   S    
C29   C69   A    
C73   C77   A    
C22   C66   A    
C34   C52   A    
C1    O1    A    
C97   H49   S    
O27   C99   S    
C44   C46   A    
O30   C102  S    
C49   C51   A    
C93   H31   S    
C31   C87   A    
C70   C74   A    
C50   C52   A    
C14   H10   S    
C28   O20   S    
O10   Zn1   S    
C45   C49   A    
C30   C86   A    
C63   H15   S    
C29   C85   A    
C80   C84   A    
O16   Zn4   S    
C21   C65   A    
C31   C71   A    
C4    O4    A    
C25   O17   S    
C33   C59   A    
C90   H21   S    
C94   H34   S    
C34   C60   A    
C35   N3    A    
O24   C96   S    
C10   C62   A    
C1    O5    A    
C71   O27   S    
C60   H80   S    
C72   O28   S    
C30   C70   A    
C52   C54   A    
C38   C44   A    
C92   H26   S    
C96   H42   S    
C95   H38   S    
C53   C55   A    
C80   H60   S    
C46   C48   A    
C71   C75   A    
C6    C84   A    
C92   H27   S    
C100  H56   S    
C26   C66   A    
O31   C103  S    
C84   C88   A    
C25   C65   A    
C91   H23   S    
C32   C72   A    
C98   H51   S    
C3    O3    A    
C96   H40   S    
C53   O21   S    
C103  H73   S    
C16   H12   S    
C25   C61   A    
C77   H61   S    
C17   C85   A    
C39   O9    A    
C27   O19   S    
O7    Zn4   S    
C51   C53   A    
C58   N2    A    
C50   C58   A    
C37   C43   A    
C89   H18   S    
C100  H57   S    
C5    C83   A    
C5    C9    A    
C26   O18   S    
C33   H1    S    
C104  H77   S    
C95   H39   S    
C78   C82   A    
C35   H5    S    
C7    C11   A    
O25   C97   S    
C101  H69   S    
C77   C81   A    
C8    C12   A    
C78   H62   S    
C61   H13   S    
O3    Zn2   S    
C102  H70   S    
C13   H9    S    
C18   C86   A    
C41   O11   A    
C69   C73   A    
C43   C45   A    
O22   C94   S    
C59   H79   S    
O5    Zn3   S    
C28   C64   A    
C55   H7    S    
C97   H47   S    
C7    C81   A    
C74   H64   S    
C79   H59   S    
C47   N3    A    
C40   C65   S    
O8    Zn4   S    
C42   C67   S    
C44   H36   S    
C39   C66   S    
C93   H30   S    
C89   H19   S    
C99   H54   S    
C104  H76   S    
C92   H28   S    
C60   N2    A    
O26   C98   S    
C37   O23   S    
O17   C89   S    
C98   H52   S    
O1    Zn1   S    
O4    Zn2   S    
C38   O24   S    
C46   C50   A    
C41   C68   S    
C2    O2    A    
C21   H43   S    
C57   H3    S    
C35   C37   A    
C20   O32   S    
C4    O8    A    
C64   H16   S    
C76   C80   A    
C15   H11   S    
O20   C92   S    
C103  H75   S    
C83   C87   A    
C54   O22   S    
C76   H66   S    
O19   C91   S    
C54   C56   A    
O13   Zn3   S    
O18   C90   S    
C23   H45   S    
N1    Zn1   S    
C33   C51   A    
C40   O14   A    
N2    Zn2   S    
C19   C87   A    
C39   O13   A    
C13   C17   A    
C18   O30   S    
C69   O25   S    
C41   O15   A    
C99   H55   S    
C36   C38   A    
C89   H17   S    
C9    C15   A    
C100  H58   S    
N3    Zn3   S    
C82   C86   A    
O21   C93   S    
C104  H78   S    
C101  H68   S    
O6    Zn3   S    
C2    O6    A    
C70   O26   S    
O32   C104  S    
C48   N4    A    
C10   C16   A    
C75   C79   A    
C7    C23   A    
C26   C62   A    
C73   H63   S    
C97   H48   S    
C1    C30   S    
C8    C24   A    
O12   Zn2   S    
C56   H8    S    
C3    C32   S    
C81   C85   A    
C4    C31   S    
C27   C67   A    
C6    C10   A    
C24   C68   A    
O2    Zn1   S    
C79   C83   A    
O11   Zn2   S    
C36   H6    S    
C12   C14   A    
C8    C82   A    
C5    C21   A    
C101  H67   S    
C74   C78   A    
O15   Zn4   S    
C94   H32   S    
C42   O12   A    
C102  H71   S    
C93   H29   S    
C27   C63   A    
C3    O7    A    
N4    Zn4   S    
C19   O31   S    
C99   H53   S    
O9    Zn1   S    
C58   H4    S    
C22   H44   S    
C62   H14   S    
C32   C88   A    
