data_mof_unit_14161.cif
_audit_creation_date              2013-03-05T16:14:04-0500
_audit_creation_method            fapswitch 2.2
_symmetry_space_group_name_H-M    P1
_symmetry_Int_Tables_number       1
_space_group_crystal_system       triclinic
_cell_length_a                    9.951847
_cell_length_b                    10.658149
_cell_length_c                    16.5931
_cell_angle_alpha                 88.253083
_cell_angle_beta                  93.76728
_cell_angle_gamma                 90.269488
_cell_volume                      1755.37562811

loop_
_atom_site_label
_atom_site_type_symbol
_atom_site_description
_atom_site_fract_x
_atom_site_fract_y
_atom_site_fract_z
_atom_type_partial_charge
O1    O     O_R   0.614620 0.316750 0.500010 -0.561857
O2    O     O_R   0.385380 0.683250 0.499990 -0.548632
O3    O     O_R   0.385290 0.316780 0.500000 -0.594943
O4    O     O_R   0.614710 0.683220 0.500000 -0.587455
C1    C     C_R   0.499711 0.260301 0.500284 0.879885
C2    C     C_R   0.500146 0.739665 0.499198 0.898012
O5    O     O_R   0.627460 0.498830 0.616130 -0.662969
O6    O     O_R   0.372540 0.501170 0.383870 -0.627068
O7    O     O_R   0.398130 0.498850 0.616130 -0.531587
O8    O     O_R   0.601870 0.501150 0.383870 -0.536194
C3    C     C_R   0.516428 0.507229 0.653160 0.930081
C4    C     C_R   0.484014 0.493023 0.346848 0.946598
Zn1   Zn    Zn3+2 0.653130 0.499980 0.500000 1.064414
Zn2   Zn    Zn3+2 0.346870 0.500020 0.500000 1.082483
C5    C     C_R   0.523002 0.538715 0.738295 -0.255575
C6    C     C_R   0.480855 0.465429 0.261236 -0.253472
C7    C     C_R   0.425237 0.618140 0.768399 0.202976
C8    C     C_R   0.581607 0.388857 0.231499 0.209999
C9    C     C_R   0.427860 0.640074 0.851637 0.154778
C10   C     C_R   0.589590 0.378706 0.147735 0.139241
C11   C     C_R   0.521768 0.573565 0.903408 0.026070
C12   C     C_R   0.493618 0.441129 0.095637 0.050218
C13   C     C_R   0.631703 0.512692 0.871679 0.500386
C14   C     C_R   0.381075 0.497880 0.126295 0.502751
C15   C     C_R   0.629328 0.492913 0.789532 -0.349161
C16   C     C_R   0.379701 0.516583 0.208599 -0.370782
N1    N     N_2   0.501708 0.562657 0.986466 -0.067946
N2    N     N_2   0.515355 0.452419 0.012855 -0.076641
H1    H     H_    0.709288 0.439220 0.766426 0.181946
H2    H     H_    0.302072 0.573960 0.230787 0.194792
C17   C     C_R   0.388908 0.065660 0.463257 -0.087091
C18   C     C_R   0.610320 0.934260 0.535795 -0.094944
H3    H     H_    0.304055 0.116463 0.434144 0.183424
H4    H     H_    0.695004 0.883614 0.565227 0.183704
C19   C     C_R   0.389319 0.937009 0.462737 -0.120827
C20   C     C_R   0.609951 0.062735 0.536100 -0.127799
H5    H     H_    0.304468 0.888524 0.433498 0.192686
H6    H     H_    0.694669 0.110937 0.565208 0.187154
C21   C     C_R   0.500174 0.872199 0.498947 -0.007608
C22   C     C_R   0.499280 0.127694 0.500045 0.000455
C23   C     C_R   0.069381 0.594260 0.460944 0.442867
C24   C     C_R   0.931672 0.401859 0.534625 0.416628
C25   C     C_R   0.925713 0.598872 0.466193 0.140652
C26   C     C_R   0.075000 0.402647 0.535285 0.186467
N3    N     N_R   0.857210 0.499970 0.500020 -0.196182
N4    N     N_R   0.142790 0.500030 0.499980 -0.193035
N5    N     N_R   0.668354 0.314427 0.286067 0.258739
O9    O     O_R   0.621000 0.214807 0.321610 -0.381776
O10   O     O_R   0.789887 0.352412 0.306426 -0.343396
N6    N     N_R   0.322074 0.674658 0.715019 0.262798
O11   O     O_R   0.353271 0.761458 0.662675 -0.364183
O12   O     O_R   0.195994 0.648971 0.724400 -0.362287
N7    N     N_R   0.694537 0.306798 0.115276 0.243316
O13   O     O_R   0.668669 0.240408 0.051534 -0.334959
O14   O     O_R   0.817678 0.311869 0.146536 -0.370460
N8    N     N_R   0.339089 0.731756 0.882328 0.229383
O15   O     O_R   0.309474 0.727731 0.957495 -0.341274
O16   O     O_R   0.303910 0.830985 0.838459 -0.329728
O17   O     O_3   0.738182 0.464820 0.920969 -0.597560
C27   C     C_3   0.810979 0.564503 0.958163 0.078486
H7    H     H_    0.862588 0.526311 0.014673 0.174290
H8    H     H_    0.745791 0.641268 0.977444 0.150339
C28   C     C_3   0.915731 0.618204 0.902629 -0.427373
H9    H     H_    0.993718 0.546324 0.894335 0.245574
H10   H     H_    0.866409 0.643625 0.842370 0.240471
C29   C     C_3   0.982350 0.735679 0.937402 -0.757181
H11   H     H_    0.905568 0.808741 0.945559 0.248301
H12   H     H_    0.054559 0.774154 0.894844 0.319075
H13   H     H_    0.036976 0.713207 0.996534 0.279508
O18   O     O_3   0.276541 0.542657 0.074821 -0.583203
C30   C     C_3   0.174950 0.449585 0.067513 0.075734
H14   H     H_    0.078837 0.499020 0.053247 0.169269
H15   H     H_    0.162589 0.394100 0.124800 0.151870
C31   C     C_3   0.198094 0.362341 0.997985 -0.377084
H16   H     H_    0.211808 0.419285 0.941845 0.251138
H17   H     H_    0.290278 0.305727 0.012619 0.240412
C32   C     C_3   0.079668 0.272564 0.983441 -0.824682
H18   H     H_    0.065267 0.213872 0.038700 0.291288
H19   H     H_    0.100110 0.209871 0.933476 0.271419
H20   H     H_    0.985800 0.325609 0.966543 0.288377
O19   O     O_3   0.139548 0.684262 0.418213 -0.594530
C33   C     C_3   0.089334 0.705064 0.336512 0.093427
H21   H     H_    0.173726 0.746141 0.303779 0.159013
H22   H     H_    0.010983 0.778884 0.332553 0.220459
C34   C     C_3   0.039520 0.587438 0.290774 -0.397402
H23   H     H_    0.118691 0.514269 0.294546 0.231243
H24   H     H_    0.949814 0.546144 0.317336 0.268751
C35   C     C_3   0.998254 0.621159 0.202638 -0.878417
H25   H     H_    0.916666 0.692285 0.198842 0.285887
H26   H     H_    0.959672 0.536059 0.171870 0.282181
H27   H     H_    0.085369 0.659226 0.171187 0.269019
O20   O     O_3   0.867792 0.297240 0.565553 -0.574854
C36   C     C_3   0.850847 0.309430 0.649074 0.095574
H28   H     H_    0.741300 0.306008 0.657139 0.168900
H29   H     H_    0.892030 0.398457 0.674982 0.123876
C37   C     C_3   0.913187 0.197301 0.697669 -0.326215
H30   H     H_    0.875457 0.108277 0.671211 0.242143
H31   H     H_    0.024117 0.199350 0.695765 0.290205
C38   C     C_3   0.878573 0.199326 0.785912 -0.898783
H32   H     H_    0.916310 0.287264 0.813829 0.275930
H33   H     H_    0.926509 0.118114 0.819856 0.284045
H34   H     H_    0.767854 0.192842 0.790396 0.278745
N9    N     N_R   0.853720 0.708168 0.436433 0.228719
O21   O     O_R   0.888711 0.817511 0.463774 -0.367123
O22   O     O_R   0.770508 0.702080 0.372865 -0.379815
N10   N     N_R   0.148042 0.297706 0.570947 0.235107
O23   O     O_R   0.225878 0.311522 0.636099 -0.382039
O24   O     O_R   0.120586 0.185165 0.546286 -0.355585

loop_
_geom_bond_atom_site_label_1
_geom_bond_atom_site_label_2
_geom_bond_distance
_ccdc_geom_bond_type
C9    N8    1.446449 S    
C29   H12   1.108825 S    
C28   H10   1.111016 S    
C36   H28   1.107368 S    
C8    N5    1.433302 S    
O19   C33   1.424926 S    
C14   O18   1.379328 S    
N5    O10   1.300341 A    
N7    O13   1.301440 A    
N8    O15   1.299705 A    
C13   O17   1.384888 S    
C31   H17   1.109807 S    
C27   C28   1.533597 S    
O1    C1    1.289866 A    
C18   C20   1.369499 A    
C9    C11   1.406221 A    
C14   C16   1.387103 A    
C5    C15   1.393598 A    
C29   H13   1.110148 S    
N10   O23   1.299625 A    
C37   C38   1.526886 S    
C17   C22   1.394956 A    
C27   H8    1.113939 S    
C18   C21   1.393801 A    
O4    Zn1   1.991838 S    
C3    C5    1.459118 S    
C4    C6    1.457745 S    
C31   C32   1.526074 S    
C37   H31   1.106578 S    
N6    O12   1.301297 A    
C23   N4    1.366375 A    
C17   H3    1.083692 S    
O18   C30   1.415162 S    
C8    C10   1.404841 A    
C32   H18   1.110873 S    
C34   H24   1.105050 S    
C29   H11   1.110950 S    
C11   N1    1.406754 S    
C28   C29   1.525158 S    
O17   C27   1.417212 S    
C36   H29   1.118560 S    
C12   N2    1.406001 S    
C15   H1    1.079566 S    
C23   C25   1.439273 A    
O2    C2    1.288882 A    
C24   C26   1.425690 A    
C26   N4    1.372543 A    
O5    C3    1.303854 A    
N7    O14   1.300509 A    
C6    C16   1.390710 A    
C31   H16   1.111843 S    
C20   C22   1.394859 A    
O4    C2    1.290718 A    
C30   H15   1.117516 S    
C34   H23   1.108682 S    
C27   H7    1.106401 S    
Zn2   N4    2.030952 S    
C24   N3    1.373701 A    
C18   H4    1.083626 S    
C19   C21   1.396412 A    
O7    Zn2   1.960350 S    
C25   N3    1.377832 A    
N5    O9    1.300348 A    
C35   H27   1.109856 S    
O6    C4    1.307415 A    
C23   O19   1.388453 S    
C37   H30   1.111029 S    
N6    O11   1.300137 A    
C32   H19   1.110160 S    
N9    O22   1.300563 A    
O7    C3    1.295689 A    
O3    Zn2   1.991840 S    
O8    C4    1.291568 A    
C38   H33   1.110351 S    
C35   H26   1.109028 S    
C16   H2    1.077919 S    
C36   C37   1.531587 S    
C33   H22   1.107806 S    
C11   C13   1.413603 A    
C12   C14   1.406792 A    
O1    Zn1   1.988371 S    
N9    O21   1.301107 A    
C34   C35   1.525450 S    
C5    C7    1.417784 A    
O6    Zn2   1.960049 S    
C19   H5    1.082972 S    
C10   C12   1.401637 A    
C10   N7    1.440457 S    
O3    C1    1.290189 A    
O8    Zn1   1.960350 S    
C7    N6    1.433613 S    
C30   C31   1.533312 S    
C26   N10   1.428393 S    
C33   C34   1.547960 S    
C38   H32   1.111020 S    
C20   H6    1.079618 S    
C30   H14   1.102689 S    
Zn1   N3    2.030952 S    
C32   H20   1.109857 S    
N10   O24   1.301154 A    
C17   C19   1.371500 A    
O20   C36   1.416985 S    
C7    C9    1.406374 A    
N8    O16   1.301544 A    
C24   O20   1.382808 S    
C13   C15   1.384259 A    
O2    Zn2   1.988369 S    
C25   N9    1.428436 S    
C28   H9    1.110978 S    
O5    Zn1   1.960049 S    
C38   H34   1.110916 S    
C35   H25   1.110877 S    
C6    C8    1.418495 A    
C33   H21   1.110871 S    
C1    C22   1.413457 S    
N1    N2    1.246178 D    
C2    C21   1.412444 S    
