data_mof_unit_18404.cif
_audit_creation_date              2012-12-10T18:55:11-0500
_audit_creation_method            fapswitch 2.2
_symmetry_space_group_name_H-M    P1
_symmetry_Int_Tables_number       1
_space_group_crystal_system       triclinic
_cell_length_a                    10.732621
_cell_length_b                    9.892372
_cell_length_c                    27.69971
_cell_angle_alpha                 89.971499
_cell_angle_beta                  92.395633
_cell_angle_gamma                 89.940309
_cell_volume                      2938.33578821

loop_
_atom_site_label
_atom_site_type_symbol
_atom_type_description
_atom_site_fract_x
_atom_site_fract_y
_atom_site_fract_z
_atom_type_partial_charge
Br1   Br    Br    0.450545 0.224261 0.240969 -0.442151
Br2   Br    Br    0.501219 0.205673 0.755488 -0.430704
Br3   Br    Br    0.435851 0.789513 0.752856 -0.416180
Br4   Br    Br    0.593497 0.790049 0.249729 -0.420695
C1    C     C_R   0.260086 0.500395 0.500825 0.865222
C2    C     C_R   0.373880 0.540149 0.872254 -0.040443
C3    C     C_R   0.512799 0.500363 0.353605 -0.147195
C4    C     C_R   0.483986 0.498154 0.646366 -0.147096
C5    C     C_R   0.382655 0.560134 0.973798 0.034310
C6    C     C_R   0.613631 0.529930 0.025785 0.032092
C7    C     C_R   0.606569 0.507692 0.975276 0.002211
C8    C     C_R   0.385038 0.545404 0.024781 0.027390
C9    C     C_R   0.492089 0.527761 0.949213 0.031101
C10   C     C_R   0.501088 0.534907 0.050682 0.036193
C11   C     C_R   0.275241 0.603882 0.946185 0.183400
C12   C     C_R   0.739890 0.500329 0.499038 0.865859
C13   C     C_R   0.728697 0.545611 0.052545 0.180654
C14   C     C_R   0.270053 0.586233 0.896185 -0.202582
C15   C     C_R   0.731323 0.536105 0.102787 -0.192418
C16   C     C_R   0.503052 0.499976 0.406109 0.909176
C17   C     C_R   0.496174 0.499689 0.593899 0.909761
C18   C     C_R   0.274930 0.532853 0.050301 -0.248245
C19   C     C_R   0.708455 0.456522 0.950709 -0.183470
C20   C     C_R   0.063607 0.379549 0.501696 -0.200018
C21   C     C_R   0.935882 0.625407 0.499467 -0.176647
C22   C     C_R   0.936485 0.379618 0.496954 -0.201056
C23   C     C_R   0.504815 0.528100 0.101680 -0.097747
C24   C     C_R   0.063876 0.625436 0.500505 -0.177733
C25   C     C_R   0.872378 0.501914 0.497971 -0.009569
C26   C     C_R   0.127553 0.501940 0.501526 -0.009060
C27   C     C_R   0.574978 0.072283 0.532422 0.166828
C28   C     C_R   0.424916 0.927445 0.467625 0.156269
C29   C     C_R   0.425197 0.072445 0.467525 0.169129
C30   C     C_R   0.575563 0.927276 0.532227 0.158283
C31   C     C_R   0.401566 0.521467 0.177789 0.596428
C32   C     C_R   0.587237 0.479507 0.822695 0.583184
C33   C     C_R   0.623926 0.513140 0.177670 0.612264
C34   C     C_R   0.486991 0.515137 0.898350 -0.083137
C35   C     C_R   0.368784 0.525359 0.822119 0.610690
C36   C     C_R   0.552723 0.622460 0.280096 0.308393
C37   C     C_R   0.454851 0.618948 0.721032 0.307293
C38   C     C_R   0.551363 0.617718 0.330171 -0.271112
C39   C     C_R   0.457680 0.617746 0.670961 -0.272215
C40   C     C_R   0.484692 0.383865 0.326568 -0.227222
C41   C     C_R   0.495578 0.376409 0.672140 -0.230416
C42   C     C_R   0.489273 0.386272 0.276479 0.299326
C43   C     C_R   0.487508 0.375295 0.722106 0.299243
C44   C     C_R   0.520725 0.506714 0.253058 0.168026
C45   C     C_R   0.392962 0.524734 0.126934 -0.054736
C46   C     C_R   0.470472 0.497397 0.746883 0.170497
C47   C     C_3   0.780992 0.140745 0.564892 -0.745199
C48   C     C_3   0.369428 0.858314 0.384632 -0.677744
C49   C     C_3   0.220004 0.139705 0.433683 -0.750867
C50   C     C_3   0.638019 0.858718 0.614747 -0.686048
C51   C     C_3   0.120033 0.374499 0.129468 -0.652505
C52   C     C_3   0.917182 0.465327 0.875335 -0.670381
C53   C     C_3   0.212230 0.813744 0.982472 -0.739288
C54   C     C_3   0.839040 0.725130 0.014063 -0.750602
C55   C     C_R   0.594572 0.477559 0.873590 -0.086463
C56   C     C_R   0.277317 0.523993 0.100574 0.225672
C57   C     C_R   0.704669 0.441861 0.900695 0.224683
C58   C     C_R   0.620884 0.523964 0.127401 -0.043049
H1    H     H_    0.457751 0.291548 0.344084 0.179503
H2    H     H_    0.887319 0.721422 0.499634 0.147708
H3    H     H_    0.888968 0.284142 0.493003 0.162822
H4    H     H_    0.112320 0.721463 0.500800 0.148584
H5    H     H_    0.615956 0.137047 0.602341 0.225806
H6    H     H_    0.823044 0.075384 0.593697 0.223025
H7    H     H_    0.818878 0.243776 0.570919 0.255290
H8    H     H_    0.808996 0.101498 0.529356 0.214355
H9    H     H_    0.250557 0.859767 0.442831 0.214681
H10   H     H_    0.306034 0.930149 0.365168 0.226424
H11   H     H_    0.351816 0.757237 0.368559 0.255097
H12   H     H_    0.511128 0.282033 0.653694 0.181401
H13   H     H_    0.467438 0.888583 0.378997 0.232765
H14   H     H_    0.386942 0.137125 0.397595 0.224955
H15   H     H_    0.180193 0.074115 0.404524 0.225314
H16   H     H_    0.181376 0.242440 0.427430 0.255760
H17   H     H_    0.190480 0.099962 0.468949 0.214868
H18   H     H_    0.751429 0.859195 0.554964 0.214031
H19   H     H_    0.705553 0.927375 0.633490 0.226343
H20   H     H_    0.653537 0.756780 0.630455 0.253867
H21   H     H_    0.541991 0.893640 0.621723 0.232690
H22   H     H_    0.092880 0.573960 0.109252 0.216191
H23   H     H_    0.440185 0.710718 0.651443 0.192489
H24   H     H_    0.034085 0.373730 0.150437 0.255255
H25   H     H_    0.192413 0.313331 0.149332 0.276747
H26   H     H_    0.098665 0.328287 0.093498 0.199454
H27   H     H_    0.790970 0.314490 0.851289 0.286570
H28   H     H_    0.995065 0.405639 0.860959 0.250802
H29   H     H_    0.948077 0.505949 0.911230 0.213217
H30   H     H_    0.895043 0.550563 0.850293 0.274971
H31   H     H_    0.094099 0.676862 0.947422 0.219063
H32   H     H_    0.133016 0.861945 0.000417 0.234116
H33   H     H_    0.235867 0.875851 0.950688 0.252138
H34   H     H_    0.579489 0.706305 0.350665 0.191147
H35   H     H_    0.293258 0.811230 0.008734 0.257115
H36   H     H_    0.921213 0.559721 0.048681 0.216041
H37   H     H_    0.925363 0.746592 0.994935 0.235454
H38   H     H_    0.834805 0.794004 0.045645 0.249923
H39   H     H_    0.758312 0.745085 0.988646 0.257707
H40   H     H_    0.186123 0.615975 0.875755 0.189768
H41   H     H_    0.820224 0.544049 0.122633 0.186914
H42   H     H_    0.185175 0.522013 0.031637 0.173339
H43   H     H_    0.790537 0.419029 0.970307 0.180982
H44   H     H_    0.111237 0.283898 0.505085 0.163238
N1    N     N_R   0.515437 0.513030 0.201551 -0.340129
N2    N     N_2   0.809218 0.379481 0.879747 -0.297300
N3    N     N_2   0.177611 0.678484 0.967216 -0.332320
N4    N     N_2   0.839644 0.585768 0.029945 -0.329939
N5    N     N_R   0.475037 0.498970 0.798503 -0.331291
N6    N     N_R   0.500000 0.857200 0.500000 -0.131487
N7    N     N_R   0.500000 0.142800 0.500000 -0.132303
N8    N     N_2   0.646756 0.145625 0.567781 -0.244389
N9    N     N_2   0.343722 0.853559 0.435525 -0.258249
N10   N     N_2   0.354422 0.145892 0.431863 -0.244832
N11   N     N_2   0.659072 0.853344 0.563490 -0.256984
N12   N     N_2   0.162157 0.512249 0.123906 -0.252450
O1    O     O_R   0.316770 0.614620 0.500000 -0.618947
O2    O     O_2   0.690882 0.466620 0.797195 -0.544170
O3    O     O_2   0.259186 0.539826 0.796891 -0.531192
O4    O     O_2   0.734257 0.503590 0.202710 -0.524984
O5    O     O_R   0.683230 0.385380 0.500000 -0.602881
O6    O     O_R   0.683230 0.614620 0.500000 -0.619035
O7    O     O_R   0.316770 0.385380 0.500000 -0.603594
O8    O     O_R   0.500030 0.614650 0.428760 -0.598511
O9    O     O_R   0.499970 0.385350 0.571240 -0.609240
O10   O     O_R   0.499970 0.614650 0.571240 -0.597792
O11   O     O_R   0.500030 0.385350 0.428760 -0.607386
O12   O     O_2   0.297963 0.527784 0.203664 -0.497566
Zn1   Zn    Zn3+2 0.500000 0.653120 0.500000 0.981218
Zn2   Zn    Zn3+2 0.500000 0.346880 0.500000 0.988238

loop_
_geom_bond_atom_site_label_1
_geom_bond_atom_site_label_2
_ccdc_geom_bond_type
C11   C14   A    
H36   N4    S    
N7    Zn2   S    
O5    Zn2   S    
C30   N6    A    
C11   N3    S    
C24   H4    S    
C4    C39   A    
C16   O11   A    
C48   H13   S    
C13   N4    S    
C33   C58   A    
C21   C24   A    
C45   C56   A    
C1    O1    A    
C38   H34   S    
C49   H17   S    
H5    N8    S    
C20   C22   A    
C33   N1    A    
C18   C56   A    
Br1   C42   S    
C44   N1    S    
C15   C58   A    
C19   H43   S    
C8    C18   A    
C18   H42   S    
C14   H40   S    
C3    C38   A    
C7    C19   A    
C51   H26   S    
C57   N2    S    
C5    C9    A    
C4    C41   A    
C52   N2    S    
H14   N10   S    
O9    Zn2   S    
C15   H41   S    
C52   H29   S    
C53   N3    S    
Br4   C36   S    
C31   C45   A    
O1    Zn1   S    
C2    C34   A    
C56   N12   S    
C47   H8    S    
C10   C23   A    
C17   O9    A    
C27   N8    S    
C49   N10   S    
O11   Zn2   S    
C32   C55   A    
C30   N11   S    
C35   N5    A    
C28   N9    S    
C37   C39   A    
C50   H21   S    
C40   C42   A    
C43   C46   A    
C41   C43   A    
C40   H1    S    
C21   C25   A    
C2    C14   A    
C42   C44   A    
C55   C57   A    
C47   N8    S    
C39   H23   S    
C54   H38   S    
C48   H11   S    
C6    C10   A    
C12   C25   S    
C33   O4    S    
O6    Zn1   S    
C41   H12   S    
C21   H2    S    
C49   H15   S    
C16   O8    A    
C48   H10   S    
C23   C58   A    
C52   H30   S    
C53   H35   S    
C32   N5    A    
C4    C17   S    
C27   C30   A    
H9    N9    S    
C54   H39   S    
C3    C40   A    
C17   O10   A    
C31   O12   S    
C9    C34   A    
C8    C10   A    
C53   H32   S    
C20   H44   S    
O10   Zn1   S    
C37   C46   A    
C50   H20   S    
C1    C26   S    
C48   N9    S    
C36   C44   A    
H18   N11   S    
Br3   C37   S    
C29   N10   S    
C28   N6    A    
C54   N4    S    
C22   H3    S    
C12   O5    A    
C54   H37   S    
C36   C38   A    
Br2   C43   S    
C47   H7    S    
C29   N7    A    
C35   O3    S    
C28   C29   A    
C51   H24   S    
C24   C26   A    
C49   H16   S    
C5    C11   A    
C7    C9    A    
O7    Zn2   S    
O8    Zn1   S    
H27   N2    S    
C52   H28   S    
C46   N5    S    
C13   C15   A    
C47   H6    S    
N6    Zn1   S    
C51   H25   S    
C32   O2    S    
C5    C8    A    
C20   C26   A    
C31   N1    A    
C6    C7    A    
C34   C55   A    
C19   C57   A    
C22   C25   A    
H22   N12   S    
C3    C16   S    
C53   H33   S    
C50   N11   S    
C1    O7    A    
C2    C35   A    
C6    C13   A    
C12   O6    A    
C27   N7    A    
C50   H19   S    
C23   C45   A    
H31   N3    S    
C51   N12   S    
