data_mof_unit_15886.cif
_audit_creation_date              2012-12-11T18:21:58-0500
_audit_creation_method            fapswitch 2.2
_symmetry_space_group_name_H-M    P1
_symmetry_Int_Tables_number       1
_space_group_crystal_system       triclinic
_cell_length_a                    8.284767
_cell_length_b                    14.288797
_cell_length_c                    14.947017
_cell_angle_alpha                 95.580416
_cell_angle_beta                  97.854448
_cell_angle_gamma                 91.148443
_cell_volume                      1743.51391261

loop_
_atom_site_label
_atom_site_type_symbol
_atom_type_description
_atom_site_fract_x
_atom_site_fract_y
_atom_site_fract_z
_atom_type_partial_charge
Ba1   Ba    Ba6+2 0.833400 0.543310 0.453520 1.689574
Ba2   Ba    Ba6+2 0.356420 0.456770 0.546480 1.657522
C1    C     C_3   0.539342 0.885555 0.215371 -0.315433
C2    C     C_3   0.478816 0.783525 0.207700 0.305662
C3    C     C_3   0.395158 0.244747 0.268265 0.342993
C4    C     C_3   0.323063 0.147780 0.228861 -0.467110
C5    C     C_3   0.190447 0.251490 0.811341 0.268705
C6    C     C_3   0.280333 0.231025 0.903861 -0.304867
C7    C     C_3   0.603282 0.209898 0.741873 0.380897
C8    C     C_3   0.594519 0.109521 0.767518 -0.331349
C9    C     C_R   0.834242 0.448498 0.833041 0.018080
C10   C     C_R   0.903423 0.454180 0.925389 -0.039935
C11   C     C_R   0.045348 0.464151 0.111170 -0.039408
C12   C     C_3   0.017815 0.736885 0.197921 0.417071
C13   C     C_R   0.897448 0.414480 0.079950 -0.030699
C14   C     C_R   0.825497 0.412165 0.989955 -0.032753
C15   C     C_R   0.114212 0.471946 0.204433 -0.035824
C16   C     C_R   0.266948 0.517713 0.229278 -0.298641
C17   C     C_R   0.074803 0.529404 0.794566 0.037531
C18   C     C_R   0.141397 0.540601 0.888331 -0.038155
C19   C     C_R   0.057645 0.500274 0.953317 -0.004173
C20   C     C_R   0.289425 0.590443 0.919366 -0.031233
C21   C     C_R   0.359164 0.595538 0.010000 -0.104895
C22   C     C_R   0.281417 0.553644 0.074609 -0.030834
C23   C     C_3   0.991586 0.764042 0.101216 -0.361865
C24   C     C_R   0.127812 0.506472 0.046617 0.025084
C25   C     C_R   0.352675 0.557667 0.166401 -0.017392
C26   C     C_R   0.923695 0.482103 0.768993 -0.307520
C27   C     C_R   0.706739 0.937348 0.550459 -0.039080
C28   C     C_R   0.509451 0.802021 0.500247 0.059190
C29   C     C_R   0.355275 0.770199 0.456459 -0.286969
C30   C     C_R   0.244266 0.831611 0.417532 0.005850
C31   C     C_R   0.290026 0.926051 0.417751 -0.141274
C32   C     C_R   0.445387 0.959916 0.459940 0.002471
C33   C     C_R   0.555806 0.898904 0.503918 -0.020759
C34   C     C_3   0.216284 0.745019 0.645347 0.307478
C35   C     C_R   0.640602 0.092636 0.503967 -0.029187
C36   C     C_R   0.751043 0.032790 0.549204 -0.001691
C37   C     C_R   0.685280 0.188787 0.504026 -0.003776
C38   C     C_R   0.835581 0.224076 0.549459 -0.276247
C39   C     C_R   0.948085 0.164498 0.589685 0.028893
C40   C     C_R   0.905756 0.069098 0.590944 -0.132168
C41   C     C_R   0.488851 0.054933 0.460288 -0.047218
C42   C     C_3   0.231181 0.851530 0.666224 -0.381568
C43   C     C_3   0.974177 0.256352 0.357562 0.309215
C44   C     C_3   0.932432 0.151469 0.335743 -0.388957
C45   C     C_3   0.736282 0.673481 0.723456 0.289729
C46   C     C_3   0.791499 0.708535 0.823250 -0.276143
H1    H     H_    0.443807 0.769938 0.274674 -0.019632
H2    H     H_    0.336627 0.871105 0.719584 0.139700
H3    H     H_    0.249322 0.885443 0.604667 0.061258
H4    H     H_    0.118140 0.878217 0.690443 0.118523
H5    H     H_    0.872062 0.291226 0.386080 0.034163
H6    H     H_    0.085604 0.265603 0.408282 0.056170
H7    H     H_    0.813865 0.140472 0.290966 0.156918
H8    H     H_    0.925460 0.117618 0.398663 0.061837
H9    H     H_    0.027391 0.116272 0.300696 0.114655
H10   H     H_    0.843519 0.646979 0.693354 0.008827
H11   H     H_    0.643341 0.615532 0.719027 0.051383
H12   H     H_    0.646679 0.897615 0.268963 0.149053
H13   H     H_    0.893331 0.761371 0.828193 0.102027
H14   H     H_    0.835291 0.649412 0.861656 0.015397
H15   H     H_    0.370574 0.773582 0.154622 0.001306
H16   H     H_    0.441328 0.932597 0.233711 0.055867
H17   H     H_    0.308620 0.281393 0.308511 0.017985
H18   H     H_    0.303816 0.103876 0.283551 0.098356
H19   H     H_    0.203620 0.154591 0.186433 0.105237
H20   H     H_    0.406821 0.110872 0.186229 0.129088
H21   H     H_    0.574423 0.902812 0.149617 0.125985
H22   H     H_    0.020022 0.704175 0.053461 0.065371
H23   H     H_    0.233649 0.322331 0.798236 0.045212
H24   H     H_    0.413528 0.235730 0.905273 0.151392
H25   H     H_    0.248961 0.283373 0.958320 0.089470
H26   H     H_    0.246936 0.159202 0.919296 0.136100
H27   H     H_    0.705292 0.215608 0.702389 -0.023109
H28   H     H_    0.490686 0.223630 0.697761 0.114392
H29   H     H_    0.713030 0.091399 0.804861 0.149092
H30   H     H_    0.566266 0.059854 0.705150 0.069863
H31   H     H_    0.936656 0.674967 0.201270 0.093754
H32   H     H_    0.497788 0.101147 0.810837 0.142840
H33   H     H_    0.834211 0.376822 0.124470 0.157135
H34   H     H_    0.708907 0.375209 0.971778 0.123542
H35   H     H_    0.475223 0.633074 0.028443 0.099628
H36   H     H_    0.354808 0.625760 0.874182 0.117443
H37   H     H_    0.872251 0.473816 0.698040 0.071718
H38   H     H_    0.316676 0.698168 0.458457 0.040639
H39   H     H_    0.203652 0.973193 0.386349 0.070022
H40   H     H_    0.993856 0.023416 0.623005 0.074519
H41   H     H_    0.146639 0.717192 0.214516 -0.145604
H42   H     H_    0.869123 0.297611 0.548991 0.053369
H43   H     H_    0.791841 0.894280 0.587838 0.099323
H44   H     H_    0.400748 0.099288 0.427623 0.088214
H45   H     H_    0.862637 0.782526 0.082395 0.146098
H46   H     H_    0.072510 0.825372 0.095273 0.112105
H47   H     H_    0.332605 0.718825 0.626271 0.009524
H48   H     H_    0.115902 0.727526 0.588508 0.058796
O1    O     O_2   0.841230 0.444160 0.280430 -0.395846
O2    O     O_3   0.671480 0.748387 0.678190 -0.646454
O3    O     O_3   0.979838 0.812947 0.257560 -0.589232
O4    O     O_2   0.348480 0.555870 0.719620 -0.474536
O5    O     O_3   0.076830 0.552730 0.606300 -0.498292
O6    O     O_3   0.591760 0.384380 0.672320 -0.497270
O7    O     O_3   0.183548 0.706233 0.723402 -0.634735
O8    O     O_3   0.629090 0.386350 0.459240 -0.399147
O9    O     O_3   0.172520 0.335290 0.628920 -0.489054
O10   O     O_2   0.273556 0.166543 0.573619 -0.504143
O11   O     O_3   0.225657 0.182092 0.743446 -0.631373
O12   O     O_3   0.112860 0.447350 0.393710 -0.515258
O13   O     O_3   0.560610 0.613730 0.540770 -0.485422
O14   O     O_2   0.387460 0.270290 0.467210 -0.480256
O15   O     O_3   0.549535 0.233930 0.318510 -0.622074
O16   O     O_2   0.492160 0.439874 0.829396 -0.503375
O17   O     O_3   0.624185 0.274043 0.820435 -0.596547
O18   O     O_3   0.597940 0.615700 0.327690 -0.456862
O19   O     O_2   0.694070 0.550938 0.172254 -0.469561
O20   O     O_3   0.000387 0.293795 0.277515 -0.638566
O21   O     O_3   0.602133 0.724727 0.182139 -0.596545
O22   O     O_2   0.802240 0.729740 0.532850 -0.470389
O23   O     O_3   0.017180 0.664790 0.371080 -0.504014
O24   O     O_2   0.907512 0.832451 0.422252 -0.477804
P1    P     P_3+3 0.018600 0.416790 0.295970 0.992316
P2    P     P_3+3 0.635660 0.716530 0.560900 0.975780
P3    P     P_3+3 0.037766 0.786441 0.369136 0.955585
P4    P     P_3+3 0.171090 0.583290 0.704030 0.973935
P5    P     P_3+3 0.153981 0.212984 0.633812 0.912463
P6    P     P_3+3 0.560434 0.611149 0.209203 0.994774
P7    P     P_3+3 0.561223 0.268258 0.436060 0.995432
P8    P     P_3+3 0.633977 0.389324 0.789704 0.944061
C47   C     C_1   0.657808 0.751730 0.865839 0.306503
N1    N     N_1   0.552913 0.786201 0.899482 -0.305999
C48   C     C_2   0.414075 0.300809 0.189854 0.578752
H49   H     H_    0.307164 0.315639 0.143523 -0.124551
O25   O     O_2   0.547850 0.329680 0.177061 -0.553266
C49   C     C_2   0.010557 0.252631 0.814623 0.521978
H50   H     H_    0.935534 0.283908 0.761612 -0.138302
O26   O     O_2   0.948842 0.220106 0.875103 -0.590176
C50   C     C_2   0.346197 0.513865 0.321376 0.564672
H51   H     H_    0.320545 0.564892 0.375177 -0.009055
O27   O     O_2   0.442577 0.452948 0.337443 -0.541922

loop_
_geom_bond_atom_site_label_1
_geom_bond_atom_site_label_2
_ccdc_geom_bond_type
C19   C24   A    
Ba2   O13   S    
C23   H45   S    
C39   C40   A    
C17   C18   A    
C34   H47   S    
C22   C25   A    
O12   P1    S    
C8    H30   S    
C5    C6    S    
C13   H33   S    
O17   P8    S    
C1    H16   S    
C50   O27   D    
C2    H15   S    
C4    H18   S    
O19   P6    D    
C21   H35   S    
C28   C33   A    
C34   O7    S    
C1    H21   S    
C22   C24   A    
Ba1   Ba2   S    
O6    P8    S    
C5    H23   S    
C28   C29   A    
O18   P6    S    
C25   P6    S    
O13   P2    S    
Ba2   O6    S    
C13   C14   A    
C32   C33   A    
Ba1   O23   S    
Ba1   P2    S    
O1    P1    D    
Ba1   O13   S    
C28   P2    S    
C44   H7    S    
C21   C22   A    
C2    O21   S    
C7    H28   S    
C7    C8    S    
O24   P3    D    
O14   P7    D    
C1    H12   S    
C42   H4    S    
C4    H20   S    
Ba2   O4    S    
C23   H46   S    
C29   H38   S    
C30   P3    S    
C10   C14   A    
O7    P4    S    
C14   H34   S    
C8    H29   S    
C31   C32   A    
C17   P4    S    
C6    H24   S    
O5    P4    S    
C37   P7    S    
O20   P1    S    
C32   C41   A    
C39   P5    S    
C12   O3    S    
O11   P5    S    
C5    C49   S    
C3    H17   S    
Ba1   O1    S    
C37   C38   A    
C8    H32   S    
C49   O26   D    
C3    O15   S    
Ba2   O5    S    
C43   C44   S    
C10   C19   A    
C43   H5    S    
O4    P4    D    
C20   H36   S    
C27   C36   A    
C16   C50   S    
C12   H41   S    
C35   C36   A    
C34   H48   S    
C46   H14   S    
C45   C46   S    
O10   P5    D    
Ba2   O8    S    
C6    H26   S    
C15   C16   A    
C12   H31   S    
C17   C26   A    
C45   O2    S    
Ba1   O8    S    
C42   H3    S    
C15   P1    S    
C38   C39   A    
C18   C20   A    
C43   H6    S    
Ba2   P4    S    
C11   C13   A    
C44   H9    S    
O15   P7    S    
C5    O11   S    
C11   C24   A    
C34   C42   S    
C40   H40   S    
Ba1   O18   S    
C48   H49   S    
Ba1   O5    S    
C27   H43   S    
O3    P3    S    
C47   N1    T    
O21   P6    S    
C42   H2    S    
O2    P2    S    
Ba2   O14   S    
C29   C30   A    
C16   C25   A    
C48   O25   D    
C9    C10   A    
C36   C40   A    
C49   H50   S    
O23   P3    S    
C50   H51   S    
C27   C33   A    
Ba2   O9    S    
C41   H44   S    
O9    P5    S    
C2    H1    S    
C7    O17   S    
C30   C31   A    
C9    P8    S    
C31   H39   S    
C35   C37   A    
C4    H19   S    
C45   H10   S    
C43   O20   S    
C46   H13   S    
C3    C4    S    
O8    P7    S    
C9    C26   A    
O22   P2    D    
Ba2   O12   S    
C6    H25   S    
Ba1   O22   S    
C12   C23   S    
C46   C47   S    
Ba1   P1    S    
O16   P8    D    
Ba1   O12   S    
C45   H11   S    
C11   C15   A    
C3    C48   S    
C18   C19   A    
C44   H8    S    
C26   H37   S    
C20   C21   A    
C23   H22   S    
C7    H27   S    
C38   H42   S    
C35   C41   A    
C1    C2    S    
