data_mof_unit_63849.cif
_audit_creation_date              2012-12-10T21:19:14-0500
_audit_creation_method            fapswitch 2.2
_symmetry_space_group_name_H-M    P1
_symmetry_Int_Tables_number       1
_space_group_crystal_system       triclinic
_cell_length_a                    15.749578
_cell_length_b                    17.533368
_cell_length_c                    16.863424
_cell_angle_alpha                 89.954875
_cell_angle_beta                  89.86547
_cell_angle_gamma                 91.089834
_cell_volume                      4655.86213575

loop_
_atom_site_label
_atom_site_type_symbol
_atom_type_description
_atom_site_fract_x
_atom_site_fract_y
_atom_site_fract_z
_atom_type_partial_charge
C1    C     C_R   0.499660 0.353945 0.500078 1.045698
C2    C     C_R   0.500340 0.646055 0.499922 1.045697
C3    C     C_R   0.577844 0.768244 0.505642 0.275801
C4    C     C_R   0.422156 0.231756 0.494361 0.275800
C5    C     C_R   0.500389 0.727875 0.499749 -0.328299
C6    C     C_R   0.499611 0.272125 0.500251 -0.328297
C7    C     C_R   0.422950 0.765547 0.493426 0.289717
C8    C     C_R   0.577051 0.234453 0.506570 0.289716
C9    C     C_R   0.422888 0.845005 0.493314 0.365376
C10   C     C_R   0.577112 0.154995 0.506683 0.365377
C11   C     C_R   0.500297 0.885474 0.499485 -0.256659
C12   C     C_R   0.499702 0.114526 0.500515 -0.256658
C13   C     C_1   0.500124 0.966131 0.499829 0.232596
C14   C     C_1   0.499876 0.033869 0.500171 0.232596
C15   C     C_R   0.447046 0.449834 0.833239 0.260485
C16   C     C_R   0.552954 0.550165 0.166761 0.260485
C17   C     C_R   0.447685 0.450539 0.748969 -0.109280
C18   C     C_R   0.552315 0.549460 0.251031 -0.109279
C19   C     C_R   0.552809 0.549139 0.748378 0.434689
C20   C     C_R   0.447191 0.450861 0.251622 0.434689
C21   C     C_R   0.553682 0.550145 0.832580 0.258042
C22   C     C_R   0.446318 0.449855 0.167420 0.258043
C23   C     C_R   0.337867 0.499818 0.500063 0.950124
C24   C     C_R   0.662133 0.500182 0.499937 0.950122
C25   C     C_R   0.500270 0.500148 0.875952 -0.152651
C26   C     C_R   0.499730 0.499852 0.124048 -0.152652
C27   C     C_1   0.500154 0.500116 0.963643 0.233937
C28   C     C_1   0.499846 0.499884 0.036357 0.233937
C29   C     C_3   0.971346 0.441825 0.544906 -0.218773
C30   C     C_3   0.028654 0.558174 0.455094 -0.218773
C31   C     C_3   0.028069 0.434119 0.470658 0.368246
C32   C     C_3   0.971931 0.565880 0.529342 0.368245
C33   C     C_1   0.249338 0.500188 0.500194 0.046745
C34   C     C_1   0.750662 0.499812 0.499806 0.046745
C35   C     C_3   0.027514 0.508880 0.574648 -0.216212
C36   C     C_3   0.972485 0.491119 0.425352 -0.216212
C37   C     C_3   0.083676 0.501201 0.500413 -0.088954
C38   C     C_3   0.916324 0.498799 0.499587 -0.088954
C39   C     C_1   0.174310 0.500686 0.500268 0.214450
C40   C     C_1   0.825690 0.499313 0.499732 0.214450
C41   C     C_R   0.577796 0.847725 0.505515 0.363880
C42   C     C_R   0.422203 0.152275 0.494488 0.363880
N1    N     N_R   0.500020 0.500030 0.707230 -0.211445
N2    N     N_R   0.499980 0.499970 0.292770 -0.211445
O1    O     O_R   0.500000 0.389130 0.566570 -0.612530
O2    O     O_R   0.500000 0.610870 0.433430 -0.612528
O3    O     O_R   0.499990 0.389100 0.433480 -0.569208
O4    O     O_R   0.500010 0.610900 0.566520 -0.569208
O5    O     O_R   0.376780 0.500010 0.566530 -0.610717
O6    O     O_R   0.623220 0.499990 0.433470 -0.610718
O7    O     O_R   0.376780 0.499980 0.433450 -0.573565
O8    O     O_R   0.623220 0.500020 0.566550 -0.573565
Zn1   Zn    Zn3+2 0.500000 0.500020 0.588860 1.080223
Zn2   Zn    Zn3+2 0.500000 0.499980 0.411140 1.080224
Cl1   Cl    Cl    0.067220 0.346928 0.431852 -0.354181
Cl2   Cl    Cl    0.932780 0.653071 0.568147 -0.354182
Cl3   Cl    Cl    0.621690 0.611839 0.696705 -0.374351
Cl4   Cl    Cl    0.378310 0.388161 0.303295 -0.374353
Cl5   Cl    Cl    0.622162 0.614159 0.883595 -0.352675
Cl6   Cl    Cl    0.377838 0.385841 0.116405 -0.352675
C43   C     C_2   0.940651 0.376173 0.595059 1.064417
O9    O     O_2   0.992213 0.335170 0.627171 -0.511397
O10   O     O_R   0.853676 0.362233 0.605022 -0.740664
H1    H     H_    0.841130 0.316374 0.640077 0.393414
C44   C     C_2   0.059349 0.623827 0.404941 1.064417
O11   O     O_2   0.007787 0.664829 0.372829 -0.511397
O12   O     O_R   0.146324 0.637766 0.394978 -0.740663
H2    H     H_    0.158870 0.683625 0.359922 0.393415
C45   C     C_2   0.942904 0.480744 0.341492 1.058739
O13   O     O_2   0.995183 0.475239 0.288247 -0.522474
O14   O     O_R   0.856136 0.477560 0.324540 -0.744375
H3    H     H_    0.844365 0.470659 0.265881 0.383181
C46   C     C_2   0.057096 0.519256 0.658508 1.058738
O15   O     O_2   0.004816 0.524760 0.711753 -0.522474
O16   O     O_R   0.143864 0.522439 0.675460 -0.744376
H4    H     H_    0.155635 0.529340 0.734119 0.383180
Cl7   Cl    Cl    0.674772 0.899721 0.512865 -0.323646
Cl8   Cl    Cl    0.325227 0.100279 0.487142 -0.323647
Cl9   Cl    Cl    0.674791 0.719219 0.512376 -0.411588
Cl10  Cl    Cl    0.325209 0.280781 0.487630 -0.411591
Cl11  Cl    Cl    0.326132 0.713145 0.486264 -0.467682
Cl12  Cl    Cl    0.673868 0.286855 0.513729 -0.467682
Cl13  Cl    Cl    0.325847 0.893570 0.485582 -0.343053
Cl14  Cl    Cl    0.674154 0.106430 0.514410 -0.343052
Cl15  Cl    Cl    0.379070 0.385593 0.885287 -0.405954
Cl16  Cl    Cl    0.620931 0.614406 0.114713 -0.405954
C47   C     C_2   0.391882 0.395950 0.706988 1.102171
O17   O     O_2   0.320060 0.414179 0.688599 -0.551649
O18   O     O_R   0.418834 0.321406 0.694732 -0.741849
H5    H     H_    0.374102 0.288282 0.667720 0.371903
C48   C     C_2   0.608118 0.604049 0.293012 1.102169
O19   O     O_2   0.679940 0.585821 0.311401 -0.551650
O20   O     O_R   0.581166 0.678593 0.305268 -0.741848
H6    H     H_    0.625899 0.711717 0.332281 0.371902

loop_
_geom_bond_atom_site_label_1
_geom_bond_atom_site_label_2
_ccdc_geom_bond_type
C24   O8    A    
C38   C40   S    
C47   O17   D    
O20   H6    S    
C46   O15   D    
C3    Cl9   S    
C2    O2    A    
O6    Zn2   S    
C34   C40   T    
C18   C48   S    
C35   C37   S    
C21   Cl5   S    
C22   Cl6   S    
C41   Cl7   S    
C23   O5    A    
C23   C33   S    
C43   O10   S    
C45   O14   S    
C12   C42   A    
N1    Zn1   S    
C3    C41   A    
C44   O12   S    
C29   C38   S    
C32   C38   S    
N2    Zn2   S    
C15   Cl15  S    
O1    Zn1   S    
C13   C14   T    
C16   Cl16  S    
C46   O16   S    
C45   O13   D    
C20   N2    A    
C19   N1    A    
C24   O6    A    
O4    Zn1   S    
C29   C43   S    
O12   H2    S    
C32   C35   S    
C4    C6    A    
C48   O19   D    
C5    C7    A    
C1    O3    A    
C6    C8    A    
C2    O4    A    
C19   Cl3   S    
C1    C6    S    
C30   C37   S    
O16   H4    S    
C17   N1    A    
C18   N2    A    
C48   O20   S    
C23   O7    A    
C29   C31   S    
O2    Zn2   S    
C33   C39   T    
O8    Zn1   S    
C9    C11   A    
C10   C12   A    
C9    Cl13  S    
O3    Zn2   S    
C16   C18   A    
C7    Cl11  S    
C12   C14   S    
C42   Cl8   S    
C47   O18   S    
C8    Cl12  S    
C2    C5    S    
C20   Cl4   S    
C36   C45   S    
C7    C9    A    
C21   C25   A    
C35   C46   S    
C19   C21   A    
C17   C47   S    
C20   C22   A    
C3    C5    A    
C16   C26   A    
C4    Cl10  S    
C25   C27   S    
C29   C35   S    
C26   C28   S    
C30   C36   S    
O7    Zn2   S    
C36   C38   S    
O14   H3    S    
C37   C39   S    
C30   C32   S    
C11   C13   S    
C1    O1    A    
C4    C42   A    
O5    Zn1   S    
C10   Cl14  S    
C11   C41   A    
C43   O9    D    
C24   C34   S    
C30   C44   S    
C15   C25   A    
O10   H1    S    
C31   C37   S    
C8    C10   A    
C44   O11   D    
C22   C26   A    
C27   C28   T    
C31   C36   S    
C31   Cl1   S    
O18   H5    S    
C15   C17   A    
C32   Cl2   S    
