data_mof_unit_20318.cif
_audit_creation_date              2012-12-10T20:44:04-0500
_audit_creation_method            fapswitch 2.2
_symmetry_space_group_name_H-M    P1
_symmetry_Int_Tables_number       1
_space_group_crystal_system       triclinic
_cell_length_a                    17.562753
_cell_length_b                    10.763718
_cell_length_c                    9.897157
_cell_angle_alpha                 90.535718
_cell_angle_beta                  91.993126
_cell_angle_gamma                 91.17308
_cell_volume                      1869.34510838

loop_
_atom_site_label
_atom_site_type_symbol
_atom_type_description
_atom_site_fract_x
_atom_site_fract_y
_atom_site_fract_z
_atom_type_partial_charge
C1    C     C_R   0.506431 0.260900 0.499243 0.876336
C2    C     C_R   0.112474 0.486104 0.483967 0.018480
C3    C     C_R   0.502727 0.066126 0.616808 0.066416
C4    C     C_R   0.353468 0.500699 0.498086 0.929179
C5    C     C_R   0.516268 0.129160 0.497074 -0.130861
C6    C     C_R   0.531895 0.061476 0.376949 0.066811
C7    C     C_R   0.524097 0.932798 0.379577 -0.251457
C8    C     C_R   0.507332 0.871817 0.499514 -0.075404
C9    C     C_R   0.497723 0.938784 0.617617 -0.023874
C10   C     C_3   0.540283 0.928356 0.750224 0.404566
C11   C     C_3   0.546600 0.069103 0.751059 -0.160865
C12   C     C_R   0.884693 0.483029 0.489046 -0.140568
C13   C     C_R   0.435160 0.470782 0.066228 0.111353
C14   C     C_R   0.559188 0.549451 0.078650 -0.132634
C15   C     C_R   0.559886 0.550908 0.935335 0.108128
C16   C     C_R   0.502353 0.739746 0.500391 0.919759
C17   C     C_R   0.434909 0.472061 0.924602 0.157516
C18   C     C_3   0.385089 0.358679 0.913266 0.449433
C19   C     C_3   0.386907 0.355133 0.067109 -0.563844
C20   C     C_R   0.646147 0.499920 0.501462 0.903316
C21   C     C_R   0.846788 0.415567 0.587119 0.604144
C22   C     C_R   0.768165 0.421941 0.592376 -0.356200
C23   C     C_1   0.964692 0.480193 0.485986 0.122303
C24   C     C_R   0.728216 0.497359 0.501600 -0.189494
C25   C     C_R   0.766557 0.563905 0.402781 -0.278270
C26   C     C_R   0.844977 0.556817 0.396463 0.583005
C27   C     C_3   0.628883 0.124370 0.757491 -0.303867
C28   C     C_3   0.677748 0.099989 0.633671 -0.308596
C29   C     C_3   0.761721 0.086136 0.674633 -0.778317
C30   C     C_3   0.625144 0.621993 0.876450 -0.333792
C31   C     C_3   0.698898 0.547413 0.875776 -0.353094
C32   C     C_3   0.745532 0.555029 0.009066 -0.811238
C33   C     C_3   0.110527 0.423597 0.233750 -0.424330
C34   C     C_1   0.032177 0.481243 0.484315 -0.000343
C35   C     C_3   0.080151 0.538518 0.160862 -0.334466
C36   C     C_3   0.037940 0.502589 0.028368 -0.762416
C37   C     C_3   0.562299 0.118606 0.248588 -0.374427
C38   C     C_3   0.641411 0.179446 0.274053 -0.331824
C39   C     C_3   0.673129 0.231413 0.144251 -0.854375
C40   C     C_R   0.151304 0.520256 0.604224 -0.256045
C41   C     C_R   0.230086 0.527219 0.609491 0.607065
C42   C     C_R   0.270498 0.498942 0.493442 -0.197058
C43   C     C_R   0.230993 0.466541 0.372182 -0.303902
C44   C     C_R   0.151636 0.459628 0.365886 0.138949
F1    F     F_    0.885842 0.344116 0.676925 -0.674676
F2    F     F_    0.609385 0.870603 0.738169 -0.700052
F3    F     F_    0.421070 0.259570 0.856374 -0.677026
F4    F     F_    0.882077 0.622055 0.301097 -0.676428
F5    F     F_    0.266204 0.563485 0.727263 -0.687618
H1    H     H_    0.534722 0.879478 0.288961 0.167746
H2    H     H_    0.120425 0.541953 0.694197 0.173815
H3    H     H_    0.261858 0.445971 0.282464 0.177944
H4    H     H_    0.782308 0.165984 0.738602 0.282320
H5    H     H_    0.769697 0.999014 0.732249 0.278630
H6    H     H_    0.796160 0.082022 0.582762 0.256891
H7    H     H_    0.658706 0.015147 0.576695 0.278900
H8    H     H_    0.672480 0.179685 0.564148 0.171617
H9    H     H_    0.625821 0.226465 0.773699 0.178545
H10   H     H_    0.657431 0.086667 0.849735 0.216854
H11   H     H_    0.754285 0.653137 0.042790 0.272460
H12   H     H_    0.504797 0.889235 0.831044 0.070851
H13   H     H_    0.717263 0.501320 0.088713 0.249422
H14   H     H_    0.802227 0.514005 0.994674 0.274588
H15   H     H_    0.685408 0.448320 0.851540 0.226830
H16   H     H_    0.735119 0.586047 0.795892 0.243733
H17   H     H_    0.609155 0.652166 0.774180 0.279190
H18   H     H_    0.635351 0.710469 0.933867 0.205859
H19   H     H_    0.076712 0.454631 0.959534 0.255613
H20   H     H_    0.988377 0.440411 0.048146 0.272997
H21   H     H_    0.016838 0.587519 0.977805 0.255998
H22   H     H_    0.040507 0.588700 0.226157 0.266565
H23   H     H_    0.512840 0.107477 0.833438 0.197339
H24   H     H_    0.128498 0.602581 0.138677 0.230510
H25   H     H_    0.149879 0.374823 0.166386 0.201535
H26   H     H_    0.063056 0.356926 0.253139 0.212857
H27   H     H_    0.682890 0.154673 0.071844 0.249665
H28   H     H_    0.633024 0.298307 0.097383 0.268206
H29   H     H_    0.728446 0.280076 0.167582 0.255727
H30   H     H_    0.638610 0.256602 0.348368 0.229751
H31   H     H_    0.681377 0.109485 0.315606 0.218329
H32   H     H_    0.567754 0.046036 0.168893 0.185156
H33   H     H_    0.521837 0.185055 0.203761 0.227181
H34   H     H_    0.605502 0.591296 0.139009 0.162088
H35   H     H_    0.327896 0.376431 0.866860 0.137962
H36   H     H_    0.330155 0.371088 0.108793 0.160659
H37   H     H_    0.738435 0.366911 0.665220 0.174163
H38   H     H_    0.417181 0.274406 0.109962 0.224044
H39   H     H_    0.735746 0.621319 0.330993 0.178156
N1    N     N_R   0.499490 0.499140 0.142800 -0.107879
N2    N     N_R   0.499490 0.499180 0.857150 -0.117412
O1    O     O_R   0.500010 0.316790 0.614690 -0.561626
O2    O     O_R   0.500000 0.316760 0.385350 -0.628905
O3    O     O_R   0.389120 0.500020 0.614710 -0.558317
O4    O     O_R   0.389110 0.499990 0.385370 -0.620071
O5    O     O_R   0.500000 0.683240 0.614650 -0.617470
O6    O     O_R   0.499990 0.683210 0.385310 -0.634252
O7    O     O_R   0.610890 0.500010 0.614630 -0.649774
O8    O     O_R   0.610880 0.499980 0.385290 -0.632099
Zn1   Zn    Zn3+2 0.500010 0.500020 0.653130 0.997239
Zn2   Zn    Zn3+2 0.499990 0.499980 0.346870 0.940471

loop_
_geom_bond_atom_site_label_1
_geom_bond_atom_site_label_2
_ccdc_geom_bond_type
C41   C42   A    
C35   C36   S    
C18   F3    S    
C28   H7    S    
C7    C8    A    
C28   H8    S    
C12   C23   S    
C29   H4    S    
C1    C5    S    
C39   H28   S    
C28   C29   S    
C19   H38   S    
C38   C39   S    
O5    Zn1   S    
C43   H3    S    
C29   H5    S    
C18   C19   S    
C33   H26   S    
C20   O7    A    
C20   C24   S    
C2    C44   A    
C8    C9    A    
C38   H31   S    
C10   F2    S    
C18   H35   S    
O4    Zn2   S    
C9    C10   S    
O3    Zn1   S    
C30   H18   S    
C26   F4    S    
C2    C34   S    
C35   H22   S    
C1    O1    A    
C21   C22   A    
C37   H32   S    
C14   H34   S    
C41   F5    S    
O7    Zn1   S    
C36   H21   S    
C21   F1    S    
C16   O6    A    
C13   C19   S    
N1    Zn2   S    
C39   H29   S    
C24   C25   A    
C7    H1    S    
C11   H23   S    
C29   H6    S    
C3    C5    A    
C25   C26   A    
C12   C21   A    
C25   H39   S    
C12   C26   A    
C43   C44   A    
C14   N1    A    
C37   C38   S    
C3    C9    A    
C31   C32   S    
C11   C27   S    
C30   C31   S    
C23   C34   T    
C17   C18   S    
C6    C37   S    
C39   H27   S    
C30   H17   S    
C4    O4    A    
C40   C41   A    
C1    O2    A    
O8    Zn2   S    
C22   C24   A    
C37   H33   S    
C10   H12   S    
C42   C43   A    
C32   H11   S    
N2    Zn1   S    
C36   H20   S    
O2    Zn2   S    
C15   C30   S    
C31   H16   S    
C35   H24   S    
C16   O5    A    
C13   N1    A    
C33   C44   S    
C31   H15   S    
C17   N2    A    
C32   H14   S    
C19   H36   S    
C27   H9    S    
C36   H19   S    
C6    C7    A    
C40   H2    S    
C13   C17   A    
C32   H13   S    
C27   H10   S    
C15   N2    A    
C5    C6    A    
C4    C42   S    
O6    Zn2   S    
C33   C35   S    
C22   H37   S    
C3    C11   S    
C10   C11   S    
C4    O3    A    
C2    C40   A    
C33   H25   S    
C20   O8    A    
C8    C16   S    
C38   H30   S    
C27   C28   S    
C14   C15   A    
O1    Zn1   S    
