data_mof_unit_16560.cif
_audit_creation_date              2012-12-10T17:22:54-0500
_audit_creation_method            fapswitch 2.2
_symmetry_space_group_name_H-M    P1
_symmetry_Int_Tables_number       1
_space_group_crystal_system       triclinic
_cell_length_a                    10.154008
_cell_length_b                    10.51295
_cell_length_c                    10.515205
_cell_angle_alpha                 89.710131
_cell_angle_beta                  95.360814
_cell_angle_gamma                 81.202681
_cell_volume                      1104.21234827

loop_
_atom_site_label
_atom_site_type_symbol
_atom_type_description
_atom_site_fract_x
_atom_site_fract_y
_atom_site_fract_z
_atom_type_partial_charge
C1    C     C_R   0.443714 0.507886 0.265031 0.887067
C2    C     C_R   0.556303 0.486758 0.735464 0.891589
C3    C     C_R   0.499637 0.257646 0.499336 0.882837
C4    C     C_R   0.500686 0.742379 0.501354 0.876856
C5    C     C_3   0.599292 0.027485 0.431422 -0.226941
C6    C     C_3   0.402366 0.972738 0.570885 -0.235478
C7    C     C_3   0.479636 0.962166 0.383382 0.265270
C8    C     C_3   0.522244 0.038162 0.618689 0.267514
C9    C     C_3   0.501643 0.876950 0.502886 -0.081030
C10   C     C_3   0.499745 0.123080 0.499005 -0.078057
C11   C     C_3   0.622095 0.940891 0.553928 -0.197845
C12   C     C_3   0.379536 0.059111 0.448058 -0.200575
C13   C     C_2   0.411996 0.501415 0.127280 -0.054838
C14   C     C_2   0.586374 0.458177 0.873194 -0.061775
C15   C     C_2   0.489006 0.408384 0.068419 -0.226331
C16   C     C_2   0.490677 0.409812 0.930516 -0.214790
C17   C     C_2   0.072665 0.489574 0.489072 -0.136125
C18   C     C_2   0.927248 0.510725 0.510671 -0.139206
H1    H     H_    0.677003 0.053413 0.372733 0.150452
H2    H     H_    0.324821 0.946859 0.629803 0.153675
H3    H     H_    0.719321 0.889101 0.597906 0.142146
H4    H     H_    0.282378 0.110605 0.403612 0.144798
H5    H     H_    0.400976 0.387413 0.876097 0.170935
H6    H     H_    0.563516 0.338490 0.122788 0.159342
H7    H     H_    0.891367 0.580729 0.579953 0.157275
H8    H     H_    0.108486 0.419833 0.419536 0.160884
H9    H     H_    0.880048 0.382233 0.383676 0.158533
H10   H     H_    0.120032 0.617443 0.616653 0.159712
N1    N     N_2   0.157310 0.552180 0.551120 -0.193795
N2    N     N_2   0.842690 0.447820 0.448880 -0.191299
O1    O     O_R   0.568940 0.489500 0.307530 -0.613771
O2    O     O_R   0.431060 0.510500 0.692470 -0.618421
O3    O     O_R   0.348880 0.522990 0.340350 -0.612295
O4    O     O_R   0.651120 0.477010 0.659650 -0.610873
O5    O     O_R   0.610000 0.297210 0.483560 -0.609032
O6    O     O_R   0.390000 0.702790 0.516440 -0.609437
O7    O     O_R   0.389940 0.330700 0.516390 -0.623161
O8    O     O_R   0.610060 0.669300 0.483610 -0.620823
Zn1   Zn    Zn3+2 0.646930 0.477640 0.478080 0.921251
Zn2   Zn    Zn3+2 0.353070 0.522360 0.521920 0.917828
N3    N     N_2   0.458350 0.915291 0.255298 -0.317439
H11   H     H_    0.532053 0.841605 0.234468 0.220850
C19   C     C_3   0.428699 0.014859 0.157081 -0.815424
H12   H     H_    0.412865 0.970355 0.062700 0.240559
H13   H     H_    0.513172 0.070569 0.155681 0.231915
H14   H     H_    0.335807 0.080829 0.173674 0.249499
N4    N     N_2   0.545236 0.087395 0.745705 -0.303127
H15   H     H_    0.469701 0.158677 0.767744 0.218877
C20   C     C_3   0.583200 0.989897 0.845197 -0.813983
H16   H     H_    0.603214 0.036789 0.937814 0.244596
H17   H     H_    0.676133 0.925750 0.825241 0.245281
H18   H     H_    0.501504 0.931704 0.852434 0.229148
C21   C     C_3   0.712054 0.487818 0.951533 -0.406026
C22   C     C_3   0.818297 0.531838 0.874196 -0.340672
C23   C     C_3   0.937921 0.561050 0.961347 -0.931433
H19   H     H_    0.906704 0.641525 0.025431 0.272238
H20   H     H_    0.984175 0.474663 0.019898 0.266562
H21   H     H_    0.013461 0.588910 0.901325 0.246231
H22   H     H_    0.855328 0.454131 0.809238 0.249236
H23   H     H_    0.774775 0.620259 0.817275 0.218806
H24   H     H_    0.681355 0.563929 0.020657 0.219310
H25   H     H_    0.759010 0.399487 0.007046 0.213485
C24   C     C_3   0.313109 0.604803 0.051573 -0.436920
C25   C     C_3   0.231328 0.702753 0.133111 -0.311714
C26   C     C_3   0.153465 0.815160 0.051663 -0.892343
H26   H     H_    0.222942 0.866368 0.002959 0.261691
H27   H     H_    0.082209 0.780949 0.978253 0.258814
H28   H     H_    0.096298 0.884083 0.113599 0.255251
H29   H     H_    0.159459 0.654466 0.182036 0.237063
H30   H     H_    0.298719 0.742474 0.206479 0.243779
H31   H     H_    0.370602 0.657576 0.989739 0.220668
H32   H     H_    0.242544 0.556859 0.988505 0.213153

loop_
_geom_bond_atom_site_label_1
_geom_bond_atom_site_label_2
_ccdc_geom_bond_type
O1    Zn1   S    
O5    Zn1   S    
C19   H12   S    
C4    O6    A    
C18   N2    D    
C25   H30   S    
O7    Zn2   S    
C6    H2    S    
C21   H25   S    
N4    H15   S    
C13   C24   S    
C3    O5    A    
C23   H19   S    
C26   H28   S    
C25   C26   S    
C2    O4    A    
C6    C9    S    
C23   H20   S    
C17   C18   S    
C8    N4    S    
C1    O3    A    
C5    C10   S    
N4    C20   S    
C3    C10   S    
C22   H23   S    
C21   C22   S    
H9    N2    S    
C19   H13   S    
N3    C19   S    
C9    C11   S    
C14   C21   S    
C7    C12   S    
C18   H7    S    
C10   C12   S    
C8    C11   S    
C5    H1    S    
C17   H8    S    
N1    Zn2   S    
C8    C10   S    
C15   H6    S    
C24   H31   S    
N2    Zn1   S    
C5    C11   S    
C16   H5    S    
C7    C9    S    
C22   H22   S    
C13   C15   D    
C6    C12   S    
O8    Zn1   S    
C2    C14   S    
C19   H14   S    
C14   C16   D    
O3    Zn2   S    
C1    C13   S    
C26   H26   S    
C15   C16   S    
C12   H4    S    
C1    O1    A    
O2    Zn2   S    
C17   N1    D    
C24   H32   S    
C3    O7    A    
C2    O2    A    
C20   H16   S    
N3    H11   S    
C23   H21   S    
C5    C7    S    
C22   C23   S    
H10   N1    S    
O6    Zn2   S    
C6    C8    S    
C26   H27   S    
C4    C9    S    
C25   H29   S    
C21   H24   S    
C11   H3    S    
C20   H18   S    
O4    Zn1   S    
C7    N3    S    
C4    O8    A    
C24   C25   S    
C20   H17   S    
