data_mof_unit_14685.cif
_audit_creation_date              2012-12-10T17:18:55-0500
_audit_creation_method            fapswitch 2.2
_symmetry_space_group_name_H-M    P1
_symmetry_Int_Tables_number       1
_space_group_crystal_system       triclinic
_cell_length_a                    10.196993
_cell_length_b                    10.813471
_cell_length_c                    13.608663
_cell_angle_alpha                 91.863811
_cell_angle_beta                  100.34608
_cell_angle_gamma                 96.10802
_cell_volume                      1465.73361008

loop_
_atom_site_label
_atom_site_type_symbol
_atom_type_description
_atom_site_fract_x
_atom_site_fract_y
_atom_site_fract_z
_atom_type_partial_charge
C1    C     C_R   0.052154 0.732178 0.490864 0.948435
C2    C     C_2   0.998397 0.063542 0.467070 -0.142008
C3    C     C_2   0.430890 0.511492 0.508208 -0.152812
C4    C     C_2   0.569113 0.488558 0.491688 -0.143308
C5    C     C_R   0.093386 0.512296 0.685948 0.871474
C6    C     C_R   0.905806 0.484837 0.314263 0.862895
C7    C     C_R   0.139857 0.511130 0.793727 -0.063448
C8    C     C_R   0.850195 0.457207 0.208718 -0.069101
C9    C     C_R   0.116355 0.553452 0.964674 -0.216729
C10   C     C_R   0.841732 0.341401 0.052705 -0.208111
C11   C     C_R   0.063940 0.549441 0.862626 -0.208525
C12   C     C_R   0.945230 0.267242 0.503084 0.945212
C13   C     C_R   0.910084 0.382424 0.148080 -0.217133
C14   C     C_R   0.263209 0.469222 0.827274 -0.260230
C15   C     C_R   0.723590 0.490791 0.173694 -0.248894
C16   C     C_R   0.315274 0.466089 0.929093 0.078654
C17   C     C_R   0.646060 0.437194 0.084638 0.086671
C18   C     C_R   0.244750 0.516614 0.999353 0.142040
C19   C     C_R   0.708176 0.366931 0.019495 0.114394
C20   C     C_R   0.441951 0.423917 0.960864 0.023551
C21   C     C_R   0.509232 0.455148 0.058968 0.038381
C22   C     C_3   0.241979 0.589184 0.181117 -0.410362
C23   C     C_R   0.437320 0.501343 0.129301 -0.266954
C24   C     C_3   0.258171 0.731620 0.178765 -0.349299
C25   C     C_3   0.199070 0.790623 0.261705 -0.854528
C26   C     C_3   0.700669 0.247976 0.853096 -0.422921
C27   C     C_3   0.615911 0.210380 0.749074 -0.343667
C28   C     C_3   0.694795 0.140631 0.684644 -0.875197
C29   C     C_R   0.502802 0.351814 0.896941 -0.241458
C30   C     C_R   0.306297 0.531368 0.101256 0.059542
C31   C     C_R   0.635059 0.322713 0.924335 0.075102
C32   C     C_2   0.078334 0.863537 0.477211 -0.396896
C33   C     C_2   0.909640 0.133979 0.494035 -0.396114
C34   C     C_2   0.974973 0.930951 0.467724 -0.144736
H1    H     H_    0.685922 0.557855 0.218797 0.152083
H2    H     H_    0.872948 0.889501 0.467813 0.187743
H3    H     H_    0.813944 0.093352 0.509589 0.153597
H4    H     H_    0.180074 0.905375 0.476992 0.149874
H5    H     H_    0.578248 0.414786 0.438182 0.166538
H6    H     H_    0.421758 0.585281 0.561689 0.167840
H7    H     H_    0.665083 0.623015 0.589326 0.159895
H8    H     H_    0.334865 0.377111 0.410542 0.155684
H9    H     H_    0.091191 0.755422 0.254756 0.260474
H10   H     H_    0.254503 0.768723 0.335838 0.270890
H11   H     H_    0.208359 0.893350 0.256508 0.241320
H12   H     H_    0.321565 0.445452 0.772208 0.159890
H13   H     H_    0.366509 0.766775 0.188788 0.226191
H14   H     H_    0.207084 0.760899 0.105550 0.223287
H15   H     H_    0.134790 0.552772 0.172051 0.203114
H16   H     H_    0.289178 0.562585 0.256501 0.211950
H17   H     H_    0.787431 0.199826 0.675885 0.271357
H18   H     H_    0.722516 0.053240 0.719340 0.256700
H19   H     H_    0.632140 0.116626 0.609553 0.242961
H20   H     H_    0.524395 0.148361 0.756501 0.220047
H21   H     H_    0.586318 0.294994 0.710474 0.229340
H22   H     H_    0.793772 0.304907 0.841817 0.208495
H23   H     H_    0.007964 0.353278 0.175020 0.154492
H24   H     H_    0.729038 0.161648 0.889497 0.200867
H25   H     H_    0.966317 0.580200 0.837681 0.160558
H26   H     H_    0.056401 0.588419 0.014908 0.155271
H27   H     H_    0.892982 0.285809 0.007658 0.140874
H28   H     H_    0.480609 0.512406 0.207933 0.146729
H29   H     H_    0.444705 0.313013 0.826905 0.143608
H30   H     H_    0.094420 0.103379 0.451102 0.186826
N1    N     N_2   0.322180 0.446120 0.460900 -0.198589
N2    N     N_2   0.677820 0.553880 0.539100 -0.191607
O1    O     O_R   0.935190 0.693030 0.507870 -0.607223
O2    O     O_R   0.064810 0.306970 0.492130 -0.607527
O3    O     O_R   0.142080 0.658430 0.482770 -0.612129
O4    O     O_R   0.857920 0.341570 0.517230 -0.607277
O5    O     O_R   0.969700 0.527180 0.651960 -0.609120
O6    O     O_R   0.030300 0.472820 0.348040 -0.617150
O7    O     O_R   0.176600 0.492580 0.626860 -0.611157
O8    O     O_R   0.823400 0.507420 0.373140 -0.610124
Zn1   Zn    Zn3+2 0.861850 0.523100 0.516760 0.930729
Zn2   Zn    Zn3+2 0.138150 0.476900 0.483240 0.918758

loop_
_geom_bond_atom_site_label_1
_geom_bond_atom_site_label_2
_ccdc_geom_bond_type
C33   H3    S    
H8    N1    S    
C7    C11   A    
C28   H19   S    
C29   H29   S    
O7    Zn2   S    
C32   C34   D    
H7    N2    S    
C18   C30   A    
C32   H4    S    
O2    Zn2   S    
C12   O2    A    
C23   C30   A    
C34   H2    S    
C4    H5    S    
C22   H16   S    
C10   C19   A    
C16   C20   A    
C9    H26   S    
C19   C31   A    
C2    C34   S    
C22   C24   S    
C21   C23   A    
C12   C33   S    
C27   H20   S    
C5    C7    S    
C26   C31   S    
C5    O5    A    
C22   C30   S    
C24   C25   S    
C6    O6    A    
C28   H18   S    
C25   H9    S    
C26   C27   S    
C3    N1    D    
N1    Zn2   S    
C22   H15   S    
C11   H25   S    
N2    Zn1   S    
C2    C33   D    
C15   H1    S    
C17   C19   A    
C2    H30   S    
C3    H6    S    
C6    O8    A    
C8    C15   A    
C27   H21   S    
C20   C29   A    
C9    C11   A    
C5    O7    A    
C28   H17   S    
C14   C16   A    
O5    Zn1   S    
C10   H27   S    
O1    Zn1   S    
O8    Zn1   S    
C1    C32   S    
C3    C4    S    
C24   H14   S    
C8    C13   A    
C25   H11   S    
C9    C18   A    
O4    Zn1   S    
C13   H23   S    
C20   C21   A    
C25   H10   S    
O3    Zn2   S    
C16   C18   A    
C27   C28   S    
C15   C17   A    
C12   O4    A    
O6    Zn2   S    
C6    C8    S    
C23   H28   S    
C1    O1    A    
C4    N2    D    
C29   C31   A    
C24   H13   S    
C26   H24   S    
C7    C14   A    
C1    O3    A    
C26   H22   S    
C14   H12   S    
C10   C13   A    
C17   C21   A    
