data_mof_unit_58183.cif
_audit_creation_date              2012-12-11T14:19:32-0500
_audit_creation_method            fapswitch 2.2
_symmetry_space_group_name_H-M    P1
_symmetry_Int_Tables_number       1
_space_group_crystal_system       triclinic
_cell_length_a                    19.457555
_cell_length_b                    7.249192
_cell_length_c                    17.698766
_cell_angle_alpha                 90.0
_cell_angle_beta                  107.52843
_cell_angle_gamma                 90.00006
_cell_volume                      2380.52284651

loop_
_atom_site_label
_atom_site_type_symbol
_atom_type_description
_atom_site_fract_x
_atom_site_fract_y
_atom_site_fract_z
_atom_type_partial_charge
O1    O     O_R   0.414820 0.494320 0.416790 -0.541533
O2    O     O_R   0.585180 0.994320 0.583210 -0.541535
O3    O     O_R   0.560270 0.819500 0.430140 -0.545760
O4    O     O_R   0.439730 0.319500 0.569860 -0.545758
C1    C     C_R   0.580079 0.655287 0.414073 0.743026
C2    C     C_R   0.419922 0.155286 0.585928 0.743025
O5    O     O_R   0.413840 0.823740 0.407440 -0.535800
O6    O     O_R   0.586160 0.323740 0.592560 -0.535799
O7    O     O_R   0.437710 0.998590 0.560350 -0.535131
O8    O     O_R   0.562290 0.498590 0.439650 -0.535130
C3    C     C_R   0.387052 0.655950 0.386345 0.760647
C4    C     C_R   0.612947 0.155950 0.613656 0.760644
O9    O     O_3   0.508000 0.662290 0.550200 -0.380592
O10   O     O_3   0.492000 0.162290 0.449800 -0.380590
V1    V     V_3+5 0.498520 0.935380 0.490690 1.398088
V2    V     V_3+5 0.501480 0.435380 0.509310 1.398091
C5    C     C_2   0.791287 0.255323 0.779064 0.598107
C6    C     C_2   0.208711 0.755321 0.220939 0.598107
C7    C     C_2   0.812864 0.112010 0.830025 -0.112258
C8    C     C_2   0.187136 0.612013 0.169976 -0.112254
C9    C     C_2   0.716086 0.278990 0.726547 0.094069
C10   C     C_2   0.283911 0.778992 0.273456 0.094069
C11   C     C_2   0.684713 0.145359 0.673748 -0.359698
C12   C     C_2   0.315286 0.645358 0.326253 -0.359700
H1    H     H_    0.715171 0.020807 0.672039 0.120354
H2    H     H_    0.284830 0.520803 0.327960 0.120353
C13   C     C_R   0.295714 0.135875 0.598350 0.063887
C14   C     C_R   0.704288 0.635931 0.401651 0.063885
C15   C     C_R   0.370725 0.146119 0.635491 -0.082847
C16   C     C_R   0.629276 0.646121 0.364510 -0.082844
C17   C     C_R   0.398884 0.152954 0.718917 0.091270
C18   C     C_R   0.601115 0.652907 0.281084 0.091275
C19   C     C_R   0.352160 0.124084 0.766480 0.051945
C20   C     C_R   0.647841 0.624044 0.233522 0.051942
C21   C     C_R   0.276453 0.116327 0.729188 -0.078660
C22   C     C_R   0.723549 0.616331 0.270814 -0.078660
C23   C     C_R   0.248464 0.106306 0.644993 0.101900
C24   C     C_R   0.751540 0.606358 0.355009 0.101901
C25   C     C_R   0.378084 0.107165 0.850433 0.158217
C26   C     C_R   0.621917 0.607091 0.149571 0.158217
C27   C     C_R   0.330975 0.137023 0.895912 0.150073
C28   C     C_R   0.669024 0.636958 0.104089 0.150075
C29   C     C_R   0.255459 0.119061 0.860163 0.052908
C30   C     C_R   0.744541 0.619030 0.139838 0.052909
C31   C     C_R   0.228357 0.114905 0.776252 -0.041643
C32   C     C_R   0.771644 0.614909 0.223749 -0.041643
C33   C     C_R   0.152894 0.112565 0.738949 0.076847
C34   C     C_R   0.847107 0.612606 0.261051 0.076847
C35   C     C_R   0.127221 0.083861 0.656859 -0.183046
C36   C     C_R   0.872783 0.583946 0.343145 -0.183044
C37   C     C_R   0.173963 0.065074 0.611111 0.156635
C38   C     C_R   0.826044 0.565169 0.388895 0.156633
C39   C     C_R   0.206279 0.094619 0.905074 0.072519
C40   C     C_R   0.793721 0.594592 0.094927 0.072519
C41   C     C_R   0.131507 0.118567 0.867936 -0.066997
C42   C     C_R   0.868493 0.618567 0.132064 -0.066997
C43   C     C_R   0.104463 0.130443 0.784562 0.068810
C44   C     C_R   0.895537 0.630478 0.215437 0.068801
H3    H     H_    0.070333 0.062170 0.627831 0.141855
H4    H     H_    0.929673 0.562287 0.372174 0.141854
O11   O     O_R   0.937810 0.773680 0.060480 -0.538647
O12   O     O_R   0.062190 0.273680 0.939520 -0.538646
O13   O     O_R   0.086190 0.439740 0.092580 -0.537353
O14   O     O_R   0.913810 0.939740 0.907420 -0.537353
C45   C     C_R   0.113681 0.607734 0.112500 0.770980
C46   C     C_R   0.886319 0.107733 0.887501 0.770978
O15   O     O_R   0.939760 0.444210 0.069890 -0.544785
O16   O     O_R   0.060240 0.944210 0.930110 -0.544784
O17   O     O_R   0.914790 0.269640 0.916760 -0.514405
O18   O     O_R   0.085210 0.769640 0.083240 -0.514407
C47   C     C_R   0.918667 0.612116 0.083736 0.710933
C48   C     C_R   0.081333 0.112116 0.916263 0.710936
O19   O     O_3   0.992050 0.601530 0.949880 -0.369009
O20   O     O_3   0.007950 0.101530 0.050120 -0.369011
V3    V     V_3+5 0.001480 0.328340 0.009300 1.499139
V4    V     V_3+5 0.998520 0.828340 0.990700 1.499138
F1    F     F_    0.838431 0.393611 0.778258 -0.688951
F2    F     F_    0.161564 0.893603 0.221748 -0.688954
C49   C     C_3   0.024130 0.153713 0.743891 -0.745248
H5    H     H_    0.015104 0.267119 0.699784 0.214858
H6    H     H_    0.001279 0.023443 0.713660 0.201178
H7    H     H_    0.993088 0.190616 0.784887 0.214920
C50   C     C_3   0.975869 0.653780 0.256105 -0.745235
H8    H     H_    0.998726 0.523528 0.286348 0.201173
H9    H     H_    0.006910 0.690667 0.215106 0.214931
H10   H     H_    0.984890 0.767208 0.300201 0.214860
C51   C     C_3   0.142822 0.973621 0.531247 -0.776891
H11   H     H_    0.184891 0.905641 0.510599 0.227587
H12   H     H_    0.105368 0.861210 0.535671 0.204026
H13   H     H_    0.111792 0.074824 0.486970 0.211174
C52   C     C_3   0.857193 0.473775 0.468771 -0.776884
H14   H     H_    0.815130 0.405781 0.489425 0.227589
H15   H     H_    0.894662 0.361387 0.464363 0.204022
H16   H     H_    0.888210 0.575019 0.513036 0.211172
C53   C     C_3   0.760996 0.961542 0.836708 -0.868478
H17   H     H_    0.782135 0.884142 0.892984 0.223248
H18   H     H_    0.708418 0.021084 0.836782 0.216944
H19   H     H_    0.753059 0.861911 0.787348 0.238702
C54   C     C_3   0.239005 0.461552 0.163290 -0.868487
H20   H     H_    0.217866 0.384158 0.107013 0.223244
H21   H     H_    0.291582 0.521101 0.163217 0.216948
H22   H     H_    0.246944 0.361916 0.212648 0.238699
C55   C     C_3   0.678996 0.458051 0.733652 -0.661228
H23   H     H_    0.710947 0.537328 0.786201 0.202884
H24   H     H_    0.673080 0.544948 0.680413 0.219683
H25   H     H_    0.625447 0.430290 0.741530 0.185241
C56   C     C_3   0.320998 0.958059 0.266354 -0.661220
H26   H     H_    0.289046 0.037339 0.213806 0.202884
H27   H     H_    0.326914 0.044949 0.319595 0.219682
H28   H     H_    0.374548 0.930306 0.258474 0.185239
C57   C     C_3   0.267705 0.190449 0.511427 -0.762101
H29   H     H_    0.299811 0.305795 0.498230 0.198924
H30   H     H_    0.271008 0.071934 0.472947 0.211009
H31   H     H_    0.212342 0.246778 0.495425 0.222724
C58   C     C_3   0.732293 0.690566 0.488566 -0.762106
H32   H     H_    0.700176 0.805905 0.501750 0.198935
H33   H     H_    0.729005 0.572068 0.527063 0.211006
H34   H     H_    0.787650 0.746936 0.504558 0.222719
C59   C     C_3   0.475639 0.223011 0.754077 -0.794806
H35   H     H_    0.484279 0.289366 0.812459 0.221563
H36   H     H_    0.514888 0.109750 0.757637 0.198431
H37   H     H_    0.487542 0.335457 0.717472 0.206666
C60   C     C_3   0.524353 0.722912 0.245919 -0.794804
H38   H     H_    0.515710 0.789263 0.187535 0.221561
H39   H     H_    0.485115 0.609626 0.242361 0.198443
H40   H     H_    0.512437 0.835348 0.282519 0.206647
C61   C     C_3   0.451631 0.027252 0.893156 -0.786031
H41   H     H_    0.446337 0.921643 0.936571 0.205688
H42   H     H_    0.475355 0.952973 0.852290 0.222343
H43   H     H_    0.488854 0.136122 0.926023 0.206933
C62   C     C_3   0.548376 0.527138 0.106853 -0.786028
H44   H     H_    0.553678 0.421528 0.063442 0.205689
H45   H     H_    0.524661 0.452849 0.147724 0.222344
H46   H     H_    0.511144 0.635985 0.073983 0.206933
C63   C     C_3   0.363224 0.214669 0.978685 -0.781243
H47   H     H_    0.322494 0.286756 0.000218 0.220369
H48   H     H_    0.390134 0.104686 0.020870 0.208521
H49   H     H_    0.404136 0.321110 0.978039 0.210749
C64   C     C_3   0.636768 0.714580 0.021313 -0.781247
H50   H     H_    0.677493 0.786678 0.999776 0.220370
H51   H     H_    0.609864 0.604582 0.979133 0.208518
H52   H     H_    0.595851 0.821006 0.021956 0.210747
C65   C     C_3   0.230446 0.014315 0.988300 -0.770099
H53   H     H_    0.194214 0.900441 0.993854 0.209738
H54   H     H_    0.284065 0.948111 0.002644 0.218889
H55   H     H_    0.229913 0.121768 0.032621 0.198038
C66   C     C_3   0.769557 0.514272 0.011704 -0.770096
H56   H     H_    0.805794 0.400406 0.006153 0.209741
H57   H     H_    0.715942 0.448052 0.997363 0.218888
H58   H     H_    0.770085 0.621721 0.967379 0.198037

loop_
_geom_bond_atom_site_label_1
_geom_bond_atom_site_label_2
_ccdc_geom_bond_type
C63   H49   S    
C51   H11   S    
O13   C45   A    
C13   C15   A    
C56   H27   S    
C43   C49   S    
C53   H17   S    
O1    C3    A    
C62   H46   S    
O2    C4    A    
C2    O7    A    
C53   H19   S    
O3    V1    S    
C60   H38   S    
C33   C35   A    
C62   H45   S    
O5    C3    A    
C4    C11   S    
C19   C25   A    
C50   H8    S    
C20   C26   A    
C66   H57   S    
C12   H2    S    
C23   C37   A    
C64   H52   S    
C60   H39   S    
C46   O17   A    
C52   H15   S    
C58   H32   S    
C3    C12   S    
C7    C46   S    
C65   H54   S    
C31   C33   A    
C5    C7    D    
C29   C39   A    
C66   H56   S    
C14   C16   A    
C58   H33   S    
C36   C38   A    
C56   H26   S    
C17   C19   A    
C22   C32   A    
C55   H25   S    
C6    C8    D    
C41   C48   S    
C6    F2    S    
O11   C47   A    
C34   C36   A    
C13   C57   S    
O6    V2    S    
C27   C29   A    
C18   C60   S    
C10   C56   S    
C28   C30   A    
C30   C32   A    
C32   C34   A    
C39   C41   A    
O11   V4    S    
C40   C42   A    
C25   C61   S    
O20   V3    S    
C8    C45   S    
C63   H47   S    
C66   H58   S    
C55   H24   S    
C65   H55   S    
C37   C51   S    
C52   H14   S    
C49   H6    S    
C60   H40   S    
C35   C37   A    
C5    C9    S    
O16   C48   A    
C39   C65   S    
C18   C20   A    
O4    V2    S    
C61   H42   S    
C14   C58   S    
C33   C43   A    
C54   H20   S    
C14   C24   A    
O6    C4    A    
C58   H34   S    
C2    C15   S    
C5    F1    S    
C50   H10   S    
O14   V4    S    
O12   C48   A    
C57   H30   S    
O1    V2    S    
C59   H35   S    
O2    V1    S    
C29   C31   A    
C17   C59   S    
C59   H36   S    
O4    C2    A    
C50   H9    S    
C26   C62   S    
C9    C11   D    
O18   V4    S    
C56   H28   S    
C10   C12   D    
O12   V3    S    
O9    V2    S    
O15   V3    S    
C61   H41   S    
C21   C31   A    
C27   C63   S    
C7    C53   S    
C1    C16   S    
C59   H37   S    
C63   H48   S    
C57   H29   S    
C21   C23   A    
C28   C64   S    
C6    C10   S    
C26   C28   A    
O3    C1    A    
C49   H7    S    
C64   H50   S    
C53   H18   S    
C34   C44   A    
O16   V4    S    
C35   H3    S    
C36   H4    S    
C41   C43   A    
O7    V1    S    
C61   H43   S    
C1    O8    A    
C15   C17   A    
O8    V2    S    
C44   C50   S    
C22   C24   A    
C16   C18   A    
C64   H51   S    
C8    C54   S    
O13   V3    S    
C13   C23   A    
O5    V1    S    
C19   C21   A    
C20   C22   A    
C42   C44   A    
O17   V3    S    
C57   H31   S    
O15   C47   A    
C11   H1    S    
C62   H44   S    
C49   H5    S    
C9    C55   S    
C30   C40   A    
C54   H22   S    
C24   C38   A    
O19   V4    S    
C25   C27   A    
C51   H13   S    
C55   H23   S    
C51   H12   S    
O10   V1    S    
C38   C52   S    
C45   O18   A    
C54   H21   S    
C65   H53   S    
C42   C47   S    
O14   C46   A    
C40   C66   S    
C52   H16   S    
