data_mof_unit_36099.cif
_audit_creation_date              2012-12-10T19:00:11-0500
_audit_creation_method            fapswitch 2.2
_symmetry_space_group_name_H-M    P1
_symmetry_Int_Tables_number       1
_space_group_crystal_system       triclinic
_cell_length_a                    9.561612
_cell_length_b                    10.89586
_cell_length_c                    13.559408
_cell_angle_alpha                 91.402654
_cell_angle_beta                  73.845029
_cell_angle_gamma                 91.672095
_cell_volume                      1356.08972437

loop_
_atom_site_label
_atom_site_type_symbol
_atom_type_description
_atom_site_fract_x
_atom_site_fract_y
_atom_site_fract_z
_atom_type_partial_charge
C1    C     C_R   0.501992 0.737209 0.499921 0.822539
C2    C     C_R   0.446665 0.457700 0.974186 0.075073
C3    C     C_R   0.492831 0.453191 0.865404 0.083958
C4    C     C_R   0.552728 0.479883 0.029062 0.053245
C5    C     C_R   0.702893 0.493789 0.974641 0.140995
C6    C     C_R   0.746736 0.474886 0.867875 0.001859
C7    C     C_R   0.643218 0.443900 0.817104 -0.275016
C8    C     C_R   0.514159 0.489519 0.136597 -0.229071
C9    C     C_R   0.766055 0.520971 0.135219 -0.207120
C10   C     C_R   0.386607 0.455127 0.809101 -0.105150
C11   C     C_R   0.410697 0.931645 0.458414 0.000194
C12   C     C_R   0.424423 0.485564 0.698334 0.805600
C13   C     C_R   0.508049 0.869822 0.497117 -0.121237
C14   C     C_R   0.605362 0.937194 0.538891 -0.138008
C15   C     C_R   0.595820 0.065498 0.550741 0.008373
C16   C     C_R   0.493543 0.127972 0.512065 -0.119795
C17   C     C_R   0.402856 0.058359 0.465502 0.052939
C18   C     C_3   0.238790 0.048208 0.491215 -0.289431
C19   C     C_3   0.250655 0.909855 0.480563 -0.167911
C20   C     C_R   0.954925 0.444159 0.421783 0.243575
C21   C     C_R   0.900904 0.569646 0.568605 -0.039921
C22   C     C_R   0.050030 0.570229 0.568099 0.013050
C23   C     C_R   0.496357 0.262294 0.505802 0.753931
C24   C     C_R   0.102809 0.444300 0.421545 0.210300
C25   C     C_3   0.111037 0.311079 0.396005 -0.264240
C26   C     C_3   0.954067 0.312278 0.391696 -0.449810
C27   C     C_R   0.576882 0.502424 0.301112 0.801181
C28   C     C_R   0.806714 0.517642 0.029128 -0.150723
C29   C     C_R   0.620095 0.504781 0.189302 -0.048015
C30   C     C_R   0.241110 0.428432 0.860610 -0.133599
C31   C     C_R   0.197898 0.414885 0.966358 -0.120575
C32   C     C_R   0.297011 0.435542 0.023278 -0.133505
Cu1   Cu    Cu3+1 0.359330 0.500020 0.500010 0.964989
Cu2   Cu    Cu3+1 0.640670 0.499980 0.499990 0.954532
H1    H     H_    0.824574 0.623942 0.625666 0.158165
N1    N     N_R   0.852320 0.499070 0.499340 -0.202827
N2    N     N_R   0.148230 0.499110 0.499340 -0.211126
O1    O     O_R   0.381190 0.680360 0.500000 -0.570187
O2    O     O_R   0.618780 0.680320 0.499990 -0.572558
O3    O     O_R   0.323230 0.500000 0.650990 -0.571363
O4    O     O_R   0.560820 0.499960 0.650980 -0.606827
O5    O     O_R   0.381220 0.319680 0.500010 -0.596260
O6    O     O_R   0.618810 0.319640 0.500000 -0.609932
O7    O     O_R   0.439180 0.500040 0.349020 -0.598335
O8    O     O_R   0.676770 0.500000 0.349010 -0.575609
H2    H     H_    0.849378 0.535505 0.174797 0.167631
C33   C     C_2   0.681510 0.129149 0.613734 0.352796
H3    H     H_    0.649813 0.218165 0.648806 0.081867
O9    O     O_2   0.787065 0.081299 0.629379 -0.573755
C34   C     C_2   0.160617 0.091476 0.598770 0.449526
H4    H     H_    0.066532 0.148900 0.611208 0.100699
O10   O     O_2   0.200657 0.061548 0.672623 -0.528584
H5    H     H_    0.196602 0.084914 0.430273 0.128693
H6    H     H_    0.201714 0.858997 0.552778 0.208571
C35   C     C_2   0.209895 0.857230 0.388390 0.405199
H7    H     H_    0.258977 0.894390 0.312657 0.090926
O11   O     O_2   0.120828 0.772746 0.398123 -0.542250
H8    H     H_    0.086058 0.626243 0.623585 0.183900
C36   C     C_2   0.223278 0.280174 0.296897 0.362231
H9    H     H_    0.337531 0.297625 0.290457 0.096967
O12   O     O_2   0.188865 0.230488 0.225111 -0.549210
H10   H     H_    0.123767 0.263235 0.463170 0.134062
H11   H     H_    0.937558 0.300161 0.314050 0.226778
C37   C     C_2   0.899474 0.486517 0.804944 0.262413
H12   H     H_    0.943288 0.418363 0.745445 0.075285
O13   O     O_2   0.974098 0.576634 0.814041 -0.557616
H13   H     H_    0.881102 0.254446 0.451680 0.209779
H14   H     H_    0.920873 0.530321 0.991141 0.186293
H15   H     H_    0.402312 0.484585 0.181494 0.147503
H16   H     H_    0.161241 0.415647 0.818491 0.176773
H17   H     H_    0.253111 0.428952 0.105108 0.156628
H18   H     H_    0.086112 0.390314 0.005143 0.144648
H19   H     H_    0.684893 0.409555 0.739722 0.169330
H20   H     H_    0.680049 0.888718 0.570460 0.196572

loop_
_geom_bond_atom_site_label_1
_geom_bond_atom_site_label_2
_ccdc_geom_bond_type
C35   H7    S    
C27   C29   S    
C15   C33   S    
C4    C8    A    
C7    H19   S    
C21   N1    A    
C11   C19   S    
C8    H15   S    
C23   O5    A    
Cu1   O5    S    
C14   H20   S    
C28   H14   S    
C3    C7    A    
C5    C6    A    
C15   C16   A    
C23   O6    A    
C2    C32   A    
C18   C19   S    
C6    C37   S    
C18   H5    S    
C27   O7    A    
C31   C32   A    
C16   C17   A    
C34   O10   D    
C9    C29   A    
C27   O8    A    
C9    H2    S    
C21   C22   A    
Cu2   O4    S    
C30   H16   S    
Cu1   Cu2   S    
C32   H17   S    
C36   O12   D    
Cu1   O3    S    
Cu2   O2    S    
C20   C24   A    
C24   C25   S    
C33   O9    D    
C34   H4    S    
C25   C26   S    
C22   N2    A    
Cu1   N2    S    
C37   O13   D    
C12   O3    A    
C2    C4    A    
C26   H11   S    
C12   O4    A    
C5    C28   A    
C10   C30   A    
C33   H3    S    
C17   C18   S    
Cu2   O8    S    
C8    C29   A    
C10   C12   S    
C1    O1    A    
C19   H6    S    
C31   H18   S    
C16   C23   S    
C35   O11   D    
C1    C13   S    
C26   H13   S    
C18   C34   S    
C19   C35   S    
C24   N2    A    
C11   C17   A    
Cu1   O7    S    
Cu2   O6    S    
C4    C5    A    
C22   H8    S    
C6    C7    A    
C21   H1    S    
Cu1   O1    S    
C37   H12   S    
C2    C3    A    
C3    C10   A    
C11   C13   A    
C30   C31   A    
C20   C26   S    
Cu2   N1    S    
C25   H10   S    
C1    O2    A    
C20   N1    A    
C36   H9    S    
C14   C15   A    
C25   C36   S    
C13   C14   A    
C9    C28   A    
