data_mof_unit_6301.cif
_audit_creation_date              2012-12-11T15:34:56-0500
_audit_creation_method            fapswitch 2.2
_symmetry_space_group_name_H-M    P1
_symmetry_Int_Tables_number       1
_space_group_crystal_system       triclinic
_cell_length_a                    30.507073
_cell_length_b                    7.249562
_cell_length_c                    25.995398
_cell_angle_alpha                 90.004062
_cell_angle_beta                  111.988893
_cell_angle_gamma                 90.00342
_cell_volume                      5330.99952142

loop_
_atom_site_label
_atom_site_type_symbol
_atom_type_description
_atom_site_fract_x
_atom_site_fract_y
_atom_site_fract_z
_atom_type_partial_charge
O1    O     O_R   0.295360 0.592990 0.320420 -0.531023
O2    O     O_R   0.704640 0.407010 0.679580 -0.531023
O3    O     O_R   0.204640 0.092990 0.179580 -0.531016
O4    O     O_R   0.795360 0.907010 0.820420 -0.531016
O5    O     O_R   0.294060 0.265620 0.213230 -0.539493
O6    O     O_R   0.705940 0.734380 0.786770 -0.539494
O7    O     O_R   0.205940 0.765620 0.286770 -0.539529
O8    O     O_R   0.794060 0.234380 0.713230 -0.539533
C1    C     C_R   0.304127 0.432272 0.199510 0.732281
C2    C     C_R   0.695873 0.567728 0.800490 0.732280
C3    C     C_R   0.195872 0.932272 0.300490 0.732307
C4    C     C_R   0.804128 0.067727 0.699510 0.732312
O9    O     O_R   0.300850 0.263360 0.322080 -0.536444
O10   O     O_R   0.699150 0.736640 0.677920 -0.536443
O11   O     O_R   0.199150 0.763360 0.177920 -0.536460
O12   O     O_R   0.800850 0.236640 0.822080 -0.536459
O13   O     O_R   0.211480 0.091820 0.289210 -0.537926
O14   O     O_R   0.788520 0.908180 0.710790 -0.537929
O15   O     O_R   0.288520 0.591820 0.210790 -0.537888
O16   O     O_R   0.711480 0.408180 0.789210 -0.537890
C5    C     C_R   0.313249 0.431398 0.343189 0.695423
C6    C     C_R   0.686751 0.568602 0.656811 0.695425
C7    C     C_R   0.186749 0.931376 0.156810 0.695441
C8    C     C_R   0.813251 0.068624 0.843189 0.695443
O17   O     O_3   0.220670 0.426670 0.239090 -0.375319
O18   O     O_3   0.779330 0.573330 0.760910 -0.375321
O19   O     O_3   0.279330 0.926670 0.260910 -0.375275
O20   O     O_3   0.720670 0.073330 0.739090 -0.375276
V1    V     V_3+5 0.255440 0.152290 0.252020 1.437491
V2    V     V_3+5 0.744560 0.847710 0.747980 1.437484
V3    V     V_3+5 0.244560 0.652290 0.247980 1.437456
V4    V     V_3+5 0.755440 0.347710 0.752020 1.437446
C9    C     C_R   0.850080 0.064619 0.899524 -0.074925
C10   C     C_R   0.149920 0.935381 0.100476 -0.074925
C11   C     C_R   0.649925 0.564518 0.600477 -0.074893
C12   C     C_R   0.350075 0.435482 0.399523 -0.074892
C13   C     C_R   0.873324 0.138216 0.997021 0.170459
C14   C     C_R   0.126676 0.861784 0.002979 0.170458
C15   C     C_R   0.626712 0.637599 0.502955 0.170479
C16   C     C_R   0.373288 0.362400 0.497045 0.170479
C17   C     C_R   0.838761 0.125383 0.943839 -0.172795
C18   C     C_R   0.161239 0.874618 0.056161 -0.172794
C19   C     C_R   0.661267 0.624925 0.556146 -0.172845
C20   C     C_R   0.338733 0.375074 0.443854 -0.172845
C21   C     C_R   0.896924 0.016569 0.908403 -0.206549
C22   C     C_R   0.103076 0.983430 0.091597 -0.206549
C23   C     C_R   0.603069 0.516668 0.591607 -0.206542
C24   C     C_R   0.396931 0.483332 0.408393 -0.206543
C25   C     C_R   0.933598 0.031329 0.961961 0.063162
C26   C     C_R   0.066402 0.968670 0.038039 0.063162
C27   C     C_R   0.566405 0.531258 0.538039 0.063163
C28   C     C_R   0.433594 0.468742 0.461961 0.063163
C29   C     C_R   0.920870 0.092843 0.006526 0.075050
C30   C     C_R   0.079130 0.907157 0.993474 0.075052
C31   C     C_R   0.579155 0.592413 0.493457 0.075009
C32   C     C_R   0.420845 0.407586 0.506543 0.075010
C33   C     C_R   0.982399 0.989880 0.972588 0.070376
C34   C     C_R   0.017601 0.010119 0.027411 0.070375
C35   C     C_R   0.517595 0.489974 0.527417 0.070364
C36   C     C_R   0.482404 0.510025 0.472583 0.070364
C37   C     C_R   0.002799 0.070453 0.069864 -0.180776
C38   C     C_R   0.997200 0.929546 0.930136 -0.180778
C39   C     C_R   0.497225 0.570017 0.430114 -0.180766
C40   C     C_R   0.502775 0.429982 0.569886 -0.180767
C41   C     C_R   0.955802 0.110157 0.059623 -0.144606
C42   C     C_R   0.044198 0.889842 0.940377 -0.144609
C43   C     C_R   0.544232 0.609557 0.440350 -0.144597
C44   C     C_R   0.455768 0.390443 0.559650 -0.144598
H1    H     H_    0.947361 0.156120 0.094370 0.175687
H2    H     H_    0.052639 0.843880 0.905630 0.175686
H3    H     H_    0.552688 0.655256 0.405591 0.175694
H4    H     H_    0.447312 0.344743 0.594409 0.175694
H5    H     H_    0.096513 0.026582 0.127688 0.107484
H6    H     H_    0.903487 0.973417 0.872312 0.107484
H7    H     H_    0.403508 0.526221 0.372290 0.107450
H8    H     H_    0.596492 0.473779 0.627710 0.107451
H9    H     H_    0.197298 0.835342 0.063136 0.133533
H10   H     H_    0.802701 0.164659 0.936864 0.133534
H11   H     H_    0.302663 0.335961 0.436886 0.133561
H12   H     H_    0.697336 0.664038 0.563114 0.133565
H13   H     H_    0.026776 0.089452 0.112081 0.134757
H14   H     H_    0.973224 0.910547 0.887920 0.134757
H15   H     H_    0.473258 0.588866 0.387888 0.134768
H16   H     H_    0.526742 0.411133 0.612112 0.134768
C45   C     C_R   0.073443 0.831023 0.459354 0.669515
C46   C     C_R   0.926556 0.168975 0.540643 0.669527
C47   C     C_R   0.426650 0.330768 0.040758 0.669527
C48   C     C_R   0.573351 0.669229 0.959244 0.669529
N1    N     N_R   0.072916 0.970361 0.423256 -0.547534
N2    N     N_R   0.927085 0.029643 0.576745 -0.547533
N3    N     N_R   0.427073 0.470385 0.076733 -0.547558
N4    N     N_R   0.572926 0.529616 0.923266 -0.547557
C49   C     C_R   0.044141 0.121408 0.417089 0.623021
C50   C     C_R   0.955864 0.878603 0.582914 0.623009
C51   C     C_R   0.455748 0.621704 0.082780 0.623025
C52   C     C_R   0.544250 0.378302 0.917217 0.623020
C53   C     C_R   0.014913 0.137047 0.447935 -0.044748
C54   C     C_R   0.985090 0.862960 0.552066 -0.044747
C55   C     C_R   0.484986 0.637309 0.051945 -0.044722
C56   C     C_R   0.515013 0.362694 0.948054 -0.044722
C57   C     C_R   0.014725 0.993962 0.484465 -0.011716
C58   C     C_R   0.985277 0.006043 0.515535 -0.011719
C59   C     C_R   0.485272 0.493967 0.015532 -0.011600
C60   C     C_R   0.514727 0.506034 0.984468 -0.011601
C61   C     C_R   0.043958 0.838938 0.490055 -0.053793
C62   C     C_R   0.956043 0.161064 0.509945 -0.053799
C63   C     C_R   0.456133 0.338700 0.010053 -0.053803
C64   C     C_R   0.543867 0.661299 0.989947 -0.053805
C65   C     C_R   0.985827 0.291885 0.442993 -0.119697
C66   C     C_R   0.014176 0.708122 0.557009 -0.119695
C67   C     C_R   0.513985 0.792367 0.056784 -0.119874
C68   C     C_R   0.486013 0.207636 0.943215 -0.119873
C69   C     C_R   0.956744 0.303687 0.473581 -0.144902
C70   C     C_R   0.043257 0.696316 0.526418 -0.144911
C71   C     C_R   0.543074 0.804153 0.026203 -0.145232
C72   C     C_R   0.456925 0.195846 0.973797 -0.145236
O21   O     O_2   0.102868 0.686188 0.466210 -0.494997
O22   O     O_2   0.897127 0.313798 0.533782 -0.494992
O23   O     O_2   0.397330 0.185628 0.034025 -0.494892
O24   O     O_2   0.602674 0.814361 0.965980 -0.494892
O25   O     O_2   0.043397 0.255638 0.380822 -0.468960
O26   O     O_2   0.956612 0.744383 0.619186 -0.468963
O27   O     O_2   0.456382 0.756244 0.118919 -0.468840
O28   O     O_2   0.543613 0.243769 0.881075 -0.468842
H17   H     H_    0.985460 0.404712 0.415520 0.190644
H18   H     H_    0.014544 0.595296 0.584483 0.190640
H19   H     H_    0.514276 0.905390 0.084166 0.190724
H20   H     H_    0.485722 0.094613 0.915832 0.190722
H21   H     H_    0.934882 0.425180 0.468678 0.175938
H22   H     H_    0.065119 0.574822 0.531321 0.175936
H23   H     H_    0.564866 0.925826 0.031023 0.175960
H24   H     H_    0.435135 0.074172 0.968978 0.175959
C73   C     C_R   0.862956 0.900879 0.602537 -0.141818
C74   C     C_R   0.137057 0.099090 0.397478 -0.141835
C75   C     C_R   0.637167 0.401212 0.897615 -0.141943
C76   C     C_R   0.362827 0.598773 0.102378 -0.141950
H25   H     H_    0.859703 0.785843 0.574768 0.185804
H26   H     H_    0.140319 0.214101 0.425259 0.185776
H27   H     H_    0.640507 0.286450 0.925496 0.185639
H28   H     H_    0.359483 0.713523 0.074491 0.185627
C77   C     C_R   0.833446 0.908920 0.632722 -0.179915
C78   C     C_R   0.166567 0.091047 0.367293 -0.179903
C79   C     C_R   0.666667 0.409252 0.867425 -0.179807
C80   C     C_R   0.333320 0.590733 0.132568 -0.179835
H29   H     H_    0.808012 0.799315 0.627564 0.150673
H30   H     H_    0.192010 0.200624 0.372463 0.150665
H31   H     H_    0.692196 0.299926 0.872691 0.150583
H32   H     H_    0.307794 0.700045 0.127297 0.150595
C81   C     C_R   0.836046 0.058507 0.668213 -0.140162
C82   C     C_R   0.163955 0.941494 0.331788 -0.140159
C83   C     C_R   0.663961 0.558506 0.831792 -0.140148
C84   C     C_R   0.336039 0.441493 0.168208 -0.140129
C85   C     C_R   0.869266 0.198799 0.673277 -0.283871
C86   C     C_R   0.130724 0.801235 0.326709 -0.283867
C87   C     C_R   0.630634 0.698462 0.826588 -0.283856
C88   C     C_R   0.369371 0.301553 0.173419 -0.283859
H33   H     H_    0.872390 0.314774 0.700699 0.165905
H34   H     H_    0.127590 0.685287 0.299275 0.165901
H35   H     H_    0.627423 0.814162 0.799052 0.165867
H36   H     H_    0.372586 0.185865 0.200960 0.165864
C89   C     C_R   0.899553 0.188886 0.643978 0.702401
C90   C     C_R   0.100437 0.811149 0.356009 0.702416
C91   C     C_R   0.600347 0.688529 0.855890 0.702615
C92   C     C_R   0.399657 0.311487 0.144116 0.702623
C93   C     C_R   0.896420 0.040199 0.607884 0.228965
C94   C     C_R   0.103581 0.959804 0.392117 0.228981
C95   C     C_R   0.603591 0.540184 0.892127 0.228938
C96   C     C_R   0.396408 0.459817 0.107873 0.228938
F1    F     F_    0.932410 0.322961 0.651424 -0.626267
F2    F     F_    0.067571 0.677107 0.348551 -0.626267
F3    F     F_    0.567384 0.822238 0.848307 -0.626165
F4    F     F_    0.432625 0.177792 0.151704 -0.626163
I1    I     I_    0.849844 0.233307 0.059854 -0.330415
I2    I     I_    0.150156 0.766695 0.940146 -0.330427
I3    I     I_    0.650224 0.732137 0.440095 -0.330186
I4    I     I_    0.349776 0.267862 0.559905 -0.330200

loop_
_geom_bond_atom_site_label_1
_geom_bond_atom_site_label_2
_ccdc_geom_bond_type
O17   V3    S    
C55   C59   A    
C25   C29   A    
C1    C84   S    
C73   H25   S    
C57   C58   A    
C54   C66   A    
C47   N3    A    
O19   V1    S    
O13   V1    S    
C78   H30   S    
O3    C7    A    
C72   H24   S    
C10   C18   A    
C56   C60   A    
C80   H32   S    
O15   V3    S    
C77   C81   A    
C33   C38   A    
C5    C12   S    
C71   H23   S    
O1    C5    A    
C6    C11   S    
C35   C40   A    
C26   C30   A    
C69   H21   S    
C36   C39   A    
C40   C44   A    
C64   C71   A    
O9    V1    S    
C49   O25   S    
C23   H8    S    
C14   C18   A    
C13   C17   A    
C48   C64   A    
C51   C55   A    
C14   I2    S    
C50   C54   A    
C60   C64   A    
O1    V3    S    
C9    C21   A    
O2    V4    S    
O3    V1    S    
C81   C85   A    
C40   H16   S    
C28   C36   A    
C90   C94   A    
C76   H28   S    
C1    O15   A    
C15   C31   A    
C48   N4    A    
C2    O16   A    
C16   C32   A    
C90   F2    S    
O2    C6    A    
C74   C94   A    
C58   C62   A    
C10   C22   A    
C83   C87   A    
C48   O24   S    
C11   C19   A    
C66   C70   A    
C16   C20   A    
C43   H3    S    
C77   H29   S    
C13   C29   A    
C34   C37   A    
O11   C7    A    
C38   H14   S    
C11   C23   A    
C35   C36   A    
O12   C8    A    
N1    C49   A    
C70   H22   S    
C24   H7    S    
C46   C62   A    
O10   V2    S    
C45   C61   A    
N2    C50   A    
O5    V1    S    
N4    C52   A    
C57   C61   A    
N1    C94   S    
C39   C43   A    
O7    V3    S    
C38   C42   A    
C62   C69   A    
C87   H35   S    
C26   C34   A    
C84   C88   A    
C61   C70   A    
C88   H36   S    
C44   H4    S    
C15   I3    S    
C46   N2    A    
C17   H10   S    
C16   I4    S    
C45   N1    A    
O18   V4    S    
C15   C19   A    
C91   F3    S    
C76   C96   A    
C87   C91   A    
C19   H12   S    
C32   C44   A    
N3    C51   A    
O11   V3    S    
O4    V2    S    
C39   H15   S    
C21   H6    S    
O8    V4    S    
O7    C3    A    
C47   O23   S    
C73   C93   A    
C2    C83   S    
C74   C78   A    
C53   C65   A    
N3    C96   S    
C3    C82   S    
C31   C43   A    
C14   C30   A    
C21   C25   A    
C91   C95   A    
O8    C4    A    
C7    C10   S    
C55   C67   A    
O9    C5    A    
C46   O22   S    
C45   O21   S    
C66   H18   S    
O14   V2    S    
C50   O26   S    
C92   C96   A    
C65   H17   S    
O6    V2    S    
C79   H31   S    
N2    C93   S    
C67   H19   S    
C12   C20   A    
C27   C35   A    
C49   C53   A    
C68   C72   A    
C29   C41   A    
C59   C63   A    
O16   V4    S    
C51   O27   S    
C3    O13   A    
C4    C81   S    
C86   C90   A    
C20   H11   S    
C52   O28   S    
O5    C1    A    
C74   H26   S    
C25   C33   A    
C23   C27   A    
C56   C68   A    
C30   C42   A    
C65   C69   A    
O12   V4    S    
C22   C26   A    
C73   C77   A    
C8    C9    S    
C75   H27   S    
C9    C17   A    
O10   C6    A    
O20   V2    S    
C89   F1    S    
C80   C84   A    
C54   C58   A    
C67   C71   A    
N4    C95   S    
C78   C82   A    
C33   C34   A    
C42   H2    S    
O4    C8    A    
C41   H1    S    
C52   C56   A    
C79   C83   A    
C75   C79   A    
C12   C24   A    
C27   C31   A    
C22   H5    S    
C85   H33   S    
C89   C93   A    
C63   C72   A    
C68   H20   S    
C92   F4    S    
O6    C2    A    
C13   I1    S    
C37   C41   A    
C24   C28   A    
C47   C63   A    
C88   C92   A    
C18   H9    S    
C76   C80   A    
C82   C86   A    
C4    O14   A    
C59   C60   A    
C86   H34   S    
C75   C95   A    
C37   H13   S    
C85   C89   A    
C53   C57   A    
C28   C32   A    
