data_mof_unit_44356.cif
_audit_creation_date              2012-12-10T17:38:45-0500
_audit_creation_method            fapswitch 2.2
_symmetry_space_group_name_H-M    P1
_symmetry_Int_Tables_number       1
_space_group_crystal_system       triclinic
_cell_length_a                    12.364479
_cell_length_b                    13.355452
_cell_length_c                    23.545127
_cell_angle_alpha                 77.36282
_cell_angle_beta                  102.268345
_cell_angle_gamma                 116.86343
_cell_volume                      3355.51830024

loop_
_atom_site_label
_atom_site_type_symbol
_atom_type_description
_atom_site_fract_x
_atom_site_fract_y
_atom_site_fract_z
_atom_type_partial_charge
C1    C     C_R   0.854250 0.287948 0.502247 0.845297
C2    C     C_R   0.884383 0.299652 0.043934 -0.248670
C3    C     C_R   0.875665 0.296986 0.984028 0.501179
C4    C     C_R   0.937048 0.397967 0.946664 -0.098463
C5    C     C_R   0.010460 0.499541 0.970909 -0.144819
C6    C     C_R   0.078970 0.599182 0.935073 -0.098746
C7    C     C_R   0.146184 0.701902 0.959373 0.502314
C8    C     C_R   0.146427 0.703104 0.018727 -0.248134
C9    C     C_R   0.927167 0.400821 0.885698 0.561101
C10   C     C_R   0.077911 0.592692 0.876000 0.560056
C11   C     C_R   0.983115 0.581787 0.747864 -0.092151
C12   C     C_R   0.998967 0.498346 0.608683 0.816964
C13   C     C_R   0.985763 0.583342 0.688799 -0.290072
C14   C     C_R   0.994770 0.494490 0.670751 -0.131422
C15   C     C_R   0.992603 0.399963 0.711834 0.416596
C16   C     C_R   0.000490 0.403263 0.771557 -0.193792
C17   C     C_R   0.994923 0.493791 0.790210 0.259941
C18   C     C_R   0.901685 0.450058 0.232948 -0.188710
C19   C     C_R   0.897250 0.441386 0.292732 0.453288
C20   C     C_R   0.002803 0.503532 0.328875 -0.113908
C21   C     C_R   0.114054 0.564643 0.305747 -0.325424
C22   C     C_R   0.120121 0.564731 0.247214 -0.115928
C23   C     C_R   0.145202 0.712749 0.492401 0.812631
C24   C     C_R   0.013518 0.508333 0.209970 0.267636
C25   C     C_R   0.265092 0.029751 0.477263 -0.206862
C26   C     C_R   0.228148 0.833389 0.487252 -0.135914
C27   C     C_R   0.817020 0.086986 0.520920 -0.322912
C28   C     C_R   0.739595 0.970773 0.529543 0.524420
C29   C     C_R   0.613989 0.937292 0.518516 -0.167239
C30   C     C_R   0.563058 0.014999 0.492531 -0.065255
C31   C     C_R   0.641373 0.131349 0.479235 -0.030963
C32   C     C_R   0.435026 0.980577 0.483422 -0.001599
C33   C     C_R   0.388858 0.062699 0.474228 0.048688
C34   C     C_R   0.000072 0.500538 0.391219 0.843114
C35   C     C_R   0.464475 0.175099 0.456678 -0.333436
C36   C     C_R   0.586457 0.205806 0.449185 0.503449
C37   C     C_R   0.350848 0.867316 0.480939 0.445772
C38   C     C_R   0.186510 0.915181 0.487066 -0.297808
C39   C     C_R   0.769832 0.167827 0.498189 -0.166776
C40   C     C_R   0.345052 0.322161 0.589149 0.279984
C41   C     C_R   0.755173 0.639084 0.418107 0.528705
C42   C     C_R   0.647530 0.652198 0.392808 0.257370
C43   C     C_R   0.539827 0.588455 0.419460 0.330540
C44   C     C_R   0.543402 0.521969 0.475040 -0.127576
C45   C     C_R   0.077586 0.605120 0.113945 0.570944
C46   C     C_R   0.651509 0.503084 0.495524 0.115368
C47   C     C_R   0.440989 0.465651 0.508591 -0.028661
C48   C     C_R   0.443202 0.380538 0.556092 -0.016608
C49   C     C_R   0.545191 0.356754 0.571823 -0.216072
C50   C     C_R   0.647611 0.418668 0.543463 -0.099656
C51   C     C_R   0.337830 0.491809 0.498530 -0.045134
C52   C     C_R   0.253235 0.360302 0.580866 0.547374
C53   C     C_R   0.960876 0.404470 0.127668 0.559607
C54   C     C_R   0.953047 0.401142 0.067758 -0.062784
C55   C     C_R   0.014877 0.501538 0.031149 -0.022734
C56   C     C_R   0.080761 0.603932 0.054780 -0.069554
Cu1   Cu    Cu3+1 0.098270 0.475410 0.513370 0.998090
Cu2   Cu    Cu3+1 0.901730 0.524590 0.486630 1.002878
H1    H     H_    0.835172 0.221672 0.071441 0.201831
H2    H     H_    0.092283 0.890820 0.491563 0.161159
H3    H     H_    0.424503 0.235259 0.444251 0.142062
H4    H     H_    0.914007 0.115063 0.535288 0.181243
H5    H     H_    0.557258 0.849590 0.533178 0.204968
H6    H     H_    0.548594 0.292082 0.608180 0.188787
H7    H     H_    0.331396 0.558479 0.464856 0.241289
H8    H     H_    0.720990 0.395085 0.560094 0.186995
H9    H     H_    0.973946 0.650306 0.760747 0.166354
H10   H     H_    0.981353 0.654198 0.657158 0.170828
H11   H     H_    0.008215 0.333792 0.803196 0.171371
H12   H     H_    0.818271 0.406246 0.205038 0.174804
N1    N     N_R   0.018504 0.506066 0.149489 -0.447899
N2    N     N_R   0.999992 0.495820 0.851930 -0.464068
N3    N     N_R   0.246280 0.438190 0.533650 -0.265354
N4    N     N_R   0.754320 0.561190 0.466710 -0.262145
O1    O     O_R   0.972510 0.318130 0.516820 -0.562436
O2    O     O_2   0.911816 0.306447 0.163875 -0.567806
O3    O     O_2   0.843868 0.310124 0.860089 -0.492318
O4    O     O_2   0.155391 0.681850 0.843013 -0.488943
O5    O     O_R   0.806530 0.359650 0.494230 -0.558461
O6    O     O_R   0.082990 0.479200 0.593420 -0.525715
O7    O     O_R   0.917010 0.520720 0.570830 -0.619543
O8    O     O_R   0.193470 0.640350 0.505770 -0.543339
O9    O     O_R   0.027490 0.681870 0.483180 -0.568580
O10   O     O_R   0.082990 0.479280 0.429170 -0.607769
O11   O     O_R   0.917010 0.520800 0.406580 -0.482148
O12   O     O_2   0.131054 0.704922 0.135250 -0.548722
O13   O     O_3   0.790640 0.368118 0.315899 -0.568780
C57   C     C_3   0.786365 0.258132 0.327669 -0.269961
H13   H     H_    0.860510 0.253645 0.362982 0.142279
H14   H     H_    0.791362 0.229899 0.287546 0.168450
H15   H     H_    0.697808 0.197356 0.343231 0.201193
H16   H     H_    0.196745 0.610696 0.333373 0.182362
H17   H     H_    0.208081 0.608179 0.231119 0.177322
H18   H     H_    0.229365 0.092355 0.472036 0.139379
O14   O     O_3   0.383951 0.793419 0.463825 -0.588594
C58   C     C_3   0.370204 0.809443 0.401939 -0.344743
H19   H     H_    0.276624 0.800766 0.382205 0.153760
H20   H     H_    0.383386 0.742846 0.387810 0.224734
H21   H     H_    0.440394 0.892950 0.384750 0.161094
O15   O     O_3   0.780284 0.887609 0.555702 -0.570410
C59   C     C_3   0.893798 0.910842 0.539522 -0.348187
H22   H     H_    0.970023 0.966865 0.568704 0.170909
H23   H     H_    0.901776 0.948378 0.492619 0.135578
H24   H     H_    0.902404 0.829852 0.545655 0.193329
O16   O     O_3   0.803631 0.195485 0.962283 -0.525483
C60   C     C_3   0.872415 0.131600 0.972353 -0.233477
H25   H     H_    0.957418 0.178205 0.951014 0.148390
H26   H     H_    0.816605 0.052324 0.952672 0.199666
H27   H     H_    0.894996 0.107200 0.020136 0.143334
O17   O     O_3   0.652424 0.301685 0.411516 -0.535512
C61   C     C_3   0.580127 0.350186 0.371947 -0.200605
H28   H     H_    0.546789 0.391465 0.395469 0.111137
H29   H     H_    0.503817 0.286626 0.346161 0.137109
H30   H     H_    0.637654 0.418678 0.340633 0.232636
O18   O     O_3   0.168584 0.317131 0.619980 -0.532829
C62   C     C_3   0.227968 0.352429 0.675526 -0.108861
H31   H     H_    0.326705 0.370644 0.685299 0.128313
H32   H     H_    0.182170 0.284298 0.710445 0.203637
H33   H     H_    0.220723 0.430292 0.679507 0.162198
O19   O     O_3   0.344540 0.235733 0.634171 -0.573939
C63   C     C_3   0.281815 0.132150 0.611300 -0.287788
H34   H     H_    0.272936 0.061961 0.647995 0.201038
H35   H     H_    0.334440 0.127165 0.580029 0.167528
H36   H     H_    0.187804 0.119030 0.589927 0.152819
O20   O     O_3   0.857185 0.691295 0.388814 -0.517207
C64   C     C_3   0.906456 0.810289 0.385608 -0.241760
H37   H     H_    0.895936 0.837699 0.424674 0.101082
H38   H     H_    0.865782 0.847275 0.344893 0.196058
H39   H     H_    0.005757 0.845784 0.382962 0.176558
O21   O     O_3   0.430195 0.582243 0.387229 -0.598865
C65   C     C_3   0.378538 0.487360 0.357005 -0.324058
H40   H     H_    0.356228 0.406895 0.387997 0.149175
H41   H     H_    0.439311 0.494887 0.326049 0.183742
H42   H     H_    0.291677 0.483157 0.330475 0.195930
O22   O     O_3   0.644679 0.712904 0.337043 -0.549185
C66   C     C_3   0.612198 0.801723 0.336936 -0.256688
H43   H     H_    0.634469 0.831868 0.380424 0.135405
H44   H     H_    0.513687 0.775272 0.320512 0.201865
H45   H     H_    0.663638 0.875272 0.305637 0.165374
O23   O     O_3   0.214818 0.801385 0.925950 -0.525126
C67   C     C_3   0.147281 0.866853 0.907693 -0.230763
H46   H     H_    0.133559 0.894829 0.945713 0.137985
H47   H     H_    0.057573 0.819895 0.882037 0.150407
H48   H     H_    0.199724 0.944078 0.878537 0.201146
H49   H     H_    0.199133 0.782456 0.036371 0.201315
O24   O     O_3   0.983189 0.304091 0.694106 -0.580923
C68   C     C_3   0.858419 0.233859 0.679394 -0.249140
H50   H     H_    0.851086 0.157203 0.664783 0.196750
H51   H     H_    0.814712 0.276726 0.642397 0.123436
H52   H     H_    0.808037 0.205478 0.718130 0.176484

loop_
_geom_bond_atom_site_label_1
_geom_bond_atom_site_label_2
_ccdc_geom_bond_type
C18   H12   S    
C55   C56   A    
C29   H5    S    
C59   H22   S    
C23   O8    A    
C45   N1    A    
C41   C42   A    
O14   C58   S    
C9    N2    A    
O13   C57   S    
C65   H42   S    
C8    C56   A    
C10   O4    S    
O22   C66   S    
C53   C54   A    
C3    O16   S    
C64   H37   S    
C23   O9    A    
C18   C24   A    
C28   C29   A    
C68   H51   S    
C19   O13   S    
C67   H47   S    
C30   C31   A    
C13   H10   S    
C60   H25   S    
C15   C16   A    
C58   H21   S    
C62   H31   S    
C37   O14   S    
C18   C19   A    
C51   H7    S    
C23   C26   S    
Cu1   N3    S    
O17   C61   S    
C63   H36   S    
C68   H50   S    
C41   N4    A    
C8    H49   S    
C45   C56   A    
C27   C39   A    
C16   C17   A    
C58   H20   S    
C13   C14   A    
C44   C47   A    
C20   C34   S    
C28   O15   S    
C25   H18   S    
C59   H23   S    
C49   H6    S    
C21   C22   A    
Cu1   O6    S    
C34   O10   A    
C66   H45   S    
C44   C46   A    
C1    O1    A    
C41   O20   S    
C7    C8    A    
C68   H52   S    
O23   C67   S    
C61   H29   S    
C52   N3    A    
C2    C54   A    
Cu2   O7    S    
C2    H1    S    
C26   C38   A    
C47   C51   A    
C64   H39   S    
C40   C52   A    
C3    C4    A    
C42   O22   S    
C34   O11   A    
C43   C44   A    
C29   C30   A    
C27   H4    S    
C25   C38   A    
C47   C48   A    
C14   C15   A    
C57   H15   S    
C58   H19   S    
Cu1   O10   S    
C35   H3    S    
C9    O3    S    
C32   C37   A    
C57   H13   S    
C50   H8    S    
C63   H34   S    
Cu2   O5    S    
C38   H2    S    
C66   H44   S    
C48   C49   A    
C40   O19   S    
C12   C14   S    
C59   H24   S    
C36   O17   S    
O20   C64   S    
C1    O5    A    
C22   H17   S    
C22   C24   A    
C67   H48   S    
C53   O2    S    
C42   C43   A    
C11   H9    S    
C65   H40   S    
C53   N1    A    
Cu2   O11   S    
C46   N4    A    
O19   C63   S    
Cu2   N4    S    
O24   C68   S    
C52   O18   S    
C40   C48   A    
C54   C55   A    
C11   C17   A    
C64   H38   S    
C61   H28   S    
C31   C36   A    
C5    C55   A    
C43   O21   S    
C16   H11   S    
C51   N3    A    
C57   H14   S    
C4    C5    A    
C65   H41   S    
C6    C10   A    
C15   O24   S    
C26   C37   A    
C6    C7    A    
O16   C60   S    
C46   C50   A    
C62   H33   S    
C32   C33   A    
Cu1   O1    S    
C19   C20   A    
O21   C65   S    
Cu2   O9    S    
C30   C32   A    
C11   C13   A    
Cu1   Cu2   S    
C5    C6    A    
C60   H26   S    
C12   O6    A    
O15   C59   S    
C33   C35   A    
C62   H32   S    
C12   O7    A    
C45   O12   S    
C61   H30   S    
C63   H35   S    
C1    C39   S    
C7    O23   S    
C20   C21   A    
C17   N2    S    
C49   C50   A    
C27   C28   A    
C31   C39   A    
Cu1   O8    S    
C66   H43   S    
C2    C3    A    
C35   C36   A    
C4    C9    A    
C67   H46   S    
C21   H16   S    
O18   C62   S    
C24   N1    S    
C25   C33   A    
C60   H27   S    
C10   N2    A    
