data_mof_unit_60208.cif
_audit_creation_date              2012-12-10T17:16:39-0500
_audit_creation_method            fapswitch 2.2
_symmetry_space_group_name_H-M    P1
_symmetry_Int_Tables_number       1
_space_group_crystal_system       triclinic
_cell_length_a                    18.776582
_cell_length_b                    18.874344
_cell_length_c                    18.774784
_cell_angle_alpha                 109.158207
_cell_angle_beta                  109.408619
_cell_angle_gamma                 109.653505
_cell_volume                      5134.13486831

loop_
_atom_site_label
_atom_site_type_symbol
_atom_type_description
_atom_site_fract_x
_atom_site_fract_y
_atom_site_fract_z
_atom_type_partial_charge
C1    C     C_R   0.618892 0.119008 0.000126 0.787429
C2    C     C_R   0.817381 0.239332 0.992324 -0.184493
C3    C     C_R   0.813993 0.314462 0.000432 -0.019158
C4    C     C_R   0.746256 0.325181 0.008461 -0.170400
C5    C     C_R   0.681313 0.260282 0.006854 -0.164458
C6    C     C_R   0.685737 0.186019 0.000347 -0.010274
C7    C     C_R   0.499444 0.743931 0.823076 -0.174621
C8    C     C_R   0.497900 0.679430 0.758610 -0.176226
C9    C     C_R   0.498970 0.687340 0.687347 -0.010505
C10   C     C_R   0.499799 0.758937 0.679737 -0.175026
C11   C     C_R   0.498324 0.821938 0.742698 -0.176962
C12   C     C_R   0.497735 0.115427 0.118581 0.818973
C13   C     C_R   0.499040 0.814913 0.814846 -0.010620
C14   C     C_R   0.322050 0.820105 0.078685 -0.175943
C15   C     C_R   0.257268 0.756625 0.078633 -0.176165
C16   C     C_R   0.186039 0.685300 0.999650 -0.009906
C17   C     C_R   0.179000 0.678212 0.920699 -0.174845
C18   C     C_R   0.242287 0.743221 0.920759 -0.174468
C19   C     C_R   0.314196 0.813878 0.999761 -0.009302
C20   C     C_R   0.618963 0.502487 0.621294 0.783851
C21   C     C_R   0.498381 0.385609 0.382777 0.744306
C22   C     C_R   0.381034 0.503769 0.384709 0.790406
C23   C     C_R   0.381063 0.880971 0.999905 0.773031
C24   C     C_R   0.499698 0.621247 0.621204 0.775688
C25   C     C_R   0.881031 0.500662 0.881597 0.777511
C26   C     C_R   0.880798 0.381197 0.999975 0.781403
C27   C     C_R   0.118290 0.498962 0.118217 0.813329
C28   C     C_R   0.118908 0.618738 0.999765 0.774104
C29   C     C_R   0.758447 0.580364 0.758311 -0.174059
C30   C     C_R   0.821842 0.579898 0.822627 -0.173304
C31   C     C_R   0.814334 0.501008 0.814850 -0.011069
C32   C     C_R   0.742619 0.422571 0.743350 -0.174424
C33   C     C_R   0.677700 0.423044 0.680550 -0.168749
C34   C     C_R   0.499725 0.881719 0.881670 0.776347
C35   C     C_R   0.685912 0.501946 0.687623 -0.010355
C36   C     C_R   0.326372 0.513277 0.250920 -0.172240
C37   C     C_R   0.260924 0.509584 0.184715 -0.240798
C38   C     C_R   0.183530 0.497654 0.185441 -0.039026
C39   C     C_R   0.170486 0.487384 0.251958 0.260410
C40   C     C_R   0.236019 0.489663 0.317357 -0.242494
C41   C     C_R   0.313822 0.502831 0.317026 -0.049206
C42   C     C_2   0.425755 0.245337 0.251266 -0.292243
C43   C     C_2   0.497135 0.322905 0.311254 0.460479
C44   C     C_2   0.424913 0.184646 0.177094 -0.118165
C45   C     C_2   0.495036 0.175810 0.188237 -0.222153
C46   C     C_R   0.754241 0.175949 0.993962 -0.176299
Cu1   Cu    Cu3+1 0.438200 0.000380 0.938580 0.957238
Cu2   Cu    Cu3+1 0.561800 0.999620 0.061420 0.958078
Cu3   Cu    Cu3+1 0.438220 0.441470 0.503160 0.946633
Cu4   Cu    Cu3+1 0.561830 0.565070 0.503150 0.983947
Cu5   Cu    Cu3+1 0.999900 0.438590 0.938490 0.951793
Cu6   Cu    Cu3+1 0.999930 0.561410 0.061340 0.968271
H1    H     H_    0.365692 0.227889 0.253863 0.128956
H2    H     H_    0.497592 0.624367 0.765066 0.141174
H3    H     H_    0.500272 0.765277 0.624569 0.140710
H4    H     H_    0.498332 0.876854 0.736094 0.140439
H5    H     H_    0.377367 0.874732 0.140054 0.139476
H6    H     H_    0.263280 0.762360 0.139966 0.139949
H7    H     H_    0.123866 0.623376 0.859351 0.142208
H8    H     H_    0.236007 0.737798 0.859444 0.141949
H9    H     H_    0.765094 0.641663 0.764386 0.140657
H10   H     H_    0.877314 0.640842 0.877630 0.140884
H11   H     H_    0.736203 0.361292 0.737113 0.140533
H12   H     H_    0.621938 0.362108 0.625843 0.140667
H13   H     H_    0.386161 0.522922 0.249850 0.157017
H14   H     H_    0.271269 0.517785 0.133835 0.152152
H15   H     H_    0.226304 0.481361 0.368483 0.145898
H16   H     H_    0.365109 0.144009 0.114628 0.155817
H17   H     H_    0.550798 0.209106 0.253063 0.196290
H18   H     H_    0.757797 0.118447 0.988608 0.138020
H19   H     H_    0.869582 0.230487 0.986236 0.142485
H20   H     H_    0.742815 0.382821 0.014268 0.145693
H21   H     H_    0.628529 0.268487 0.012094 0.146084
H22   H     H_    0.499629 0.737925 0.878575 0.141495
O1    O     O_R   0.537990 0.090490 0.948120 -0.584665
O2    O     O_R   0.642390 0.554900 0.592760 -0.578833
O3    O     O_R   0.447840 0.361480 0.413570 -0.618889
O4    O     O_R   0.552220 0.465860 0.413560 -0.531725
O5    O     O_R   0.357660 0.451630 0.413550 -0.586779
O6    O     O_R   0.462040 0.556010 0.413540 -0.589491
O7    O     O_R   0.447820 0.540680 0.592750 -0.585446
O8    O     O_R   0.552200 0.645050 0.592740 -0.587719
O9    O     O_R   0.909730 0.448730 0.858460 -0.584464
O10   O     O_R   0.909750 0.552440 0.962210 -0.586485
O11   O     O_R   0.909720 0.357980 0.948050 -0.590104
O12   O     O_R   0.642370 0.089850 0.051860 -0.580446
O13   O     O_R   0.909750 0.461690 0.051790 -0.574299
O14   O     O_R   0.090070 0.447560 0.037620 -0.594189
O15   O     O_R   0.090100 0.551270 0.141360 -0.560018
O16   O     O_R   0.090070 0.538310 0.948030 -0.585096
O17   O     O_R   0.090100 0.642020 0.051770 -0.588252
O18   O     O_R   0.447800 0.089920 0.037730 -0.576685
O19   O     O_R   0.552180 0.089280 0.141460 -0.586497
O20   O     O_R   0.357630 0.910150 0.948140 -0.586884
O21   O     O_R   0.462010 0.909510 0.051880 -0.587715
O22   O     O_R   0.447820 0.910720 0.858540 -0.585927
O23   O     O_R   0.552200 0.910080 0.962270 -0.585914
O24   O     O_R   0.538000 0.450530 0.592770 -0.586404
F1    F     F_    0.567848 0.350840 0.300535 -0.654218
N1    N     N_2   0.091546 0.473886 0.252814 -0.423719
H23   H     H_    0.099380 0.498834 0.314436 0.251134
C47   C     C_3   0.020545 0.385410 0.196105 -0.668806
H24   H     H_    0.035679 0.342536 0.219579 0.220538
H25   H     H_    0.008824 0.362233 0.128602 0.215608
H26   H     H_    0.960050 0.381702 0.195519 0.238569

loop_
_geom_bond_atom_site_label_1
_geom_bond_atom_site_label_2
_ccdc_geom_bond_type
C16   C28   S    
C25   C31   S    
Cu2   O21   S    
Cu1   O18   S    
Cu5   O11   S    
C36   C41   A    
C7    C8    A    
C2    C46   A    
Cu2   O23   S    
C29   C30   A    
C36   C37   A    
C34   O22   A    
C22   O5    A    
C33   H12   S    
Cu5   O16   S    
C30   C31   A    
C22   C41   S    
C27   C38   S    
C15   C16   A    
C34   O23   A    
C20   O2    A    
C47   H26   S    
C18   C19   A    
C26   O13   A    
Cu3   O7    S    
Cu6   O10   S    
C24   O8    A    
Cu3   O24   S    
C21   C43   S    
C20   C35   S    
C31   C32   A    
C23   O21   A    
C8    C9    A    
C40   H15   S    
C21   O4    A    
C25   O10   A    
Cu1   O22   S    
C9    C10   A    
Cu6   O15   S    
C47   H24   S    
C42   C44   S    
Cu4   O4    S    
C7    H22   S    
Cu6   O13   S    
C38   C39   A    
C29   H9    S    
Cu2   O19   S    
C45   H17   S    
Cu5   Cu6   S    
C1    O1    A    
C8    H2    S    
C39   C40   A    
C36   H13   S    
C16   C17   A    
C1    C6    S    
C19   C23   S    
C24   O7    A    
C37   C38   A    
Cu4   O2    S    
Cu1   Cu2   S    
C37   H14   S    
N1    C47   S    
C17   C18   A    
C47   H25   S    
C10   H3    S    
C17   H7    S    
C18   H8    S    
C40   C41   A    
C30   H10   S    
C15   H6    S    
Cu2   O12   S    
C12   O19   A    
C44   H16   S    
C42   C43   D    
C3    C4    A    
Cu5   O9    S    
C4    H20   S    
C44   C45   D    
Cu4   O8    S    
C1    O12   A    
C14   H5    S    
C6    C46   A    
C14   C19   A    
C12   O18   A    
C3    C26   S    
C32   H11   S    
C43   F1    S    
C12   C45   S    
Cu4   O6    S    
Cu5   O14   S    
C9    C24   S    
C29   C35   A    
C23   O20   A    
C32   C33   A    
C2    C3    A    
Cu1   O1    S    
C13   C34   S    
C42   H1    S    
C11   C13   A    
C39   N1    S    
C5    C6    A    
C26   O11   A    
C4    C5    A    
N1    H23   S    
C33   C35   A    
Cu1   O20   S    
Cu3   O3    S    
C27   O15   A    
C28   O17   A    
C5    H21   S    
C27   O14   A    
C46   H18   S    
C10   C11   A    
C22   O6    A    
Cu3   O5    S    
C7    C13   A    
C20   O24   A    
Cu3   Cu4   S    
C21   O3    A    
C25   O9    A    
C14   C15   A    
Cu6   O17   S    
C28   O16   A    
C11   H4    S    
C2    H19   S    
