data_mof_unit_33890.cif
_audit_creation_date              2012-12-11T15:45:07-0500
_audit_creation_method            fapswitch 2.2
_symmetry_space_group_name_H-M    P1
_symmetry_Int_Tables_number       1
_space_group_crystal_system       triclinic
_cell_length_a                    19.177128
_cell_length_b                    11.047873
_cell_length_c                    18.790501
_cell_angle_alpha                 90.448017
_cell_angle_beta                  89.876746
_cell_angle_gamma                 89.816079
_cell_volume                      3980.92555933

loop_
_atom_site_label
_atom_site_type_symbol
_atom_type_description
_atom_site_fract_x
_atom_site_fract_y
_atom_site_fract_z
_atom_type_partial_charge
C1    C     C_R   0.775413 0.479082 0.638494 0.541935
C2    C     C_R   0.191218 0.053626 0.539951 0.200869
C3    C     C_R   0.486774 0.945880 0.967262 -0.016257
C4    C     C_R   0.975947 0.228544 0.970469 0.258358
C5    C     C_R   0.975311 0.233634 0.045325 0.241286
C6    C     C_R   0.474688 0.728844 0.970794 0.259882
C7    C     C_R   0.474299 0.734293 0.045649 0.240363
C8    C     C_3   0.038951 0.556453 0.036904 -0.215994
C9    C     C_3   0.032571 0.551858 0.956846 -0.262115
C10   C     C_3   0.540534 0.055364 0.036451 -0.212166
C11   C     C_3   0.533969 0.050613 0.956418 -0.264786
C12   C     C_R   0.762653 0.525670 0.854574 0.556196
C13   C     C_R   0.232042 0.698175 0.448432 0.187381
C14   C     C_R   0.239176 0.529699 0.146939 0.535828
C15   C     C_R   0.262981 0.024546 0.854958 0.552587
C16   C     C_R   0.739176 0.029680 0.146942 0.538276
C17   C     C_R   0.771555 0.126839 0.852990 0.556054
C18   C     C_R   0.228200 0.123116 0.148212 0.514952
C19   C     C_R   0.271517 0.626744 0.852957 0.554549
C20   C     C_R   0.728023 0.623537 0.147996 0.522340
C21   C     C_R   0.967316 0.346233 0.855275 0.542302
C22   C     C_R   0.028641 0.347230 0.147600 0.543221
C23   C     C_R   0.467176 0.846210 0.855340 0.541971
C24   C     C_R   0.710218 0.459849 0.523543 0.214586
C25   C     C_R   0.528760 0.847282 0.147529 0.521009
C26   C     C_R   0.745073 0.087539 0.424141 0.025934
C27   C     C_R   0.259420 0.045057 0.567717 0.022286
C28   C     C_R   0.256127 0.585556 0.422048 -0.016239
C29   C     C_R   0.769158 0.500621 0.562234 -0.009421
C30   C     C_R   0.715114 0.022387 0.479716 -0.013949
C31   C     C_R   0.315347 0.068474 0.522377 -0.045047
C32   C     C_R   0.295436 0.511198 0.466802 0.031440
C33   C     C_R   0.814981 0.576037 0.527017 -0.028930
C34   C     C_R   0.728654 0.048798 0.550338 -0.004214
C35   C     C_3   0.720384 0.890201 0.492514 0.107512
C36   C     C_R   0.305518 0.089518 0.451577 0.044782
C37   C     C_R   0.300748 0.534441 0.537789 -0.013918
C38   C     C_R   0.803160 0.616191 0.459508 0.069054
C39   C     C_3   0.791667 0.863865 0.609544 -0.232210
C40   C     C_3   0.779236 0.848437 0.689890 -0.271523
C41   C     C_3   0.847278 0.822832 0.729360 -0.393597
C42   C     C_3   0.367029 0.928308 0.376761 -0.256937
C43   C     C_3   0.372736 0.963656 0.298043 -0.299780
C44   C     C_3   0.371403 0.852034 0.249635 -0.421914
C45   C     C_3   0.340807 0.349001 0.608730 -0.234622
C46   C     C_3   0.384711 0.011488 0.507896 0.107972
C47   C     C_3   0.310432 0.328727 0.683615 -0.267811
C48   C     C_3   0.368031 0.304252 0.737647 -0.391709
C49   C     C_3   0.910343 0.597520 0.377611 -0.239265
C50   C     C_3   0.930437 0.702966 0.328396 -0.321351
C51   C     C_3   0.959893 0.659740 0.257126 -0.389500
C52   C     C_3   0.288866 0.378457 0.478744 0.131588
C53   C     C_3   0.891833 0.580416 0.517905 0.096487
C54   C     C_3   0.727132 0.917580 0.571971 -0.104145
C55   C     C_3   0.373689 0.037946 0.427925 -0.106680
C56   C     C_3   0.285942 0.406057 0.558700 -0.122510
C57   C     C_R   0.239794 0.534349 0.353044 0.514744
C58   C     C_3   0.878423 0.645809 0.447107 -0.102367
C59   C     C_R   0.775876 0.139829 0.566488 -0.038455
C60   C     C_R   0.239478 0.089346 0.423332 0.021816
C61   C     C_R   0.273586 0.639252 0.566205 -0.037599
C62   C     C_R   0.747761 0.571475 0.419632 -0.002662
C63   C     C_R   0.038008 0.346557 0.438372 0.003577
C64   C     C_R   0.020966 0.321905 0.586904 0.067609
C65   C     C_R   0.535008 0.848869 0.439130 -0.005014
C66   C     C_R   0.524701 0.833154 0.589079 0.045955
C67   C     C_R   0.963743 0.161252 0.423975 0.279999
C68   C     C_R   0.270836 0.996715 0.637685 0.569760
C69   C     C_R   0.988882 0.104520 0.566718 0.268691
C70   C     C_R   0.485646 0.638326 0.435321 0.257427
C71   C     C_R   0.523516 0.611596 0.578678 0.264522
C72   C     C_R   0.945654 0.047556 0.450566 -0.163381
C73   C     C_R   0.960617 0.017870 0.520150 -0.166551
C74   C     C_R   0.484753 0.524724 0.467308 -0.133884
C75   C     C_R   0.504409 0.511026 0.537760 -0.084969
C76   C     C_R   0.006188 0.221967 0.540921 0.022402
C77   C     C_R   0.004111 0.242308 0.466603 0.007964
C78   C     C_R   0.522894 0.727297 0.547234 0.023054
C79   C     C_R   0.738890 0.035941 0.353059 0.545806
C80   C     C_R   0.515623 0.737963 0.472471 0.025009
C81   C     C_R   0.056927 0.422528 0.560439 -0.014339
C82   C     C_R   0.060991 0.440715 0.486172 -0.041885
C83   C     C_R   0.547776 0.940971 0.558230 -0.056852
C84   C     C_R   0.548367 0.953417 0.483475 -0.056453
C85   C     C_R   0.791254 0.169252 0.639140 0.527469
C86   C     C_R   0.226235 0.124703 0.352555 0.529870
C87   C     C_R   0.289700 0.667208 0.638951 0.560396
C88   C     C_R   0.727320 0.623050 0.352458 0.554447
C89   C     C_R   0.079488 0.514152 0.607812 -0.141846
C90   C     C_R   0.800415 0.215019 0.512236 -0.123356
C91   C     C_R   0.077037 0.560017 0.463573 -0.154308
C92   C     C_R   0.564874 0.040222 0.602408 -0.144255
C93   C     C_R   0.558650 0.072675 0.457296 -0.168594
C94   C     C_R   0.086420 0.633323 0.584603 0.300951
C95   C     C_R   0.081086 0.656952 0.512339 0.300809
C96   C     C_R   0.566048 0.157283 0.575907 0.305471
C97   C     C_R   0.563145 0.173527 0.502513 0.279541
C98   C     C_R   0.746288 0.060332 0.072124 -0.016979
C99   C     C_R   0.259082 0.050364 0.930749 -0.037348
C100  C     C_R   0.246231 0.560282 0.072094 -0.017923
C101  C     C_R   0.181988 0.078765 0.468790 -0.123692
C102  C     C_R   0.758357 0.552757 0.930111 -0.037671
C103  C     C_R   0.773936 0.972145 0.026519 0.006039
C104  C     C_R   0.199458 0.014080 0.965757 0.081917
C105  C     C_R   0.273901 0.472160 0.026464 0.006475
C106  C     C_R   0.698551 0.517034 0.965047 0.082789
C107  C     C_R   0.773224 0.982935 0.953945 -0.038181
C108  C     C_R   0.193484 0.023603 0.037902 -0.006840
C109  C     C_R   0.273048 0.482699 0.953909 -0.036177
C110  C     C_R   0.692603 0.526340 0.037190 -0.005074
C111  C     C_R   0.705047 0.165539 0.966937 0.207546
C112  C     C_R   0.240181 0.723046 0.521450 -0.092657
C113  C     C_R   0.314056 0.083218 0.047086 0.185756
C114  C     C_R   0.204765 0.665079 0.966823 0.207314
C115  C     C_R   0.813354 0.584535 0.046396 0.188716
C116  C     C_R   0.707930 0.154271 0.041365 -0.110656
C117  C     C_R   0.318812 0.075836 0.972174 -0.110159
C118  C     C_R   0.207692 0.653968 0.041280 -0.112042
C119  C     C_R   0.818105 0.577643 0.971556 -0.109507
C120  C     C_3   0.841251 0.905134 0.026360 -0.228332
C121  C     C_3   0.126099 0.049371 0.952139 -0.241080
C122  C     C_3   0.340856 0.404114 0.026261 -0.225586
C123  C     C_R   0.700546 0.494043 0.453580 -0.066531
C124  C     C_3   0.625286 0.553046 0.951532 -0.245670
C125  C     C_3   0.839072 0.911451 0.945618 -0.262633
C126  C     C_3   0.118598 0.061268 0.031890 -0.199919
C127  C     C_3   0.338469 0.410081 0.945481 -0.263442
C128  C     C_3   0.617895 0.564944 0.031332 -0.201590
C129  C     C_R   0.746220 0.086680 0.922551 0.008536
C130  C     C_R   0.247668 0.070626 0.079425 -0.007463
C131  C     C_R   0.246084 0.586405 0.922465 0.009976
C132  C     C_R   0.747016 0.572207 0.078799 -0.004610
C133  C     C_R   0.974839 0.342960 0.649860 0.580793
C134  C     C_R   0.783080 0.193117 0.440724 0.216830
C135  C     C_R   0.057040 0.350942 0.361531 0.577118
C136  C     C_R   0.476784 0.844694 0.651597 0.616925
C137  C     C_R   0.554351 0.850855 0.361840 0.567870
C138  C     C_R   0.992686 0.343436 0.079633 -0.045257
C139  C     C_R   0.984754 0.337096 0.930406 -0.052320
C140  C     C_R   0.492701 0.843782 0.079645 -0.050573
C141  C     C_R   0.484411 0.836969 0.930503 -0.051064
C142  C     C_R   0.990831 0.449738 0.039687 0.039839
C143  C     C_R   0.986192 0.445915 0.967389 -0.015105
C144  C     C_R   0.491536 0.949920 0.039530 0.042013
Cr1   Cr    Cr6+3 0.885860 0.491680 0.749630 0.980080
Cr2   Cr    Cr6+3 0.112430 0.179310 0.249850 1.030443
Cr3   Cr    Cr6+3 0.387570 0.679310 0.750150 1.023444
Cr4   Cr    Cr6+3 0.612430 0.679310 0.249850 1.034311
Cr5   Cr    Cr6+3 0.114140 0.491680 0.250370 0.960965
Cr6   Cr    Cr6+3 0.385860 0.991680 0.749630 0.976258
Cr7   Cr    Cr6+3 0.614140 0.991680 0.250370 0.985455
Cr8   Cr    Cr6+3 0.730490 0.332970 0.748720 1.025314
Cr9   Cr    Cr6+3 0.269510 0.332970 0.251280 1.028491
Cr10  Cr    Cr6+3 0.230490 0.832970 0.748720 1.058459
Cr11  Cr    Cr6+3 0.769510 0.832970 0.251280 1.005083
Cr12  Cr    Cr6+3 0.887570 0.179310 0.750150 1.023507
H1    H     H_    0.833364 0.289889 0.526163 0.135418
H2    H     H_    0.095285 0.973627 0.929139 0.191368
H3    H     H_    0.544254 0.511837 0.661146 0.344043
H4    H     H_    0.334115 0.312743 0.047716 0.196828
H5    H     H_    0.594329 0.477441 0.928564 0.187457
H6    H     H_    0.884345 0.957990 0.050299 0.222371
H7    H     H_    0.122023 0.137139 0.923803 0.105455
H8    H     H_    0.384310 0.456421 0.049957 0.224345
H9    H     H_    0.621343 0.640833 0.923192 0.105167
H10   H     H_    0.882994 0.962110 0.922566 0.231180
H11   H     H_    0.110197 0.156392 0.049509 0.161404
H12   H     H_    0.382602 0.459743 0.922085 0.229099
H13   H     H_    0.129030 0.087276 0.449328 0.144217
H14   H     H_    0.609963 0.660131 0.049060 0.159382
H15   H     H_    0.829482 0.822125 0.920015 0.115430
H16   H     H_    0.082623 0.993422 0.055148 0.198899
H17   H     H_    0.328238 0.320759 0.920156 0.114490
H18   H     H_    0.581665 0.497517 0.054593 0.201187
H19   H     H_    0.092040 0.533061 0.055390 0.154426
H20   H     H_    0.004284 0.630956 0.934634 0.156324
H21   H     H_    0.593422 0.030542 0.054898 0.153148
H22   H     H_    0.506235 0.130256 0.934152 0.155114
H23   H     H_    0.015713 0.639388 0.061154 0.183553
H24   H     H_    0.220663 0.807292 0.543060 0.193875
H25   H     H_    0.081870 0.526745 0.929140 0.122474
H26   H     H_    0.518037 0.138986 0.060603 0.186410
H27   H     H_    0.583032 0.024276 0.928646 0.121945
H28   H     H_    0.673668 0.837240 0.477593 0.135765
H29   H     H_    0.426773 0.065396 0.532841 0.166031
H30   H     H_    0.239769 0.339850 0.457129 0.132938
H31   H     H_    0.918883 0.635326 0.559188 0.161937
H32   H     H_    0.678379 0.894674 0.600571 0.119428
H33   H     H_    0.410000 0.108821 0.408595 0.156962
H34   H     H_    0.231537 0.396313 0.578884 0.112272
H35   H     H_    0.654651 0.460320 0.426537 0.188862
H36   H     H_    0.890925 0.742727 0.455439 0.136973
H37   H     H_    0.919146 0.982098 0.417199 0.107718
H38   H     H_    0.949004 0.927318 0.538211 0.109618
H39   H     H_    0.468274 0.447043 0.436775 0.139145
H40   H     H_    0.502056 0.422611 0.561374 0.201871
H41   H     H_    0.079726 0.585331 0.408944 0.165267
H42   H     H_    0.083595 0.495770 0.664230 0.102712
H43   H     H_    0.560724 0.096087 0.402672 0.163120
H44   H     H_    0.572398 0.027355 0.659015 0.110512
H45   H     H_    0.094284 0.697621 0.680830 0.307511
H46   H     H_    0.678580 0.216712 0.074721 0.144880
H47   H     H_    0.068269 0.778623 0.439247 0.326938
H48   H     H_    0.568489 0.228764 0.671037 0.299764
H49   H     H_    0.562953 0.286211 0.422763 0.295632
H50   H     H_    0.639747 0.223828 0.897700 0.326737
H51   H     H_    0.365073 0.089825 0.135998 0.331119
H52   H     H_    0.139494 0.722770 0.897349 0.326965
H53   H     H_    0.864305 0.587717 0.134940 0.328858
H54   H     H_    0.999445 0.113222 0.896424 0.321034
H55   H     H_    0.949294 0.149444 0.131290 0.327812
H56   H     H_    0.497412 0.612249 0.897248 0.319748
H57   H     H_    0.368633 0.091172 0.946748 0.161079
H58   H     H_    0.448071 0.651343 0.131978 0.323041
H59   H     H_    0.784731 0.251624 0.343417 0.321991
H60   H     H_    0.101509 0.981113 0.550359 0.378909
H61   H     H_    0.205738 0.760734 0.355760 0.325074
H62   H     H_    0.685150 0.321519 0.577018 0.362300
H63   H     H_    0.388889 0.337405 0.483771 0.315175
H64   H     H_    0.896434 0.422752 0.469104 0.359469
H65   H     H_    0.820942 0.899231 0.473421 0.315026
H66   H     H_    0.347807 0.846770 0.504005 0.323160
H67   H     H_    0.875804 0.746059 0.704329 0.165788
H68   H     H_    0.178242 0.716317 0.074606 0.142747
H69   H     H_    0.881682 0.903325 0.728792 0.171656
H70   H     H_    0.835599 0.800102 0.785549 0.137499
H71   H     H_    0.754143 0.930329 0.713308 0.191571
H72   H     H_    0.742941 0.771493 0.698252 0.173641
H73   H     H_    0.801563 0.772912 0.588145 0.166970
H74   H     H_    0.839297 0.916476 0.598027 0.166735
H75   H     H_    0.417486 0.793764 0.259799 0.213881
H76   H     H_    0.323076 0.799090 0.258749 0.152470
H77   H     H_    0.372689 0.880405 0.193098 0.133959
H78   H     H_    0.328797 0.022748 0.282825 0.175456
H79   H     H_    0.868041 0.592346 0.946229 0.161101
H80   H     H_    0.421683 0.014343 0.288475 0.194875
H81   H     H_    0.409324 0.864391 0.388505 0.236962
H82   H     H_    0.317248 0.880186 0.385435 0.180670
H83   H     H_    0.400815 0.226400 0.720259 0.170909
H84   H     H_    0.401622 0.385381 0.743817 0.150277
H85   H     H_    0.344399 0.283421 0.790053 0.139622
H86   H     H_    0.279267 0.407485 0.702284 0.190340
H87   H     H_    0.273651 0.251586 0.682033 0.177941
H88   H     H_    0.358321 0.259902 0.588350 0.153650
H89   H     H_    0.387760 0.407250 0.611913 0.166876
H90   H     H_    0.835006 0.813554 0.047644 0.196598
H91   H     H_    0.016341 0.640132 0.262318 0.194323
H92   H     H_    0.932395 0.577544 0.237984 0.173782
H93   H     H_    0.953875 0.732140 0.216897 0.133582
H94   H     H_    0.884460 0.760986 0.318196 0.215524
H95   H     H_    0.969980 0.760993 0.355001 0.127641
H96   H     H_    0.957646 0.548954 0.391927 0.214757
H97   H     H_    0.874780 0.533404 0.349967 0.178969
H98   H     H_    0.910826 0.130902 0.336907 0.327628
H99   H     H_    0.991737 0.987071 0.643982 0.324921
H100  H     H_    0.429373 0.577857 0.355952 0.330713
O1    O     O_R   0.957020 0.451640 0.669920 -0.517850
O2    O     O_R   0.168040 0.093290 0.169870 -0.518175
O3    O     O_R   0.331960 0.593290 0.830130 -0.512723
O4    O     O_R   0.668040 0.593290 0.169870 -0.516394
O5    O     O_R   0.945600 0.250580 0.824860 -0.486208
O6    O     O_R   0.054400 0.250580 0.175140 -0.486135
O7    O     O_R   0.445600 0.750580 0.824860 -0.490401
O8    O     O_R   0.554400 0.750580 0.175140 -0.493714
O9    O     O_3   0.834640 0.334650 0.749500 -0.293636
O10   O     O_3   0.165360 0.334650 0.250500 -0.275279
O11   O     O_3   0.334640 0.834650 0.749500 -0.286378
O12   O     O_R   0.042980 0.451640 0.330080 -0.555809
O13   O     O_3   0.665360 0.834650 0.250500 -0.265510
O14   O     O_R   0.821450 0.543440 0.674610 -0.512724
O15   O     O_R   0.178550 0.543440 0.325390 -0.539752
O16   O     O_R   0.321450 0.043440 0.674610 -0.519888
O17   O     O_R   0.678550 0.043440 0.325390 -0.528192
O18   O     O_R   0.715320 0.458650 0.668100 -0.468951
O19   O     O_R   0.284680 0.458650 0.331900 -0.480342
O20   O     O_R   0.215320 0.958650 0.668100 -0.424919
O21   O     O_R   0.784680 0.958650 0.331900 -0.498498
O22   O     O_R   0.737170 0.209590 0.674530 -0.528811
O23   O     O_R   0.457020 0.951640 0.669920 -0.528116
O24   O     O_R   0.262830 0.209590 0.325470 -0.486154
O25   O     O_R   0.237170 0.709590 0.674530 -0.501800
O26   O     O_R   0.762830 0.709590 0.325470 -0.476546
O27   O     O_R   0.832710 0.092740 0.669580 -0.524538
O28   O     O_R   0.167290 0.092740 0.330420 -0.529322
O29   O     O_R   0.332710 0.592740 0.669580 -0.527429
O30   O     O_R   0.667290 0.592740 0.330420 -0.542765
O31   O     O_R   0.946290 0.250060 0.676040 -0.463565
O32   O     O_R   0.053710 0.250060 0.323960 -0.442494
O33   O     O_R   0.446290 0.750060 0.676040 -0.459968
O34   O     O_R   0.542980 0.951640 0.330080 -0.558894
O35   O     O_R   0.553710 0.750060 0.323960 -0.439192
O36   O     O_R   0.956270 0.452200 0.830470 -0.527540
O37   O     O_R   0.043730 0.452200 0.169530 -0.530205
O38   O     O_R   0.456270 0.952200 0.830470 -0.530977
O39   O     O_R   0.543730 0.952200 0.169530 -0.517146
O40   O     O_R   0.820760 0.543950 0.823440 -0.520064
O41   O     O_R   0.179240 0.543950 0.176560 -0.519334
O42   O     O_R   0.320760 0.043950 0.823440 -0.525190
O43   O     O_R   0.679240 0.043950 0.176560 -0.515244
O44   O     O_R   0.714570 0.459210 0.828640 -0.482698
O45   O     O_R   0.736470 0.210100 0.823360 -0.495380
O46   O     O_R   0.285430 0.459210 0.171360 -0.505031
O47   O     O_R   0.214570 0.959210 0.828640 -0.482594
O48   O     O_R   0.785430 0.959210 0.171360 -0.512877
O49   O     O_3   0.094471 0.728977 0.631520 -0.643315
O50   O     O_3   0.079488 0.775943 0.490666 -0.671964
O51   O     O_3   0.567585 0.256414 0.620960 -0.678623
O52   O     O_3   0.565044 0.288889 0.475452 -0.673306
O53   O     O_3   0.663557 0.256306 0.940446 -0.700002
O54   O     O_3   0.373518 0.109050 0.085337 -0.726999
O55   O     O_3   0.162961 0.755341 0.940268 -0.701965
O56   O     O_R   0.263530 0.210100 0.176640 -0.503520
O57   O     O_3   0.872878 0.609107 0.084675 -0.731853
O58   O     O_3   0.969536 0.116087 0.939312 -0.681995
O59   O     O_3   0.964656 0.128056 0.082381 -0.693396
O60   O     O_3   0.467181 0.616448 0.939867 -0.681541
O61   O     O_3   0.462831 0.629251 0.082979 -0.691047
O62   O     O_3   0.804904 0.274424 0.390079 -0.700019
O63   O     O_3   0.133903 0.027987 0.580763 -0.611264
O64   O     O_3   0.199864 0.783586 0.406445 -0.706890
O65   O     O_3   0.660469 0.386985 0.552235 -0.585352
O66   O     O_3   0.348833 0.319429 0.452635 -0.705009
O67   O     O_R   0.236470 0.710100 0.823360 -0.500008
O68   O     O_3   0.918283 0.462911 0.510838 -0.728372
O69   O     O_3   0.781104 0.846483 0.460253 -0.708936
O70   O     O_3   0.387457 0.888672 0.526330 -0.724095
O71   O     O_3   0.936078 0.198904 0.359948 -0.636793
O72   O     O_3   0.007634 0.070924 0.634881 -0.627501
O73   O     O_3   0.449650 0.655569 0.372552 -0.714769
O74   O     O_3   0.546474 0.598480 0.647918 -0.678534
O75   O     O_R   0.763530 0.710100 0.176640 -0.504840
O76   O     O_R   0.831960 0.093290 0.830130 -0.512239

loop_
_geom_bond_atom_site_label_1
_geom_bond_atom_site_label_2
_ccdc_geom_bond_type
H98   O71   S    
C26   C79   S    
C107  C129  A    
C70   O73   S    
C9    C143  S    
C8    H19   S    
C89   H42   S    
C16   O43   A    
Cr6   O42   S    
C52   H30   S    
C14   O41   A    
Cr7   O39   S    
C68   O16   A    
C13   C112  A    
C43   H80   S    
C19   O3    A    
C90   C134  A    
Cr8   O45   S    
C29   C33   A    
C52   O66   S    
C9    H20   S    
H52   O55   S    
C89   C94   A    
H47   O50   S    
C32   C52   S    
C27   C68   S    
C37   C56   S    
Cr9   O46   S    
C109  C127  S    
C45   C56   S    
C46   C55   S    
C70   C74   A    
C72   C73   A    
C65   C137  S    
Cr4   O30   S    
C73   H38   S    
C33   C53   S    
H62   O65   S    
C20   C132  S    
C67   O71   S    
C45   C47   S    
C27   C31   A    
Cr6   O38   S    
C28   C32   A    
C25   C140  S    
Cr7   O43   S    
C126  H11   S    
Cr6   O16   S    
C60   C86   S    
C120  C125  S    
Cr7   O13   S    
Cr4   O35   S    
C62   C88   S    
C82   C91   A    
C51   H91   S    
C43   C44   S    
C42   C55   S    
C23   O7    A    
C16   O48   A    
C1    C29   S    
C14   O46   A    
C6    C141  A    
C117  H57   S    
C66   C136  S    
C119  H79   S    
C34   C54   S    
C58   H36   S    
C10   H26   S    
C18   C130  S    
C21   C139  S    
Cr3   O7    S    
C48   H83   S    
C124  H5    S    
Cr3   O33   S    
C41   H70   S    
C7    O61   S    
C97   O52   S    
C87   O29   A    
C4    C5    A    
C43   H78   S    
C88   O26   A    
Cr12  O27   S    
C53   C58   S    
C14   C100  S    
C6    C7    A    
C104  C121  S    
C33   C38   A    
H51   O54   S    
C18   O56   A    
C136  O33   A    
Cr9   O10   S    
C36   C55   S    
C16   C98   S    
Cr10  O47   S    
C22   O6    A    
C84   C93   A    
C137  O34   A    
C125  H15   S    
C3    C11   S    
C85   O27   A    
C106  C124  S    
C86   O28   A    
C31   C36   A    
C23   C141  S    
C103  C107  A    
C108  C126  S    
C22   O37   A    
C102  C119  A    
C110  C128  S    
C38   C62   A    
H60   O63   S    
C67   C77   A    
C42   H82   S    
Cr9   O24   S    
C55   H33   S    
C78   C80   A    
C39   C54   S    
C57   O15   A    
C121  H7    S    
C92   C96   A    
C122  H8    S    
C69   C76   A    
C67   C72   A    
C122  C127  S    
Cr6   O23   S    
C61   C87   S    
C49   H96   S    
C139  C143  A    
C31   C46   S    
C71   O74   S    
C86   O24   A    
C23   O38   A    
C108  C130  A    
C50   H94   S    
C120  H6    S    
C112  H24   S    
C75   H40   S    
C25   O39   A    
C13   O64   S    
C120  H90   S    
C115  C132  A    
C56   H34   S    
C113  C130  A    
C30   C34   A    
C63   C82   A    
C126  H16   S    
C107  C125  S    
Cr10  O11   S    
C39   C40   S    
C25   O8    A    
C65   C84   A    
C24   C123  A    
Cr1   O14   S    
C40   H72   S    
Cr10  O20   S    
C59   C85   S    
C26   C134  A    
Cr1   O36   S    
C99   C117  A    
C83   C84   A    
C15   O47   A    
Cr9   O19   S    
C21   O36   A    
C10   C144  S    
C32   C37   A    
Cr4   O8    S    
C110  C132  A    
C1    O18   A    
C2    C27   A    
H54   O58   S    
H59   O62   S    
C113  C117  A    
C26   C30   A    
C115  C119  A    
C121  H2    S    
C135  O12   A    
Cr2   O2    S    
C93   C97   A    
Cr2   O28   S    
C53   O68   S    
C105  C109  A    
C74   H39   S    
H3    O74   S    
C85   O22   A    
C10   H21   S    
Cr4   O13   S    
H64   O68   S    
C47   H86   S    
C128  H18   S    
Cr7   O34   S    
C90   H1    S    
Cr11  O21   S    
C44   H77   S    
C4    C139  A    
Cr5   O41   S    
H61   O64   S    
C105  C122  S    
Cr3   O3    S    
C64   C81   A    
C9    H25   S    
C10   C11   S    
C5    O59   S    
C91   C95   A    
C124  H9    S    
Cr3   O29   S    
C6    O60   S    
C49   C50   S    
Cr1   O9    S    
C135  O32   A    
C92   H44   S    
C61   C112  A    
Cr12  O31   S    
H66   O70   S    
C12   O40   A    
C114  C131  A    
C103  C120  S    
H48   O51   S    
C24   O65   S    
C93   H43   S    
C44   H75   S    
Cr4   O4    S    
C96   O51   S    
C63   C77   A    
C7    C140  A    
C98   C103  A    
Cr5   O37   S    
C24   C29   A    
H58   O61   S    
C66   C83   A    
C38   C58   S    
C111  C129  A    
C127  H12   S    
C3    C141  A    
C109  C131  A    
C13   C28   A    
C69   C73   A    
C111  C116  A    
C124  C128  S    
H50   O53   S    
C81   C89   A    
C133  O1    A    
C99   C104  A    
C79   O17   A    
C54   H32   S    
C35   C54   S    
Cr5   O10   S    
C48   H84   S    
H100  O73   S    
C57   O19   A    
Cr1   O1    S    
C66   C78   A    
C41   H69   S    
C70   C80   A    
C35   O69   S    
C39   H74   S    
C138  C142  A    
C45   H89   S    
C72   H37   S    
C35   H28   S    
C118  H68   S    
H65   O69   S    
C17   O76   A    
C116  H46   S    
C114  C118  A    
H99   O72   S    
C136  O23   A    
C50   C51   S    
Cr7   O17   S    
C45   H88   S    
Cr8   O22   S    
C17   O45   A    
C34   C59   A    
C100  C118  A    
C42   C43   S    
C123  H35   S    
C104  C108  A    
C64   C133  S    
C3    C144  A    
C140  C144  A    
Cr1   O40   S    
Cr8   O9    S    
C22   C138  S    
C113  O54   S    
H45   O49   S    
C51   H92   S    
C47   H87   S    
C8    H23   S    
H55   O59   S    
C40   H71   S    
Cr2   O6    S    
C46   H29   S    
C44   H76   S    
C94   C95   A    
Cr8   O44   S    
C18   O2    A    
H49   O52   S    
Cr2   O32   S    
Cr12  O5    S    
C111  O53   S    
H63   O66   S    
C142  C143  A    
Cr10  O25   S    
C8    C142  S    
Cr5   O12   S    
C50   H95   S    
C127  H17   S    
C69   O72   S    
C128  H14   S    
C134  O62   S    
C81   C82   A    
C5    C138  A    
C28   C57   S    
C83   C92   A    
C100  C105  A    
C30   C35   S    
C2    O63   S    
Cr2   O10   S    
C137  O35   A    
Cr12  O9    S    
C15   O42   A    
C8    C9    S    
C133  O31   A    
C94   O49   S    
Cr11  O48   S    
C95   O50   S    
Cr9   O56   S    
C12   O44   A    
C65   C80   A    
C115  O57   S    
Cr10  O67   S    
H53   O57   S    
C62   C123  A    
Cr11  O13   S    
C42   H81   S    
C19   C131  S    
C46   O70   S    
C74   C75   A    
C17   C129  S    
C114  O55   S    
C11   H27   S    
C76   C77   A    
Cr5   O15   S    
Cr3   O11   S    
C4    O58   S    
C1    O14   A    
C2    C101  A    
C49   C58   S    
C59   C90   A    
C63   C135  S    
C87   O25   A    
C12   C102  S    
C88   O30   A    
C49   H97   S    
C98   C116  A    
C47   C48   S    
C68   O20   A    
C79   O21   A    
C96   C97   A    
C64   C76   A    
C11   H22   S    
C41   H67   S    
C20   O4    A    
Cr11  O75   S    
C21   O5    A    
C40   C41   S    
H56   O60   S    
C60   C101  A    
C106  C110  A    
C15   C99   S    
C48   H85   S    
C36   C60   A    
C37   C61   A    
C19   O67   A    
Cr12  O76   S    
Cr11  O26   S    
C125  H10   S    
C53   H31   S    
C121  C126  S    
C39   H73   S    
Cr8   O18   S    
C71   C75   A    
C102  C106  A    
C101  H13   S    
C51   H93   S    
C91   H41   S    
C122  H4    S    
Cr6   O11   S    
C71   C78   A    
C52   C56   S    
C20   O75   A    
