data_mof_unit_20422.cif
_audit_creation_date              2013-03-05T15:49:18-0500
_audit_creation_method            fapswitch 2.2
_symmetry_space_group_name_H-M    P1
_symmetry_Int_Tables_number       1
_space_group_crystal_system       triclinic
_cell_length_a                    20.543652
_cell_length_b                    22.915739
_cell_length_c                    6.937037
_cell_angle_alpha                 90.063022
_cell_angle_beta                  86.81706
_cell_angle_gamma                 89.955891
_cell_volume                      3260.72842251

loop_
_atom_site_label
_atom_site_type_symbol
_atom_site_description
_atom_site_fract_x
_atom_site_fract_y
_atom_site_fract_z
_atom_type_partial_charge
O1    O     O_R   0.387100 0.552640 0.378490 -0.586692
O2    O     O_R   0.612900 0.052640 0.621510 -0.578145
O3    O     O_R   0.249610 0.559600 0.072250 -0.578112
O4    O     O_R   0.750390 0.059600 0.927750 -0.586368
O5    O     O_R   0.249120 0.447360 0.902040 -0.589541
O6    O     O_R   0.750880 0.947360 0.097960 -0.605630
C1    C     C_R   0.227670 0.574463 0.244897 1.125778
C2    C     C_R   0.773673 0.072307 0.755932 1.138320
O7    O     O_R   0.386610 0.559560 0.048860 -0.566751
O8    O     O_R   0.613390 0.059560 0.951140 -0.560366
O9    O     O_R   0.387100 0.447320 0.878470 -0.600904
O10   O     O_R   0.612900 0.947320 0.121530 -0.608337
C3    C     C_R   0.405156 0.577472 0.215621 0.986258
C4    C     C_R   0.593996 0.077020 0.785278 0.994514
O11   O     O_R   0.249120 0.552680 0.402050 -0.541858
O12   O     O_R   0.750880 0.052680 0.597950 -0.561747
O13   O     O_3   0.318110 0.463180 0.223790 -0.275342
O14   O     O_3   0.681890 0.963180 0.776210 -0.272022
V1    V     V_3+5 0.318110 0.506830 0.948930 1.329089
V2    V     V_3+5 0.681890 0.006830 0.051070 1.316747
O15   O     O_R   0.386610 0.440400 0.548840 -0.595925
O16   O     O_R   0.613390 0.940400 0.451160 -0.589426
C5    C     C_R   0.408219 0.425526 0.713407 0.911942
C6    C     C_R   0.592171 0.925376 0.286009 0.958879
O17   O     O_R   0.249610 0.440440 0.572240 -0.557381
O18   O     O_R   0.750390 0.940440 0.427760 -0.558030
C7    C     C_R   0.226646 0.426436 0.743724 1.042158
C8    C     C_R   0.772634 0.926181 0.255997 1.046264
V3    V     V_3+5 0.318110 0.493170 0.448930 1.326378
V4    V     V_3+5 0.681890 0.993170 0.551070 1.328641
O19   O     O_3   0.318110 0.536820 0.723940 -0.212213
O20   O     O_3   0.681890 0.036820 0.276060 -0.217522
C9    C     C_R   0.172803 0.382594 0.760222 -0.335921
C10   C     C_R   0.829614 0.886435 0.243619 -0.310639
C11   C     C_R   0.123749 0.377930 0.623369 0.275508
C12   C     C_R   0.842173 0.847564 0.396443 0.284066
C13   C     C_R   0.070287 0.339857 0.660098 0.232879
C14   C     C_R   0.903003 0.818942 0.398712 0.241872
C15   C     C_R   0.066631 0.304929 0.826937 -0.150736
C16   C     C_R   0.949968 0.827101 0.244086 -0.166639
C17   C     C_R   0.116902 0.307210 0.954453 -0.019442
C18   C     C_R   0.935599 0.863327 0.089707 0.022522
C19   C     C_R   0.169231 0.345413 0.921321 -0.095183
C20   C     C_R   0.876365 0.892934 0.090072 -0.065007
C21   C     C_R   0.880603 0.207168 0.763488 -0.051978
C22   C     C_R   0.120766 0.701934 0.110192 -0.075216
C23   C     C_R   0.824175 0.172400 0.765735 0.312246
C24   C     C_R   0.174555 0.664375 0.114437 0.355914
C25   C     C_R   0.894376 0.085962 0.719392 0.303267
C26   C     C_R   0.127644 0.621994 0.415255 0.380247
C27   C     C_R   0.949332 0.122174 0.722701 -0.172863
C28   C     C_R   0.075282 0.660957 0.407635 -0.133993
C29   C     C_R   0.943016 0.182293 0.748557 0.113067
C30   C     C_R   0.071022 0.699859 0.254894 0.090541
C31   C     C_2   0.010647 0.264927 0.866249 0.351077
C32   C     C_2   0.013514 0.796087 0.239371 0.365735
C33   C     C_2   0.002676 0.218819 0.747954 -0.275700
C34   C     C_2   0.012827 0.737112 0.247366 -0.230306
C35   C     C_R   0.831012 0.110970 0.741861 -0.451909
C36   C     C_R   0.176426 0.620730 0.260535 -0.436646
H1    H     H_    0.041539 0.208266 0.640702 0.158054
H2    H     H_    0.966174 0.714620 0.257788 0.180692
H3    H     H_    0.115998 0.278844 0.079258 0.170052
H4    H     H_    0.970712 0.869195 0.968985 0.204190
H5    H     H_    0.875897 0.254076 0.776002 0.207578
H6    H     H_    0.118122 0.733720 0.995349 0.184198
C37   C     C_R   0.566843 0.357823 0.545502 0.022655
C38   C     C_R   0.431407 0.859061 0.432382 -0.018096
H7    H     H_    0.525119 0.443120 0.537386 0.134575
H8    H     H_    0.473144 0.944169 0.443921 0.141006
C39   C     C_R   0.463367 0.383871 0.704487 -0.143013
C40   C     C_R   0.537758 0.883379 0.293363 -0.155095
C41   C     C_R   0.489392 0.107981 0.931094 -0.240854
C42   C     C_R   0.517702 0.601966 0.118246 -0.289367
C43   C     C_R   0.452414 0.151029 0.027019 0.330620
C44   C     C_R   0.573213 0.636743 0.107867 0.312442
C45   C     C_R   0.461906 0.210067 0.977077 0.224623
C46   C     C_R   0.570034 0.694765 0.176072 0.205270
C47   C     C_R   0.503833 0.225333 0.813476 -0.079066
C48   C     C_R   0.508955 0.719299 0.245508 -0.094889
C49   C     C_R   0.545637 0.180798 0.726407 -0.048490
C50   C     C_R   0.455390 0.679651 0.284606 -0.083246
C51   C     C_R   0.507063 0.283871 0.738059 0.135959
C52   C     C_R   0.499661 0.780965 0.285202 0.117220
C53   C     C_R   0.559865 0.299499 0.607738 -0.042267
C54   C     C_R   0.440666 0.799796 0.383426 -0.066914
C55   C     C_R   0.601487 0.256182 0.527016 0.247254
C56   C     C_R   0.392187 0.759421 0.439249 0.228980
C57   C     C_R   0.591480 0.197229 0.575318 0.228485
C58   C     C_R   0.399988 0.700186 0.395523 0.213868
C59   C     C_R   0.456958 0.326442 0.774933 -0.071137
C60   C     C_R   0.545853 0.825367 0.229094 -0.096270
C61   C     C_R   0.519620 0.399353 0.595128 -0.126149
C62   C     C_R   0.480141 0.899691 0.393484 -0.153144
C63   C     C_R   0.540347 0.121759 0.796841 -0.155638
C64   C     C_R   0.459803 0.620685 0.212986 -0.153003
N1    N     N_R   0.126255 0.412124 0.449671 0.266620
O21   O     O_R   0.173045 0.403388 0.319103 -0.393805
O22   O     O_R   0.074717 0.440477 0.401212 -0.260550
N2    N     N_R   0.793865 0.837725 0.550847 0.271080
O23   O     O_R   0.734661 0.823486 0.512829 -0.307175
O24   O     O_R   0.808544 0.843766 0.729749 -0.333339
H9    H     H_    0.997675 0.103228 0.706198 0.187336
H10   H     H_    0.037010 0.660607 0.521739 0.197768
N3    N     N_R   0.648350 0.270760 0.373310 0.261324
O25   O     O_R   0.637326 0.257126 0.195938 -0.283886
O26   O     O_R   0.701395 0.298627 0.409960 -0.271156
N4    N     N_R   0.335579 0.777820 0.553833 0.267512
O27   O     O_R   0.338730 0.785022 0.739175 -0.304889
O28   O     O_R   0.281514 0.788990 0.471841 -0.256614
H11   H     H_    0.607340 0.371457 0.449846 0.175227
H12   H     H_    0.387107 0.874331 0.507957 0.175489
H13   H     H_    0.410339 0.314662 0.842768 0.137457
H14   H     H_    0.588577 0.816749 0.137216 0.160060
H15   H     H_    0.484276 0.063392 0.982213 0.163326
H16   H     H_    0.521071 0.557717 0.062786 0.170424
N5    N     N_R   0.434534 0.253879 0.105772 0.237392
O29   O     O_R   0.472449 0.291332 0.185103 -0.381601
O30   O     O_R   0.372161 0.254946 0.150505 -0.367069
N6    N     N_R   0.630188 0.725034 0.197132 0.237725
O31   O     O_R   0.670420 0.733793 0.048326 -0.292105
O32   O     O_R   0.646687 0.740577 0.368048 -0.296786
N7    N     N_R   0.410693 0.134321 0.190851 0.262453
O33   O     O_R   0.375984 0.086970 0.183644 -0.346914
O34   O     O_R   0.416255 0.159776 0.356947 -0.326934
N8    N     N_R   0.633727 0.611275 0.035407 0.270323
O35   O     O_R   0.634432 0.575533 0.889379 -0.324737
O36   O     O_R   0.685786 0.615949 0.132933 -0.242481
N9    N     N_R   0.622486 0.154508 0.451509 0.245313
O37   O     O_R   0.587755 0.127747 0.327487 -0.356871
O38   O     O_R   0.685746 0.153599 0.427396 -0.328558
N10   N     N_R   0.357737 0.660728 0.499740 0.238518
O39   O     O_R   0.377248 0.639666 0.660702 -0.326871
O40   O     O_R   0.295685 0.662384 0.473409 -0.341652
N11   N     N_R   0.761307 0.200554 0.793187 0.259823
O41   O     O_R   0.710920 0.172973 0.869303 -0.382612
O42   O     O_R   0.755838 0.256305 0.762393 -0.280642
N12   N     N_R   0.228181 0.673367 0.975359 0.271940
O43   O     O_R   0.287736 0.673002 0.030428 -0.344554
O44   O     O_R   0.217343 0.693413 0.804628 -0.264993
N13   N     N_R   0.904265 0.023879 0.700382 0.224967
O45   O     O_R   0.955924 0.999755 0.766266 -0.368153
O46   O     O_R   0.866582 0.992312 0.597764 -0.421287
N14   N     N_R   0.129837 0.585229 0.582440 0.259604
O47   O     O_R   0.111087 0.605785 0.751429 -0.376861
O48   O     O_R   0.136658 0.529245 0.563279 -0.363943
H17   H     H_    0.207739 0.345496 0.021600 0.186875
H18   H     H_    0.868032 0.922667 0.972761 0.198514
N15   N     N_R   0.964094 0.278375 0.022366 0.267258
O49   O     O_R   0.940957 0.237392 0.136404 -0.349597
O50   O     O_R   0.947717 0.332355 0.057612 -0.227711
N16   N     N_R   0.073025 0.829589 0.242342 0.258870
O51   O     O_R   0.074053 0.883351 0.182195 -0.316138
O52   O     O_R   0.122095 0.810747 0.335624 -0.291153
N17   N     N_R   0.020422 0.335599 0.524347 0.266788
O53   O     O_R   0.959488 0.343817 0.578974 -0.277425
O54   O     O_R   0.035951 0.321852 0.346134 -0.338111
N18   N     N_R   0.916981 0.781805 0.558190 0.241432
O55   O     O_R   0.970078 0.789131 0.649220 -0.382611
O56   O     O_R   0.877234 0.739835 0.610645 -0.282135

loop_
_geom_bond_atom_site_label_1
_geom_bond_atom_site_label_2
_geom_bond_distance
_ccdc_geom_bond_type
C34   H2    1.087475 S    
C47   C51   1.440642 A    
N8    O35   1.301452 A    
N17   O54   1.297906 A    
N5    O29   1.301453 A    
C38   C54   1.409740 A    
C13   N17   1.432769 S    
C48   C52   1.449856 A    
V1    O19   1.706061 S    
N1    O21   1.298869 A    
C57   N9    1.427658 S    
N11   O41   1.300312 A    
C15   C17   1.397576 A    
C7    C9    1.494617 S    
N3    O26   1.300558 A    
O9    V1    2.006495 S    
C42   C44   1.390410 A    
C43   N7    1.437414 S    
H8    C62   1.084131 S    
C44   C46   1.411041 A    
C22   H6    1.083622 S    
C45   N5    1.436181 S    
N15   O50   1.301036 A    
C2    C35   1.473462 S    
V2    O20   1.704678 S    
C49   C63   1.441083 A    
C46   C48   1.433101 A    
N7    O34   1.301593 A    
O12   V4    2.006846 S    
O13   V3    1.705630 S    
N4    O27   1.301271 A    
C38   H12   1.082441 S    
O7    C3    1.303853 A    
C9    C11   1.426350 A    
O5    C7    1.305645 A    
N15   O49   1.301660 A    
O7    V1    2.007504 S    
O6    C8    1.300929 A    
C26   N14   1.436951 S    
N10   O39   1.300383 A    
C16   C32   1.484651 S    
C25   N13   1.441822 S    
C26   C28   1.400738 A    
O11   V3    2.005850 S    
O14   V4    1.707013 S    
C32   N16   1.445250 S    
C17   C19   1.396193 A    
O14   V2    2.152186 S    
O4    C2    1.293015 A    
C24   C36   1.426674 A    
C49   C57   1.420941 A    
C45   C47   1.430070 A    
C8    C10   1.481284 S    
C2    O12   1.295701 A    
C20   H18   1.082740 S    
N18   O56   1.301202 A    
C41   C43   1.390777 A    
O10   V2    2.008706 S    
C18   C20   1.392678 A    
O1    V3    2.008055 S    
C6    C40   1.474370 S    
N1    O22   1.301968 A    
C28   C30   1.391883 A    
C31   N15   1.437456 S    
C21   C23   1.406534 A    
O15   C5    1.293607 A    
O17   V3    2.010810 S    
C22   C24   1.401768 A    
C37   C53   1.409959 A    
C23   C35   1.423178 A    
C50   C64   1.440225 A    
C53   C55   1.405112 A    
C9    C19   1.404758 A    
C5    C39   1.479508 S    
N7    O33   1.301297 A    
C10   C20   1.402194 A    
C14   N18   1.437912 S    
C48   C50   1.441852 A    
O8    C4    1.301673 A    
C27   H9    1.083757 S    
O8    V2    2.007119 S    
C47   C49   1.443445 A    
C29   C33   1.484525 S    
C44   N8    1.437916 S    
N14   O47   1.301105 A    
C41   H15   1.085201 S    
C1    O11   1.298474 A    
C3    C64   1.496915 S    
C25   C27   1.402863 A    
O15   V3    2.007617 S    
C38   C62   1.383482 A    
C59   H13   1.078045 S    
C27   C29   1.394107 A    
N13   O46   1.300104 A    
C46   N6    1.432060 S    
V4    O20   2.155057 S    
C42   C64   1.393757 A    
C55   N3    1.436203 S    
V3    O19   2.153107 S    
C42   H16   1.084912 S    
C22   C30   1.393007 A    
N2    O24   1.300590 A    
C12   N2    1.437300 S    
O3    V1    2.008953 S    
C43   C45   1.407963 A    
N12   O44   1.301399 A    
O5    V1    2.006236 S    
N14   O48   1.296320 A    
C51   C53   1.419367 A    
C56   C58   1.397717 A    
C1    C36   1.493159 S    
O18   V4    2.008376 S    
C31   C33   1.352753 D    
C21   H5    1.082170 S    
N18   O55   1.301289 A    
O16   C6    1.294571 A    
O1    C3    1.301203 A    
C41   C63   1.398483 A    
C12   C14   1.411771 A    
C18   H4    1.083082 S    
C4    C63   1.503499 S    
C51   C59   1.430146 A    
N6    O31   1.301900 A    
N6    O32   1.300538 A    
N9    O37   1.301154 A    
C30   C34   1.471826 S    
H7    C61   1.084047 S    
C37   H11   1.081494 S    
N11   O42   1.301351 A    
C28   H10   1.084301 S    
N8    O36   1.301288 A    
O16   V4    2.008003 S    
C23   N11   1.446273 S    
O18   C8    1.293743 A    
N16   O52   1.301447 A    
C16   C18   1.399945 A    
C25   C35   1.422442 A    
N4    O28   1.301037 A    
C33   H1    1.087553 S    
C39   C61   1.393109 A    
C15   C31   1.484834 S    
O6    V2    2.005240 S    
N3    O25   1.301188 A    
O10   C6    1.297586 A    
O3    C1    1.300951 A    
C58   N10   1.423606 S    
C50   C58   1.417740 A    
C24   N12   1.438645 S    
O2    V4    2.005845 S    
C26   C36   1.427433 A    
N5    O30   1.301754 A    
C40   C62   1.389477 A    
C11   C13   1.415377 A    
C13   C15   1.406504 A    
N13   O45   1.301658 A    
C14   C16   1.414995 A    
C40   C60   1.408480 A    
O9    C5    1.300783 A    
N2    O23   1.300537 A    
O13   V1    2.154135 S    
C10   C12   1.419869 A    
C32   C34   1.352698 D    
C54   C56   1.399024 A    
O2    C4    1.304941 A    
C19   H17   1.082067 S    
N12   O43   1.301846 A    
C21   C29   1.401311 A    
O4    V2    2.011389 S    
C56   N4    1.434528 S    
C39   C59   1.408056 A    
N16   O51   1.300971 A    
N10   O40   1.298322 A    
N17   O53   1.301114 A    
C37   C61   1.387870 A    
C55   C57   1.404787 A    
C17   H3    1.082549 S    
C52   C54   1.423461 A    
C52   C60   1.431323 A    
C11   N1    1.436590 S    
C60   H14   1.073754 S    
N9    O38   1.301217 A    
O17   C7    1.295923 A    
