data_mof_unit_10287.cif
_audit_creation_date              2013-03-05T16:00:23-0500
_audit_creation_method            fapswitch 2.2
_symmetry_space_group_name_H-M    P1
_symmetry_Int_Tables_number       1
_space_group_crystal_system       triclinic
_cell_length_a                    8.420227
_cell_length_b                    13.039401
_cell_length_c                    26.814552
_cell_angle_alpha                 96.789136
_cell_angle_beta                  94.513658
_cell_angle_gamma                 79.233264
_cell_volume                      2867.14668137

loop_
_atom_site_label
_atom_site_type_symbol
_atom_site_description
_atom_site_fract_x
_atom_site_fract_y
_atom_site_fract_z
_atom_type_partial_charge
P1    P     P_3+3 0.072810 0.589830 0.610360 0.449315
O1    O     O_2   0.907040 0.557650 0.617910 -0.331859
O2    O     O_3   0.139040 0.557570 0.557730 -0.443794
O3    O     O_3   0.684960 0.360550 0.588460 -0.385132
O4    O     O_2   0.782212 0.460533 0.675668 -0.384271
O5    O     O_3   0.018105 0.726640 0.620084 -0.560354
O6    O     O_3   0.770392 0.263093 0.677373 -0.516246
H1    H     H_    0.709653 0.165150 0.614825 0.107884
C1    C     C_3   0.750841 0.084072 0.681347 -0.956557
H2    H     H_    0.682864 0.021292 0.665644 0.223680
H3    H     H_    0.881263 0.056676 0.675177 0.266536
P2    P     P_3+3 0.661990 0.251250 0.462170 0.462335
P3    P     P_3+3 0.147372 0.167266 0.561226 0.430867
O7    O     O_2   0.841490 0.235060 0.476710 -0.386715
O8    O     O_3   0.099640 0.305100 0.564190 -0.432390
O9    O     O_2   0.997598 0.121226 0.538786 -0.369312
O10   O     O_3   0.669901 0.212883 0.397105 -0.578479
O11   O     O_3   0.173126 0.131541 0.622681 -0.553344
C2    C     C_3   0.166781 0.222781 0.656520 0.453948
H4    H     H_    0.049071 0.276524 0.651602 0.176845
H5    H     H_    0.267022 0.264218 0.651103 0.013417
C3    C     C_3   0.182980 0.193130 0.709972 -0.895629
H6    H     H_    0.157981 0.265435 0.736423 0.251294
H7    H     H_    0.093848 0.143056 0.715115 0.262458
C4    C     C_3   0.071888 0.223793 0.401020 0.374072
H8    H     H_    0.113329 0.191587 0.437052 0.101417
H9    H     H_    0.950830 0.273155 0.404247 0.125788
C5    C     C_3   0.059724 0.132192 0.362940 -0.969075
H10   H     H_    0.180572 0.096941 0.349294 0.277491
H11   H     H_    0.014066 0.073286 0.381674 0.263794
H12   H     H_    0.977477 0.158649 0.330681 0.255272
Ba1   Ba    Ba6+2 0.859560 0.448380 0.523550 1.510167
C6    C     C_3   0.981621 0.768077 0.573979 0.456261
H13   H     H_    0.883068 0.733146 0.552951 0.103650
H14   H     H_    0.089423 0.751908 0.551404 0.135105
C7    C     C_3   0.929193 0.886575 0.583776 -0.985709
H15   H     H_    0.802990 0.906078 0.595509 0.270442
H16   H     H_    0.937334 0.924331 0.549489 0.255599
H17   H     H_    0.008611 0.919538 0.613856 0.275681
C8    C     C_3   0.625042 0.294635 0.366926 0.368915
H18   H     H_    0.736423 0.306596 0.351427 0.044552
H19   H     H_    0.564633 0.368934 0.386737 0.150006
C9    C     C_3   0.519408 0.259194 0.321825 -0.869672
H20   H     H_    0.592835 0.197063 0.296887 0.233414
H21   H     H_    0.468812 0.326465 0.300059 0.218934
H22   H     H_    0.419077 0.226132 0.334148 0.294246
P4    P     P_3+3 0.116900 0.410080 0.389630 0.446839
O12   O     O_2   0.282660 0.442310 0.382060 -0.352512
O13   O     O_3   0.050670 0.442340 0.442260 -0.424630
O14   O     O_3   0.504750 0.639360 0.411530 -0.401061
O15   O     O_3   0.188501 0.275576 0.386660 -0.574619
P5    P     P_3+3 0.034664 0.830354 0.426932 0.429094
O16   O     O_3   0.618400 0.630290 0.524520 -0.356390
O17   O     O_3   0.090070 0.694820 0.435810 -0.358808
O18   O     O_2   0.157399 0.881160 0.463073 -0.386825
O19   O     O_3   0.082256 0.862169 0.366906 -0.574915
Ba2   Ba    Ba6+2 0.330270 0.551530 0.476440 1.514012
P6    P     P_3+3 0.674186 0.380169 0.654235 0.435220
C10   C     C_3   0.688182 0.182739 0.655632 0.427967
H23   H     H_    0.555871 0.204064 0.660735 0.029275
H24   H     H_    0.734172 0.100377 0.722382 0.270114
O20   O     O_3   0.571310 0.369620 0.475470 -0.420363
C11   C     C_3   0.458066 0.779083 0.630752 0.624438
H25   H     H_    0.373707 0.729780 0.610731 0.078938
C12   C     C_3   0.558923 0.716791 0.670876 -0.863880
H26   H     H_    0.639539 0.765111 0.693675 0.256002
H27   H     H_    0.480528 0.689867 0.696137 0.216830
H28   H     H_    0.634890 0.646453 0.652201 0.275787
P7    P     P_3+3 0.534581 0.765154 0.535107 0.430644
O21   O     O_2   0.348200 0.764910 0.523260 -0.406548
O22   O     O_3   0.567507 0.805531 0.599425 -0.598411
H29   H     H_    0.307148 0.149990 0.718414 0.261275
C13   C     C_3   0.981170 0.846270 0.321639 0.875474
C14   C     C_3   0.923028 0.952877 0.300577 -1.057780
H30   H     H_    0.027563 0.985166 0.290593 0.272162
H31   H     H_    0.843293 0.946110 0.265776 0.248175
H32   H     H_    0.846537 0.007902 0.327511 0.259145
P8    P     P_3+3 0.502075 0.607983 0.345922 0.439905
C15   C     C_3   0.458288 0.810245 0.358399 0.502613
H33   H     H_    0.559143 0.809320 0.387159 0.055401
O23   O     O_2   0.331951 0.582157 0.330860 -0.405777
O24   O     O_3   0.494116 0.726816 0.319959 -0.527806
H34   H     H_    0.353146 0.802536 0.378544 0.183785
H35   H     H_    0.517768 0.922980 0.311277 0.266961
C16   C     C_3   0.426386 0.916772 0.337660 -1.054158
H36   H     H_    0.429084 0.979628 0.369362 0.243887
H37   H     H_    0.306646 0.930684 0.317307 0.266722
C17   C     C_R   0.997554 0.382676 0.177112 0.522138
O25   O     O_2   0.052091 0.306985 0.200073 -0.595383
N1    N     N_R   0.891632 0.466400 0.199880 -0.161524
C18   C     C_R   0.824820 0.550029 0.172741 0.511425
C19   C     C_2   0.700194 0.489797 0.267204 -0.188146
C20   C     C_3   0.662992 0.494315 0.322222 0.166631
C21   C     C_1   0.960636 0.451945 0.340442 0.273888
C22   C     C_2   0.991514 0.448025 0.292398 -0.222274
C23   C     C_2   0.855625 0.467685 0.252637 0.136211
C24   C     C_R   0.978437 0.469047 0.099975 -0.064972
C25   C     C_R   0.041899 0.382992 0.127189 -0.057979
C26   C     C_R   0.149530 0.299013 0.104083 -0.091310
C27   C     C_R   0.869122 0.553047 0.123054 -0.053797
C28   C     C_2   0.813561 0.484206 0.357408 -0.501106
H38   H     H_    0.116087 0.436381 0.281958 0.167524
H39   H     H_    0.202017 0.232089 0.124099 0.165534
C29   C     C_2   0.362801 0.508901 0.650226 -0.442149
C30   C     C_R   0.169480 0.383718 0.975245 0.042452
C31   C     C_R   0.013250 0.563241 0.973682 0.042471
C32   C     C_R   0.113690 0.474286 0.949539 0.084197
C33   C     C_R   0.262948 0.295633 0.948662 -0.208300
C34   C     C_R   0.303385 0.297397 0.899429 -0.083795
C35   C     C_R   0.253382 0.387079 0.874121 -0.039007
C36   C     C_R   0.158804 0.475818 0.899107 -0.068829
C37   C     C_R   0.109675 0.566060 0.873693 -0.058128
C38   C     C_R   0.156876 0.566797 0.824023 0.535182
N2    N     N_R   0.246712 0.478009 0.799000 -0.161903
C39   C     C_R   0.294995 0.388690 0.824074 0.503972
C40   C     C_2   0.438140 0.434006 0.730846 -0.155807
C41   C     C_3   0.462228 0.419481 0.674968 0.126062
C42   C     C_1   0.210347 0.536679 0.661655 0.252174
C43   C     C_2   0.165210 0.526900 0.707425 -0.193979
C44   C     C_2   0.287927 0.478079 0.746583 0.106052
O26   O     O_2   0.373142 0.309504 0.802755 -0.617549
C45   C     C_R   0.129478 0.383623 0.026179 0.043316
C46   C     C_R   0.023778 0.470877 0.049609 0.084156
C47   C     C_R   0.962881 0.559885 0.023229 0.041278
C48   C     C_R   0.192319 0.299123 0.054922 -0.204442
H40   H     H_    0.534886 0.401172 0.756642 0.179395
H41   H     H_    0.374910 0.227264 0.881136 0.167327
H42   H     H_    0.304920 0.222540 0.964441 0.126204
H43   H     H_    0.277919 0.231869 0.040912 0.125505
O27   O     O_2   0.727715 0.622659 0.191935 -0.604752
C49   C     C_R   0.806410 0.638800 0.096052 -0.090630
H44   H     H_    0.599506 0.501367 0.239380 0.166710
H45   H     H_    0.721261 0.704478 0.112553 0.165658
C50   C     C_R   0.967603 0.653031 0.947220 -0.204522
C51   C     C_R   0.015112 0.654324 0.898621 -0.086612
O28   O     O_2   0.119551 0.647357 0.803455 -0.596786
C52   C     C_R   0.852146 0.642415 0.047497 -0.202231
H46   H     H_    0.896943 0.725068 0.963336 0.125455
H47   H     H_    0.976341 0.725492 0.880442 0.165912
H48   H     H_    0.040510 0.555141 0.716801 0.189738
H49   H     H_    0.795617 0.710873 0.029654 0.125305
H50   H     H_    0.795048 0.499111 0.397396 0.187061
H51   H     H_    0.413495 0.546739 0.622880 0.147271
C53   C     C_R   0.747891 0.819549 0.471214 -0.494352
C54   C     C_R   0.407182 0.182108 0.503132 -0.274947
C55   C     C_R   0.400422 0.008669 0.525416 -0.235710
C56   C     C_R   0.330151 0.114116 0.525541 0.214176
C57   C     C_R   0.566025 0.149307 0.487154 0.282390
C58   C     C_R   0.630637 0.038615 0.482081 -0.064524
C59   C     C_R   0.545772 0.967744 0.501769 -0.055479
C60   C     C_R   0.608733 0.857801 0.497654 0.268726
C61   C     C_R   0.833931 0.887247 0.452419 0.223450
C62   C     C_R   0.775638 0.996035 0.457828 -0.207188
H52   H     H_    0.337523 0.959284 0.543149 0.183816
H53   H     H_    0.845119 0.046068 0.443233 0.180425
H54   H     H_    0.795680 0.736195 0.468057 0.162422
C63   C     C_3   0.359837 0.882630 0.654608 -0.363048
C64   C     C_3   0.256006 0.869467 0.696967 -0.891028
H55   H     H_    0.192801 0.802107 0.686926 0.290400
H56   H     H_    0.332774 0.856672 0.732072 0.270147
H57   H     H_    0.164537 0.941812 0.704479 0.266964
H58   H     H_    0.442921 0.937317 0.669739 0.213024
H59   H     H_    0.280334 0.920385 0.624526 0.203339
C65   C     C_3   0.086069 0.772138 0.281197 -0.279447
C66   C     C_3   0.015580 0.769539 0.226613 -0.953848
H60   H     H_    0.886571 0.762239 0.224173 0.299861
H61   H     H_    0.028072 0.841668 0.210157 0.271707
H62   H     H_    0.083306 0.701334 0.203560 0.268588
H63   H     H_    0.205563 0.795229 0.281226 0.224535
H64   H     H_    0.111411 0.690468 0.290326 0.215663
C67   C     C_3   0.827032 0.806520 0.329385 -0.406703
C68   C     C_3   0.857704 0.695473 0.342669 -0.784862
H65   H     H_    0.985809 0.663329 0.351897 0.260045
H66   H     H_    0.789256 0.689764 0.375385 0.234658
H67   H     H_    0.819183 0.648020 0.309055 0.269405
H68   H     H_    0.761131 0.860848 0.358514 0.173680
H69   H     H_    0.746035 0.809864 0.294607 0.220994
C69   C     C_3   0.325580 0.294308 0.501484 -0.167283
C70   C     C_3   0.377052 0.358243 0.550205 -0.524367
H70   H     H_    0.439495 0.305176 0.577810 0.142842
H71   H     H_    0.442062 0.421264 0.545103 0.260405
H72   H     H_    0.278167 0.402244 0.570491 0.226989
H73   H     H_    0.339817 0.324083 0.466127 0.214744
H74   H     H_    0.195504 0.302638 0.493298 0.198067

loop_
_geom_bond_atom_site_label_1
_geom_bond_atom_site_label_2
_geom_bond_distance
_ccdc_geom_bond_type
C26   H39   1.083612 S    
C67   C68   1.502652 S    
C11   C12   1.530888 S    
C53   H54   1.081953 S    
C66   H60   1.104228 S    
C39   O26   1.221363 D    
O12   Ba2   2.791982 S    
C13   C14   1.542336 S    
C65   H64   1.099114 S    
C22   C23   1.508209 S    
O16   P7    1.766630 S    
C24   C27   1.408069 A    
C69   C70   1.542062 S    
C27   C49   1.401430 A    
Ba2   O20   2.818046 S    
P4    O13   1.541249 S    
C18   O27   1.221492 D    
C16   H36   1.110908 S    
C40   C41   1.512751 S    
C4    C5    1.490179 S    
C51   H47   1.083542 S    
C30   C32   1.422918 A    
C63   C64   1.530479 S    
C7    H17   1.105908 S    
C14   H31   1.110605 S    
O4    P6    1.545068 D    
C1    H24   1.110612 S    
C43   H48   1.084672 S    
C65   C66   1.534529 S    
C19   H44   1.085107 S    
P5    O18   1.546755 D    
O11   C2    1.403659 S    
C53   C60   1.397567 A    
H1    C10   1.113081 S    
C31   C32   1.421945 A    
P8    C20   1.897125 S    
C19   C23   1.364333 D    
C6    C7    1.522764 S    
O13   Ba2   3.002346 S    
C33   C34   1.392894 A    
O1    Ba1   2.791634 S    
P1    O1    1.564853 D    
C3    H29   1.110817 S    
P7    O22   1.758708 S    
C58   C62   1.417120 A    
C42   C43   1.339970 D    
C64   H57   1.109810 S    
C35   C36   1.406538 A    
C34   H41   1.083642 S    
C8    C9    1.522959 S    
C36   C37   1.408360 A    
C21   C28   1.329052 D    
C68   H66   1.103778 S    
C12   H27   1.109506 S    
C38   O28   1.221768 D    
P2    O10   1.760160 S    
C7    H15   1.107090 S    
Ba2   O21   2.939669 S    
C62   H53   1.077061 S    
C1    H2    1.109363 S    
C63   H59   1.107674 S    
O6    P6    1.747700 S    
C69   H73   1.089165 S    
C22   H38   1.085526 S    
C70   H72   1.066471 S    
C8    H19   1.102840 S    
C10   H23   1.111975 S    
C66   H61   1.110279 S    
C40   H40   1.084616 S    
P2    Ba1   3.500019 S    
C64   H56   1.110333 S    
C65   H63   1.102739 S    
O2    Ba1   3.001489 S    
Ba1   Ba2   4.721815 S    
O14   P8    1.757804 S    
O6    C10   1.407088 S    
C37   C38   1.421185 A    
C54   C56   1.403549 A    
P5    O17   1.780890 S    
C24   C25   1.409035 A    
C29   C42   1.317173 D    
C16   H37   1.102619 S    
C30   C33   1.415539 A    
C14   H30   1.107212 S    
C55   C56   1.391370 A    
P1    O5    1.750558 S    
P7    C60   1.877567 S    
C47   C52   1.416319 A    
C46   C47   1.423023 A    
C2    C3    1.517548 S    
H35   C16   1.105248 S    
C26   C48   1.393881 A    
C20   C28   1.514471 S    
O16   Ba2   2.954397 S    
P4    O15   1.739334 S    
C4    H8    1.104438 S    
C14   H32   1.108717 S    
P6    C41   1.871918 S    
C33   H42   1.076223 S    
C40   C44   1.365004 D    
P1    O2    1.541244 S    
O10   C8    1.392576 S    
C54   C69   1.499799 S    
C9    H20   1.111579 S    
C4    O15   1.391769 S    
C49   C52   1.394950 A    
P4    Ba2   3.407790 S    
P2    O20   1.601530 S    
C28   H50   1.085140 S    
P8    O24   1.760404 S    
P4    O12   1.565188 D    
C55   H52   1.077369 S    
C17   C25   1.418431 A    
P5    C61   1.862177 S    
C12   H28   1.106233 S    
C6    H13   1.104940 S    
C29   H51   1.084823 S    
C21   C22   1.327418 D    
C57   C58   1.438610 A    
N1    C23   1.467467 S    
C9    H21   1.110788 S    
O3    Ba1   2.829411 S    
P3    O11   1.751319 S    
C8    H18   1.099061 S    
C17   N1    1.387220 Am   
C12   H26   1.111261 S    
C66   H62   1.110983 S    
C1    H3    1.108622 S    
C64   H55   1.106079 S    
C18   C27   1.418426 A    
C3    H7    1.108728 S    
C15   H33   1.100614 S    
C13   C67   1.521687 S    
P3    C56   1.855012 S    
C37   C51   1.401739 A    
O3    P6    1.759059 S    
C7    H16   1.105393 S    
O2    Ba2   2.795484 S    
Ba1   O16   2.818618 S    
C15   C16   1.526626 S    
C54   C57   1.410149 A    
C68   H65   1.101836 S    
C38   N2    1.389876 Am   
C55   C59   1.408132 A    
C52   H49   1.076425 S    
C5    H10   1.106658 S    
O19   C13   1.443824 S    
C2    H5    1.110718 S    
C59   C60   1.426975 A    
O14   Ba2   2.828763 S    
C32   C36   1.436502 A    
C5    H12   1.110807 S    
C11   O22   1.408129 S    
C49   H45   1.083601 S    
O8    Ba1   2.736449 S    
C50   H46   1.076445 S    
C15   O24   1.413543 S    
C43   C44   1.522166 S    
C68   H67   1.094360 S    
N2    C39   1.392465 Am   
C50   C51   1.395822 A    
C70   H70   1.107752 S    
C13   C65   1.573044 S    
C67   H68   1.100161 S    
C29   C41   1.493759 S    
O5    C6    1.396717 S    
P2    C57   1.888331 S    
C2    H4    1.110239 S    
P3    O8    1.760515 S    
P2    O7    1.512778 D    
Ba1   O20   2.955258 S    
C53   C61   1.399883 A    
C58   C59   1.436929 A    
C15   H34   1.098655 S    
P8    O23   1.544528 D    
N1    C18   1.388953 Am   
C45   C48   1.416622 A    
C63   H58   1.111677 S    
C5    H11   1.105470 S    
C19   C20   1.524266 S    
C6    H14   1.104389 S    
P4    C21   1.843262 S    
C30   C45   1.432388 A    
P1    C42   1.840697 S    
P1    Ba1   3.407209 S    
P7    O21   1.577026 D    
C9    H22   1.105636 S    
C69   H74   1.087630 S    
Ba1   O13   2.794843 S    
C11   H25   1.111331 S    
C48   H43   1.076221 S    
C31   C50   1.416817 A    
O7    Ba1   2.939356 S    
C17   O25   1.222253 D    
C24   C46   1.436111 A    
C25   C26   1.400549 A    
P3    O9    1.546266 D    
C31   C47   1.433969 A    
C11   C63   1.542128 S    
C3    H6    1.107937 S    
C67   H69   1.111357 S    
C61   C62   1.405924 A    
C1    C10   1.519182 S    
C45   C46   1.421958 A    
C34   C35   1.401416 A    
C35   C39   1.416911 A    
O17   Ba2   2.737000 S    
N2    C44   1.474164 S    
P5    O19   1.801364 S    
C70   H71   1.095476 S    
C4    H9    1.102910 S    
