data_mof_unit_12738.cif
_audit_creation_date              2012-12-10T19:15:23-0500
_audit_creation_method            fapswitch 2.2
_symmetry_space_group_name_H-M    P1
_symmetry_Int_Tables_number       1
_space_group_crystal_system       triclinic
_cell_length_a                    10.71759
_cell_length_b                    9.744084
_cell_length_c                    23.072673
_cell_angle_alpha                 90.221047
_cell_angle_beta                  91.111287
_cell_angle_gamma                 90.877223
_cell_volume                      2408.79433605

loop_
_atom_site_label
_atom_site_type_symbol
_atom_type_description
_atom_site_fract_x
_atom_site_fract_y
_atom_site_fract_z
_atom_type_partial_charge
C1    C     C_R   0.257537 0.498756 0.501806 0.871618
C2    C     C_R   0.534244 0.740118 0.975584 -0.136879
C3    C     C_R   0.545884 0.742483 0.035527 -0.117912
C4    C     C_R   0.595364 0.629731 0.065113 0.013252
C5    C     C_R   0.640059 0.516147 0.033965 -0.061934
C6    C     C_R   0.692034 0.403609 0.063785 -0.243317
C7    C     C_R   0.741809 0.293681 0.031519 0.437526
C8    C     C_R   0.723542 0.287560 0.971356 0.441711
C9    C     C_R   0.595286 0.624962 0.125419 0.579777
C10   C     C_R   0.683032 0.400952 0.124709 0.609362
C11   C     C_R   0.683961 0.565091 0.256102 0.029497
C12   C     C_R   0.501575 0.499966 0.389178 0.866340
C13   C     C_R   0.643554 0.566329 0.313139 -0.308974
C14   C     C_R   0.531315 0.501194 0.328202 -0.114025
C15   C     C_R   0.456669 0.432970 0.285774 0.457518
C16   C     C_R   0.497291 0.431280 0.228916 -0.107961
C17   C     C_R   0.608639 0.497927 0.213673 0.191930
C18   C     C_R   0.619587 0.610835 0.757586 -0.071655
C19   C     C_R   0.592401 0.611023 0.698594 -0.231186
C20   C     C_R   0.522531 0.502692 0.673440 -0.043437
C21   C     C_R   0.479582 0.394277 0.707776 -0.192937
C22   C     C_R   0.504219 0.395992 0.767232 -0.093668
C23   C     C_R   0.742179 0.500602 0.500699 0.874023
C24   C     C_R   0.574444 0.504299 0.792288 0.288443
C25   C     C_3   0.073676 0.571538 0.561056 0.402875
C26   C     C_3   0.065021 0.342827 0.501749 0.420174
C27   C     C_3   0.926976 0.572272 0.558603 -0.445190
C28   C     C_3   0.922630 0.349911 0.502391 -0.359133
C29   C     C_3   0.070262 0.579053 0.450592 -0.489271
C30   C     C_3   0.120293 0.496683 0.503948 0.006089
C31   C     C_3   0.877966 0.500265 0.502497 0.008269
C32   C     C_3   0.927541 0.574437 0.448348 -0.392572
C33   C     C_3   0.392995 0.079080 0.463742 -0.099285
C34   C     C_3   0.387555 0.916556 0.467405 -0.091625
C35   C     C_3   0.618354 0.082499 0.476466 -0.199269
C36   C     C_3   0.614013 0.921093 0.472250 -0.211242
C37   C     C_3   0.488560 0.081323 0.558364 -0.270174
C38   C     C_3   0.496194 0.919325 0.558628 -0.271341
C39   C     C_R   0.502541 0.500428 0.610958 0.907512
C40   C     C_R   0.657205 0.403165 0.880244 0.547934
C41   C     C_R   0.554234 0.618658 0.884251 0.516870
C42   C     C_R   0.573000 0.625531 0.944110 0.029984
C43   C     C_R   0.628795 0.514020 0.973017 -0.060316
C44   C     C_R   0.669467 0.399422 0.941228 -0.223654
H1    H     H_    0.492833 0.827482 0.954103 0.193785
H2    H     H_    0.628526 0.694165 0.672419 0.152944
H3    H     H_    0.426238 0.309587 0.688735 0.161956
H4    H     H_    0.468340 0.313745 0.793911 0.154171
H5    H     H_    0.885648 0.520715 0.596813 0.144946
H6    H     H_    0.886452 0.296443 0.541470 0.201510
H7    H     H_    0.889677 0.678074 0.560106 0.211136
H8    H     H_    0.879153 0.294299 0.464491 0.165371
H9    H     H_    0.101559 0.687865 0.453055 0.206966
H10   H     H_    0.108497 0.542748 0.409094 0.230080
H11   H     H_    0.891807 0.681037 0.446068 0.198121
H12   H     H_    0.894722 0.519607 0.408324 0.195283
H13   H     H_    0.512417 0.831181 0.058649 0.203797
H14   H     H_    0.306938 0.114952 0.484055 0.042978
H15   H     H_    0.304458 0.890806 0.493828 0.102353
H16   H     H_    0.642152 0.128663 0.434245 0.207772
H17   H     H_    0.620851 0.888229 0.426386 0.211687
H18   H     H_    0.563854 0.124910 0.587091 0.171437
H19   H     H_    0.580597 0.887731 0.583760 0.161629
H20   H     H_    0.399103 0.113528 0.577542 0.160750
H21   H     H_    0.414978 0.875589 0.581906 0.162898
H22   H     H_    0.697394 0.113808 0.505876 0.137237
H23   H     H_    0.698331 0.880010 0.494544 0.149592
H24   H     H_    0.700832 0.616670 0.346464 0.144434
H25   H     H_    0.439269 0.382576 0.195547 0.173616
H26   H     H_    0.674963 0.694046 0.776516 0.161901
N1    N     N_R   0.596164 0.508814 0.853668 -0.353646
N2    N     N_R   0.634609 0.510098 0.153507 -0.327731
N3    N     N_3   0.499750 0.138610 0.498760 -0.069325
N4    N     N_3   0.499750 0.861390 0.498760 -0.071762
O1    O     O_R   0.314910 0.616040 0.499990 -0.667251
O2    O     O_R   0.314910 0.383960 0.499990 -0.645366
O3    O     O_R   0.500080 0.616070 0.416130 -0.584909
O4    O     O_R   0.500080 0.383930 0.416130 -0.602835
O5    O     O_R   0.685320 0.616040 0.499970 -0.636668
O6    O     O_R   0.685320 0.383960 0.499970 -0.640920
O7    O     O_R   0.500150 0.616010 0.583820 -0.632428
O8    O     O_R   0.500150 0.383990 0.583820 -0.624831
O9    O     O_2   0.707941 0.304666 0.847357 -0.525611
O10   O     O_2   0.492765 0.720181 0.856746 -0.554542
O11   O     O_2   0.551546 0.731892 0.155960 -0.516292
O12   O     O_2   0.716267 0.288757 0.155012 -0.498066
Zn1   Zn    Zn3+2 0.500150 0.654960 0.499970 0.926288
Zn2   Zn    Zn3+2 0.500150 0.345040 0.499970 0.931534
C45   C     C_2   0.124288 0.718371 0.567074 0.417902
H27   H     H_    0.210700 0.737168 0.591359 0.107163
O13   O     O_2   0.072503 0.815859 0.544358 -0.639867
C46   C     C_2   0.097844 0.258443 0.448269 0.287298
H28   H     H_    0.113216 0.149356 0.452998 0.079586
O14   O     O_2   0.092166 0.305261 0.399367 -0.597034
O15   O     O_3   0.119987 0.502873 0.610777 -0.785242
H29   H     H_    0.057495 0.436277 0.625413 0.385360
O16   O     O_3   0.101071 0.269418 0.552033 -0.784120
H30   H     H_    0.184339 0.229028 0.547397 0.344572
C47   C     C_2   0.385163 0.134651 0.402446 0.519484
H31   H     H_    0.300672 0.183177 0.387492 0.096121
O17   O     O_2   0.469884 0.121979 0.368327 -0.502498
C48   C     C_2   0.357890 0.844774 0.410224 0.493831
H32   H     H_    0.271283 0.786868 0.404962 0.027465
O18   O     O_2   0.428102 0.851374 0.369263 -0.510167
O19   O     O_3   0.806043 0.187942 0.057251 -0.648025
H33   H     H_    0.865560 0.229665 0.085881 0.373539
O20   O     O_3   0.759668 0.169771 0.943573 -0.651360
H34   H     H_    0.686639 0.136620 0.920182 0.357152
C49   C     C_2   0.804182 0.634860 0.242989 0.516854
H35   H     H_    0.853951 0.692341 0.276826 0.051684
O21   O     O_2   0.850294 0.627973 0.195128 -0.534459
O22   O     O_3   0.342705 0.371864 0.297151 -0.712235
H36   H     H_    0.315363 0.400340 0.336046 0.329258

loop_
_geom_bond_atom_site_label_1
_geom_bond_atom_site_label_2
_ccdc_geom_bond_type
C18   H26   S    
C22   H4    S    
C33   H14   S    
C40   N1    A    
C11   C49   S    
C11   C13   A    
C41   C42   A    
O15   H29   S    
C9    N2    A    
O5    Zn1   S    
O16   H30   S    
C19   H2    S    
C7    C8    A    
C34   C48   S    
C18   C24   A    
C37   C38   S    
C29   C32   S    
C49   O21   D    
C5    C6    A    
C29   H10   S    
C26   C46   S    
C15   C16   A    
C18   C19   A    
C46   H28   S    
C9    O11   S    
C28   H6    S    
C11   C17   A    
C31   C32   S    
C16   C17   A    
C12   O4    A    
O20   H34   S    
C7    O19   S    
N4    Zn1   S    
C45   O13   D    
O2    Zn2   S    
C32   H11   S    
C41   N1    A    
C5    C43   A    
C21   C22   A    
C40   O9    S    
O22   H36   S    
C27   H7    S    
C37   H18   S    
C2    H1    S    
O4    Zn2   S    
C36   H23   S    
C27   C31   S    
C1    O1    A    
C39   O7    A    
C20   C39   S    
C35   H22   S    
C41   O10   S    
C35   H16   S    
C33   C47   S    
C35   C36   S    
C23   C31   S    
C43   C44   A    
N3    Zn2   S    
C29   C30   S    
C47   H31   S    
C38   H21   S    
C12   O3    A    
C46   O14   D    
C33   C34   S    
C48   O18   D    
O7    Zn1   S    
C36   N4    S    
C34   N4    S    
C3    H13   S    
C33   N3    S    
C47   O17   D    
C12   C14   S    
C25   O15   S    
C34   H15   S    
C23   O6    A    
C22   C24   A    
C42   C43   A    
C36   H17   S    
C8    O20   S    
C37   H20   S    
C38   H19   S    
C38   N4    S    
O1    Zn1   S    
C25   C30   S    
C37   N3    S    
C35   N3    S    
C1    O2    A    
C25   C45   S    
C15   O22   S    
C28   C31   S    
C16   H25   S    
C8    C44   A    
C39   O8    A    
C4    C5    A    
C6    C10   A    
C26   C30   S    
C6    C7    A    
C25   C27   S    
O19   H33   S    
C26   C28   S    
C19   C20   A    
C2    C3    A    
C4    C9    A    
O6    Zn2   S    
C49   H35   S    
C28   H8    S    
C10   O12   S    
C29   H9    S    
C2    C42   A    
O8    Zn2   S    
C1    C30   S    
C48   H32   S    
C26   O16   S    
C27   H5    S    
C40   C44   A    
C20   C21   A    
O3    Zn1   S    
C17   N2    S    
C14   C15   A    
C23   O5    A    
C45   H27   S    
C13   C14   A    
C32   H12   S    
C3    C4    A    
C24   N1    S    
C21   H3    S    
C13   H24   S    
C10   N2    A    
