data_mof_unit_8630.cif
_audit_creation_date              2012-12-10T20:53:06-0500
_audit_creation_method            fapswitch 2.2
_symmetry_space_group_name_H-M    P1
_symmetry_Int_Tables_number       1
_space_group_crystal_system       triclinic
_cell_length_a                    18.231891
_cell_length_b                    18.299364
_cell_length_c                    18.269569
_cell_angle_alpha                 60.202298
_cell_angle_beta                  59.848312
_cell_angle_gamma                 60.19717
_cell_volume                      4317.99613377

loop_
_atom_site_label
_atom_site_type_symbol
_atom_type_description
_atom_site_fract_x
_atom_site_fract_y
_atom_site_fract_z
_atom_type_partial_charge
C1    C     C_R   0.390903 0.101164 0.118321 0.519365
C2    C     C_R   0.397214 0.792937 0.757246 -0.081006
C3    C     C_R   0.029769 0.579810 0.914652 0.025083
C4    C     C_R   0.407573 0.973784 0.084377 0.031915
C5    C     C_R   0.594494 0.918962 0.023401 0.027418
C6    C     C_R   0.910530 0.980085 0.554268 -0.018819
C7    C     C_R   0.020412 0.087470 0.449453 -0.019632
C8    C     C_R   0.957930 0.553073 0.935147 -0.015243
C9    C     C_R   0.078946 0.440692 0.029418 -0.014382
C10   C     C_R   0.553109 0.910848 0.980526 -0.020711
C11   C     C_R   0.448264 0.020552 0.088160 -0.018502
C12   C     C_3   0.914448 0.292858 0.335071 -0.311213
C13   C     C_R   0.196408 0.227651 0.618772 -0.078895
C14   C     C_3   0.711896 0.072127 0.678041 -0.296085
C15   C     C_3   0.215932 0.278593 0.940129 -0.283484
C16   C     C_3   0.072416 0.635885 0.708014 -0.301627
C17   C     C_3   0.324843 0.919633 0.292669 -0.309448
C18   C     C_3   0.679187 0.712074 0.082909 -0.311727
C19   C     C_3   0.231328 0.536625 0.344851 -0.407270
C20   C     C_3   0.764780 0.472520 0.655947 -0.407361
C21   C     C_3   0.519843 0.348143 0.239251 -0.407042
C22   C     C_3   0.497960 0.636923 0.755788 -0.410979
C23   C     C_3   0.353047 0.235364 0.525990 -0.408317
C24   C     C_R   0.797411 0.760032 0.392615 -0.079596
C25   C     C_3   0.641192 0.756081 0.495366 -0.409010
C26   C     C_R   0.179647 0.581726 0.281846 0.048637
C27   C     C_R   0.818080 0.422485 0.718211 0.051088
C28   C     C_R   0.574276 0.285678 0.185456 0.049958
C29   C     C_R   0.437433 0.704178 0.804262 0.047784
C30   C     C_R   0.287463 0.185100 0.576994 0.048696
C31   C     C_R   0.707813 0.805589 0.434737 0.052567
C32   C     C_R   0.090286 0.583929 0.313490 0.071565
C33   C     C_R   0.609387 0.880825 0.899523 0.517891
C34   C     C_R   0.908974 0.416063 0.686116 0.072098
C35   C     C_R   0.583871 0.316588 0.094101 0.072257
C36   C     C_R   0.420016 0.679737 0.896717 0.075246
C37   C     C_R   0.315673 0.095613 0.582893 0.073273
C38   C     C_R   0.681962 0.897557 0.419103 0.077468
C39   C     C_R   0.044684 0.624535 0.252649 -0.087231
C40   C     C_R   0.956442 0.369831 0.746168 -0.090737
C41   C     C_R   0.634666 0.256502 0.045976 -0.091585
C42   C     C_R   0.362498 0.743862 0.940018 -0.104537
C43   C     C_R   0.252497 0.051340 0.628776 -0.086654
C44   C     C_R   0.101262 0.118012 0.391129 0.520875
C45   C     C_R   0.745749 0.941600 0.362142 -0.105092
C46   C     C_R   0.086629 0.663277 0.161500 -0.110020
C47   C     C_R   0.914668 0.330094 0.837067 -0.112467
C48   C     C_R   0.675814 0.166775 0.087440 -0.124009
C49   C     C_R   0.322585 0.831416 0.892529 -0.122719
C50   C     C_R   0.162674 0.094081 0.670636 -0.121928
C51   C     C_R   0.834223 0.895551 0.320498 -0.124319
C52   C     C_R   0.174519 0.661643 0.130163 -0.115902
C53   C     C_R   0.825096 0.336334 0.868943 -0.117074
C54   C     C_R   0.666227 0.135939 0.177504 -0.124234
C55   C     C_R   0.880824 0.899297 0.609696 0.514141
C56   C     C_R   0.340307 0.855911 0.801435 -0.111840
C57   C     C_R   0.134606 0.182044 0.665643 -0.121548
C58   C     C_R   0.859968 0.805062 0.335834 -0.115077
C59   C     C_R   0.989989 0.590613 0.464537 -0.168229
C60   C     C_R   0.009992 0.409373 0.535379 -0.166980
C61   C     C_R   0.590067 0.466533 0.993000 -0.168093
C62   C     C_R   0.410730 0.532746 0.005537 -0.165924
C63   C     C_R   0.465410 0.992626 0.590110 -0.166758
C64   C     C_R   0.534138 0.005577 0.410265 -0.166474
C65   C     C_R   0.944768 0.552651 0.554933 0.015398
C66   C     C_R   0.117507 0.389046 0.102588 0.501489
C67   C     C_R   0.055087 0.447370 0.444984 0.017040
C68   C     C_R   0.552765 0.554873 0.944224 0.018138
C69   C     C_R   0.447870 0.444536 0.054642 0.018967
C70   C     C_R   0.554545 0.943758 0.552929 0.015366
C71   C     C_R   0.445098 0.054636 0.447403 0.015669
C72   C     C_R   0.954682 0.460875 0.590930 -0.032089
C73   C     C_R   0.044993 0.539181 0.408900 -0.033457
C74   C     C_R   0.462502 0.588098 0.949351 -0.031325
C75   C     C_R   0.538900 0.410568 0.047743 -0.033367
C76   C     C_R   0.589046 0.949223 0.462260 -0.031085
C77   C     C_R   0.891387 0.609952 0.889161 0.520089
C78   C     C_R   0.410059 0.047693 0.538575 -0.034089
C79   C     C_R   0.110654 0.390250 0.389842 0.499678
C80   C     C_R   0.889369 0.609746 0.610141 0.497737
C81   C     C_R   0.390569 0.389558 0.110498 0.497376
C82   C     C_R   0.609552 0.610344 0.889294 0.495513
C83   C     C_R   0.389933 0.110476 0.390389 0.501452
C84   C     C_R   0.610023 0.889239 0.609653 0.498221
C85   C     C_R   0.962255 0.147535 0.325572 0.173195
C86   C     C_R   0.860601 0.027317 0.683876 0.181133
C87   C     C_R   0.056028 0.312745 0.033714 0.174727
C88   C     C_R   0.220957 0.621136 0.189805 -0.080058
C89   C     C_R   0.052551 0.654676 0.839533 0.169972
C90   C     C_R   0.320435 0.967485 0.144725 0.176214
C91   C     C_R   0.682559 0.861809 0.027361 0.176405
C92   C     C_R   0.923150 0.135367 0.285171 -0.117316
C93   C     C_R   0.880664 0.057056 0.726677 -0.106431
C94   C     C_R   0.990969 0.282135 0.049238 -0.135398
C95   C     C_R   0.111484 0.686220 0.834624 -0.111428
C96   C     C_R   0.278537 0.932574 0.129264 -0.115491
C97   C     C_R   0.725800 0.882609 0.056042 -0.113607
C98   C     C_R   0.885121 0.068864 0.330289 -0.167123
C99   C     C_R   0.776925 0.382200 0.810010 -0.077902
C100  C     C_R   0.948827 0.093398 0.680372 -0.169373
C101  C     C_R   0.905833 0.341394 0.047109 -0.162140
C102  C     C_R   0.156508 0.639544 0.895550 -0.162948
C103  C     C_R   0.325151 0.893126 0.063598 -0.164064
C104  C     C_R   0.679816 0.950717 0.091970 -0.169162
C105  C     C_R   0.881666 0.015922 0.418077 -0.114419
C106  C     C_R   0.996137 0.103264 0.589973 -0.119088
C107  C     C_R   0.889288 0.432677 0.017348 -0.097723
C108  C     C_R   0.146221 0.558877 0.960066 -0.116695
C109  C     C_R   0.414923 0.885748 0.013813 -0.115273
C110  C     C_R   0.615911 0.194868 0.226427 -0.078885
C111  C     C_R   0.589216 0.996837 0.102984 -0.117389
C112  C     C_R   0.923743 0.023205 0.460620 -0.030807
C113  C     C_R   0.982053 0.069128 0.544749 -0.031707
C114  C     C_R   0.957880 0.465018 0.991773 -0.033067
C115  C     C_R   0.083371 0.527268 0.970859 -0.030866
C116  C     C_R   0.458615 0.925495 0.022775 -0.031091
C117  C     C_R   0.543605 0.982088 0.069769 -0.031491
C118  C     C_R   0.971974 0.084776 0.409949 0.027555
C119  C     C_R   0.918768 0.022628 0.595874 0.025996
C120  C     C_R   0.032436 0.404854 0.019121 0.024597
H1    H     H_    0.959813 0.121216 0.712848 0.107164
H2    H     H_    0.341556 0.558303 0.008979 0.131042
H3    H     H_    0.438765 0.988911 0.659491 0.138836
H4    H     H_    0.560760 0.009463 0.340809 0.132302
H5    H     H_    0.915598 0.182070 0.221259 0.105352
H6    H     H_    0.838824 0.058272 0.794337 0.103469
H7    H     H_    0.006584 0.212329 0.062413 0.095520
H8    H     H_    0.127026 0.744368 0.779613 0.103301
H9    H     H_    0.211611 0.929641 0.173051 0.101708
H10   H     H_    0.793553 0.841561 0.056646 0.101660
H11   H     H_    0.838668 0.976397 0.451960 0.170841
H12   H     H_    0.850942 0.063864 0.299638 0.103511
H13   H     H_    0.037161 0.144290 0.557937 0.172819
H14   H     H_    0.823497 0.476975 0.012866 0.134199
H15   H     H_    0.192368 0.520355 0.996713 0.153305
H16   H     H_    0.448776 0.842235 0.974968 0.170133
H17   H     H_    0.557424 0.037807 0.143915 0.173511
H18   H     H_    0.206747 0.691397 0.059380 0.101571
H19   H     H_    0.792959 0.305865 0.939570 0.102274
H20   H     H_    0.697702 0.066125 0.209291 0.099921
H21   H     H_    0.309835 0.924070 0.765342 0.105929
H22   H     H_    0.064705 0.214882 0.697840 0.102108
H23   H     H_    0.204867 0.662594 0.888502 0.114163
H24   H     H_    0.928751 0.770001 0.303674 0.106549
H25   H     H_    0.289454 0.619842 0.163966 0.097917
H26   H     H_    0.707254 0.386897 0.836162 0.098091
H27   H     H_    0.609110 0.169429 0.296399 0.099468
H28   H     H_    0.409992 0.813655 0.686319 0.098824
H29   H     H_    0.173084 0.296241 0.614875 0.096860
H30   H     H_    0.819078 0.689588 0.403739 0.098324
H31   H     H_    0.976868 0.625072 0.275896 0.094213
H32   H     H_    0.025600 0.365663 0.722602 0.094158
H33   H     H_    0.641462 0.279113 0.976406 0.095442
H34   H     H_    0.854540 0.317100 0.062751 0.109599
H35   H     H_    0.349362 0.726034 0.010493 0.086772
H36   H     H_    0.272997 0.983570 0.631707 0.095074
H37   H     H_    0.726742 0.011679 0.350602 0.086132
H38   H     H_    0.051143 0.694098 0.114997 0.109002
H39   H     H_    0.951661 0.294869 0.882938 0.114154
H40   H     H_    0.714820 0.121054 0.049697 0.104145
H41   H     H_    0.278046 0.880685 0.926067 0.102735
H42   H     H_    0.114882 0.058820 0.706830 0.104205
H43   H     H_    0.883119 0.929853 0.276351 0.102929
H44   H     H_    0.989272 0.259319 0.219527 0.266738
H45   H     H_    0.712650 0.962755 0.118574 0.108824
H46   H     H_    0.934739 0.353015 0.302148 0.136353
H47   H     H_    0.912278 0.263606 0.405591 0.145238
H48   H     H_    0.846391 0.313252 0.334029 0.130477
H49   H     H_    0.746779 0.002925 0.793728 0.258857
H50   H     H_    0.685308 0.030870 0.675353 0.143670
H51   H     H_    0.742663 0.112152 0.608367 0.136986
H52   H     H_    0.654959 0.118907 0.714089 0.120520
H53   H     H_    0.154369 0.185473 0.048857 0.247785
H54   H     H_    0.271021 0.272005 0.955498 0.154595
H55   H     H_    0.191037 0.348486 0.897572 0.135009
H56   H     H_    0.293533 0.861214 0.056759 0.104214
H57   H     H_    0.243347 0.234059 0.901193 0.122903
H58   H     H_    0.025994 0.756806 0.725557 0.252896
H59   H     H_    0.043963 0.667772 0.653740 0.135277
H60   H     H_    0.063316 0.569512 0.748279 0.151116
H61   H     H_    0.145312 0.627093 0.677315 0.123390
H62   H     H_    0.211309 0.994982 0.255952 0.258006
H63   H     H_    0.289855 0.939530 0.353492 0.136168
H64   H     H_    0.395474 0.917487 0.265187 0.144123
H65   H     H_    0.323705 0.852126 0.312073 0.129003
H66   H     H_    0.792002 0.750882 0.001438 0.257007
H67   H     H_    0.983611 0.660542 0.437053 0.140244
H68   H     H_    0.608384 0.736990 0.087011 0.144214
H69   H     H_    0.680985 0.696299 0.149222 0.131005
H70   H     H_    0.714435 0.649889 0.065636 0.125079
H71   H     H_    0.195432 0.568395 0.397380 0.125600
H72   H     H_    0.237838 0.464838 0.377191 0.132032
H73   H     H_    0.299970 0.541592 0.309150 0.112542
H74   H     H_    0.798209 0.443134 0.601908 0.125229
H75   H     H_    0.695387 0.469483 0.691801 0.111887
H76   H     H_    0.760141 0.543735 0.625544 0.131329
H77   H     H_    0.547777 0.402924 0.207368 0.122530
H78   H     H_    0.016499 0.339397 0.562884 0.134047
H79   H     H_    0.448917 0.376971 0.242321 0.133718
H80   H     H_    0.520683 0.313270 0.309031 0.110835
H81   H     H_    0.472319 0.580234 0.789319 0.125418
H82   H     H_    0.501173 0.666530 0.684861 0.110350
H83   H     H_    0.567145 0.611611 0.756203 0.133551
H84   H     H_    0.407329 0.200244 0.555120 0.125801
H85   H     H_    0.383031 0.239694 0.454534 0.131732
H86   H     H_    0.319913 0.304317 0.528709 0.111263
H87   H     H_    0.584079 0.788416 0.470647 0.124457
H88   H     H_    0.672129 0.685428 0.497877 0.109703
H89   H     H_    0.659402 0.440804 0.989129 0.133569
H90   H     H_    0.615479 0.756595 0.564577 0.132974
N1    N     N_2   0.978514 0.229817 0.287303 -0.476220
N2    N     N_2   0.775681 0.014191 0.725560 -0.473728
N3    N     N_2   0.145999 0.252583 0.023426 -0.467965
N4    N     N_2   0.026676 0.691925 0.763149 -0.477614
N5    N     N_2   0.279657 0.983470 0.227839 -0.473685
N6    N     N_2   0.723471 0.777233 0.014850 -0.473708
O1    O     O_3   0.250000 0.250000 0.250000 -0.433820
O2    O     O_R   0.865800 0.694910 0.573470 -0.546213
O3    O     O_R   0.305090 0.426530 0.134200 -0.553056
O4    O     O_R   0.694910 0.573470 0.865800 -0.550056
O5    O     O_R   0.426530 0.134200 0.305090 -0.553122
O6    O     O_R   0.573470 0.865800 0.694910 -0.544547
O7    O     O_R   0.134190 0.426530 0.134200 -0.556923
O8    O     O_R   0.865810 0.573470 0.865800 -0.550136
O9    O     O_R   0.426530 0.134200 0.134190 -0.567983
O10   O     O_R   0.573470 0.865800 0.865810 -0.565208
O11   O     O_R   0.134200 0.134190 0.426530 -0.566628
O12   O     O_3   0.750000 0.750000 0.750000 -0.433829
O13   O     O_R   0.865800 0.865810 0.573470 -0.564967
O14   O     O_R   0.426530 0.305080 0.134210 -0.531490
O15   O     O_R   0.573470 0.694920 0.865790 -0.539952
O16   O     O_R   0.305080 0.134210 0.426530 -0.530809
O17   O     O_R   0.694920 0.865790 0.573470 -0.540197
O18   O     O_R   0.134210 0.426530 0.305080 -0.528677
O19   O     O_R   0.865790 0.573470 0.694920 -0.529683
O20   O     O_R   0.305080 0.134200 0.134200 -0.502890
O21   O     O_R   0.694920 0.865800 0.865800 -0.506322
O22   O     O_R   0.134200 0.134200 0.305080 -0.505348
O23   O     O_R   0.865800 0.865800 0.694920 -0.504583
O24   O     O_R   0.134200 0.305080 0.134200 -0.508550
O25   O     O_R   0.865800 0.694920 0.865800 -0.509182
O26   O     O_R   0.134200 0.305090 0.426530 -0.554370
Zn1   Zn    Zn3+2 0.206620 0.206630 0.380140 0.923527
Zn2   Zn    Zn3+2 0.793380 0.793370 0.619860 0.921605
Zn3   Zn    Zn3+2 0.206630 0.380140 0.206620 0.923565
Zn4   Zn    Zn3+2 0.793370 0.619860 0.793380 0.928913
Zn5   Zn    Zn3+2 0.380140 0.206620 0.206630 0.921377
Zn6   Zn    Zn3+2 0.619860 0.793380 0.793370 0.919715
Zn7   Zn    Zn3+2 0.206620 0.206620 0.206620 0.950580
Zn8   Zn    Zn3+2 0.793380 0.793380 0.793380 0.951560

loop_
_geom_bond_atom_site_label_1
_geom_bond_atom_site_label_2
_ccdc_geom_bond_type
O9    Zn5   S    
C40   C47   A    
C112  C118  A    
C82   O15   A    
C18   H69   S    
C26   C32   A    
C22   C29   S    
C39   H31   S    
C50   H42   S    
O16   Zn1   S    
C55   O13   A    
C15   H55   S    
C36   C42   A    
O15   Zn6   S    
C1    C11   S    
O20   Zn7   S    
C15   N3    S    
C92   H5    S    
C12   H47   S    
C92   C98   A    
C63   C78   A    
C105  H11   S    
C38   C76   S    
C94   H7    S    
C53   C99   A    
C48   C54   A    
C48   H40   S    
C29   C36   A    
C27   C99   A    
C98   C105  A    
C24   C58   A    
C57   H22   S    
C2    C29   A    
C77   O25   A    
C101  H34   S    
C108  C115  A    
O1    Zn3   S    
C97   H10   S    
C107  H14   S    
C5    C10   A    
O18   Zn3   S    
C12   H46   S    
C79   O26   A    
C13   C57   A    
C83   O16   A    
C45   C51   A    
C1    O20   A    
C2    H28   S    
C46   H38   S    
C87   C94   A    
C46   C52   A    
C54   C110  A    
C100  H1    S    
C64   C71   A    
C19   C26   S    
C9    C66   S    
C38   C45   A    
C77   O8    A    
C109  C116  A    
C104  H45   S    
C93   H6    S    
O6    Zn6   S    
C95   H8    S    
C106  H13   S    
C54   H20   S    
C28   C35   A    
C17   H65   S    
H66   N6    S    
O8    Zn4   S    
C52   H18   S    
C88   H25   S    
O3    Zn3   S    
C51   H43   S    
C86   C119  A    
C67   C73   A    
O2    Zn2   S    
C25   H88   S    
C70   C84   S    
C59   C73   A    
O19   Zn4   S    
C41   H33   S    
C15   H54   S    
C95   C102  A    
C8    C114  A    
C19   H72   S    
C47   C53   A    
C84   O6    A    
C89   N4    S    
C82   O4    A    
C103  C109  A    
C33   O21   A    
O24   Zn7   S    
C65   C80   S    
C113  C119  A    
C23   H85   S    
O23   Zn8   S    
C7    C118  A    
C25   H90   S    
O1    Zn7   S    
C21   H79   S    
C6    C55   S    
C35   C41   A    
C85   N1    S    
C20   H74   S    
C90   N5    S    
C85   C92   A    
C4    C116  A    
C71   C83   S    
C27   C34   A    
C87   N3    S    
H58   N4    S    
C106  C113  A    
C42   H35   S    
C9    C115  A    
C23   C30   S    
C13   C30   A    
C52   C88   A    
C45   H37   S    
C60   C67   A    
C108  H15   S    
C14   H52   S    
C3    C8    A    
C32   C73   S    
C3    C115  A    
O13   Zn2   S    
C22   H82   S    
C16   H61   S    
C14   H51   S    
C47   H39   S    
C59   H67   S    
O5    Zn5   S    
C28   C110  A    
C64   H4    S    
H49   N2    S    
C61   C75   A    
C30   C37   A    
C5    C117  A    
C89   C95   A    
H53   N3    S    
O1    Zn1   S    
C107  C114  A    
C91   N6    S    
C86   C93   A    
C17   H63   S    
O17   Zn2   S    
O12   Zn2   S    
C63   C70   A    
C24   H30   S    
C35   C75   S    
C80   O19   A    
O26   Zn1   S    
C64   C76   A    
C67   C79   S    
C43   C50   A    
C51   C58   A    
C61   H89   S    
C7    C44   S    
C91   C97   A    
C4    C11   A    
C102  C108  A    
C93   C100  A    
C5    C91   A    
C36   C74   S    
C39   C46   A    
C56   H21   S    
C22   H83   S    
C94   C101  A    
C99   H26   S    
C33   O10   A    
C12   N1    S    
C17   N5    S    
C81   O14   A    
C15   H57   S    
O22   Zn7   S    
C70   C76   A    
C8    C77   S    
C34   C40   A    
C37   C43   A    
C86   N2    S    
C102  H23   S    
C21   H80   S    
C110  H27   S    
C11   C117  A    
C34   C72   S    
C6    C119  A    
C62   H2    S    
C10   C116  A    
C111  H17   S    
C1    O9    A    
O4    Zn4   S    
C43   H36   S    
C18   H70   S    
C20   H75   S    
C22   H81   S    
C66   O24   A    
C53   H19   S    
C50   C57   A    
C49   H41   S    
C25   C31   S    
C105  C112  A    
C18   N6    S    
O25   Zn8   S    
O1    Zn5   S    
C79   O18   A    
C21   H77   S    
C66   O7    A    
C44   O22   A    
C12   H48   S    
C104  C111  A    
C63   H3    S    
C16   H59   S    
C4    C90   A    
C90   C96   A    
O12   Zn6   S    
C20   C27   S    
C60   H78   S    
C65   C72   A    
C37   C78   S    
C100  C106  A    
C31   C38   A    
C14   N2    S    
C23   H84   S    
C3    C89   A    
C68   C82   S    
C7    C113  A    
C84   O17   A    
C24   C31   A    
C13   H29   S    
C87   C120  A    
C23   H86   S    
C49   C56   A    
C2    C56   A    
C111  C117  A    
C59   C65   A    
O11   Zn1   S    
C61   C68   A    
H62   N5    S    
C14   H50   S    
O7    Zn3   S    
C17   H64   S    
C18   H68   S    
C103  H56   S    
C41   C48   A    
C69   C75   A    
C10   C33   S    
C85   C118  A    
O21   Zn8   S    
C44   O11   A    
C80   O2    A    
C97   C104  A    
C69   C81   S    
C42   C49   A    
C21   C28   S    
C83   O5    A    
C58   H24   S    
C40   H32   S    
O12   Zn4   S    
C62   C69   A    
C16   N4    S    
C26   C88   A    
C96   C103  A    
C98   H12   S    
C101  C107  A    
C32   C39   A    
C9    C120  A    
C60   C72   A    
C62   C74   A    
C6    C112  A    
H44   N1    S    
C55   O23   A    
C25   H87   S    
O10   Zn6   S    
C68   C74   A    
C20   H76   S    
C71   C78   A    
C114  C120  A    
O14   Zn5   S    
C16   H60   S    
C19   H73   S    
C19   H71   S    
C96   H9    S    
C109  H16   S    
O12   Zn8   S    
C81   O3    A    
