data_mof_unit_58582.cif
_audit_creation_date              2012-12-10T20:07:09-0500
_audit_creation_method            fapswitch 2.2
_symmetry_space_group_name_H-M    P1
_symmetry_Int_Tables_number       1
_space_group_crystal_system       triclinic
_cell_length_a                    19.322535
_cell_length_b                    18.471925
_cell_length_c                    10.670531
_cell_angle_alpha                 89.900759
_cell_angle_beta                  90.221943
_cell_angle_gamma                 89.900246
_cell_volume                      3808.53295595

loop_
_atom_site_label
_atom_site_type_symbol
_atom_type_description
_atom_site_fract_x
_atom_site_fract_y
_atom_site_fract_z
_atom_type_partial_charge
C1    C     C_R   0.365672 0.500062 0.499880 0.834540
C2    C     C_R   0.634307 0.499943 0.500070 0.834391
C3    C     C_R   0.709371 0.499831 0.499282 -0.038930
C4    C     C_R   0.290562 0.500212 0.499558 -0.021952
C5    C     C_R   0.963795 0.546556 0.416369 -0.174793
C6    C     C_R   0.035842 0.453496 0.577982 -0.171072
C7    C     C_R   0.035472 0.546815 0.416971 -0.177535
C8    C     C_R   0.964198 0.453019 0.576955 -0.197154
C9    C     C_R   0.071634 0.500336 0.497882 0.101602
C10   C     C_R   0.928087 0.499654 0.496365 0.105312
C11   C     C_R   0.544595 0.725788 0.576257 0.022345
C12   C     C_R   0.455670 0.274299 0.423123 0.020596
C13   C     C_R   0.455509 0.726088 0.423548 0.023407
C14   C     C_R   0.544140 0.273832 0.576986 0.020847
C15   C     C_R   0.545446 0.801763 0.577713 -0.279619
C16   C     C_R   0.454649 0.198333 0.421684 -0.285928
C17   C     C_R   0.454701 0.802060 0.421936 -0.280005
C18   C     C_R   0.544827 0.197861 0.578548 -0.283164
C19   C     C_R   0.500057 0.841327 0.499822 0.118090
C20   C     C_R   0.499674 0.158671 0.500131 0.122750
C21   C     C_R   0.489093 0.962128 0.388414 -0.185485
C22   C     C_R   0.510464 0.037844 0.611557 -0.186723
C23   C     C_R   0.510636 0.961815 0.611459 -0.182271
C24   C     C_R   0.488951 0.038160 0.388498 -0.183845
C25   C     C_R   0.499649 0.077307 0.500070 0.123684
C26   C     C_R   0.499956 0.922678 0.499888 0.124003
C27   C     C_R   0.499829 0.500056 0.260559 0.891173
C28   C     C_R   0.500391 0.499937 0.739416 0.888797
C29   C     C_R   0.620406 0.545818 0.131363 -0.378122
C30   C     C_R   0.379673 0.454735 0.868614 -0.378083
C31   C     C_R   0.621877 0.542627 0.870899 -0.376186
C32   C     C_R   0.379567 0.454125 0.129041 -0.391132
C33   C     C_R   0.679478 0.568825 0.067022 0.437206
C34   C     C_R   0.321336 0.429803 0.932888 0.457553
C35   C     C_R   0.680976 0.564421 0.936496 0.448449
C36   C     C_R   0.321314 0.429378 0.063533 0.462158
C37   C     C_R   0.560712 0.522314 0.935109 0.007034
C38   C     C_R   0.439989 0.476567 0.064777 0.011553
C39   C     C_R   0.560250 0.523133 0.065875 0.016352
C40   C     C_R   0.440106 0.476685 0.934041 0.014832
C41   C     C_R   0.500381 0.499756 0.871651 -0.092889
C42   C     C_R   0.499940 0.500149 0.128269 -0.092378
C43   C     C_R   0.745482 0.434109 0.491615 -0.202177
C44   C     C_R   0.254396 0.566058 0.501631 -0.171135
C45   C     C_R   0.254440 0.434523 0.496993 -0.161482
C46   C     C_R   0.745493 0.565444 0.505974 -0.153119
C47   C     C_R   0.817126 0.434072 0.490361 -0.179046
C48   C     C_R   0.182718 0.566129 0.501140 -0.164523
C49   C     C_R   0.182825 0.434694 0.496169 -0.153653
C50   C     C_R   0.817099 0.565321 0.504036 -0.176335
C51   C     C_R   0.853005 0.499681 0.496414 0.120860
C52   C     C_R   0.146809 0.500423 0.498368 0.129264
H1    H     H_    0.622664 0.545541 0.232543 0.173330
H2    H     H_    0.376756 0.456608 0.767498 0.173693
H3    H     H_    0.624951 0.541373 0.769759 0.171586
H4    H     H_    0.376578 0.455542 0.230141 0.169810
H5    H     H_    0.718525 0.382838 0.486275 0.158204
H6    H     H_    0.281329 0.617419 0.503980 0.153326
H7    H     H_    0.281335 0.383062 0.495368 0.136980
H8    H     H_    0.718598 0.616748 0.513207 0.151377
H9    H     H_    0.844557 0.383038 0.483534 0.133156
H10   H     H_    0.155315 0.617306 0.504228 0.128845
H11   H     H_    0.155484 0.383597 0.492817 0.115207
H12   H     H_    0.844545 0.616263 0.510817 0.125378
H13   H     H_    0.936223 0.582186 0.352667 0.137015
H14   H     H_    0.063301 0.417997 0.642069 0.137668
H15   H     H_    0.062680 0.582535 0.353449 0.138937
H16   H     H_    0.936944 0.417101 0.640081 0.128844
H17   H     H_    0.579768 0.695735 0.636021 0.132816
H18   H     H_    0.420870 0.304416 0.362820 0.107437
H19   H     H_    0.420351 0.696277 0.363793 0.127291
H20   H     H_    0.579114 0.303577 0.637194 0.122590
H21   H     H_    0.582067 0.829196 0.638097 0.136417
H22   H     H_    0.418185 0.171008 0.360839 0.129091
H23   H     H_    0.418089 0.829720 0.361499 0.134599
H24   H     H_    0.581197 0.170148 0.639387 0.133122
H25   H     H_    0.481860 0.934228 0.300217 0.129729
H26   H     H_    0.517674 0.065723 0.699778 0.128714
H27   H     H_    0.517973 0.933669 0.699588 0.130725
H28   H     H_    0.481646 0.066289 0.300347 0.129001
N1    N     N_R   0.500000 0.689440 0.500000 -0.095130
N2    N     N_R   0.500000 0.310560 0.500000 -0.090842
O1    O     O_R   0.398180 0.560840 0.499970 -0.619510
O2    O     O_R   0.601820 0.439160 0.500030 -0.621698
O3    O     O_R   0.601820 0.560840 0.500030 -0.639938
O4    O     O_R   0.398180 0.439160 0.499970 -0.644811
O5    O     O_R   0.499990 0.560810 0.316770 -0.623638
O6    O     O_R   0.500010 0.439190 0.683230 -0.627727
O7    O     O_R   0.500010 0.560810 0.683230 -0.613330
O8    O     O_R   0.499990 0.439190 0.316770 -0.620147
Zn1   Zn    Zn3+2 0.500000 0.581210 0.500000 0.940151
Zn2   Zn    Zn3+2 0.500000 0.418790 0.500000 0.930199
O9    O     O_3   0.262566 0.407014 0.126072 -0.569770
C53   C     C_3   0.276211 0.340246 0.186131 0.108311
H29   H     H_    0.305754 0.349430 0.274205 0.129618
H30   H     H_    0.305829 0.302256 0.125102 0.109209
C54   C     C_3   0.207944 0.304060 0.218407 -0.806358
H31   H     H_    0.179252 0.290718 0.131074 0.255221
H32   H     H_    0.217852 0.253393 0.271737 0.192584
H33   H     H_    0.175756 0.340814 0.276139 0.260956
O10   O     O_3   0.739396 0.585962 0.872496 -0.596841
C55   C     C_3   0.782459 0.525054 0.853939 0.122551
H34   H     H_    0.764687 0.494750 0.769848 0.144267
H35   H     H_    0.783322 0.487466 0.936081 0.139276
C56   C     C_3   0.856309 0.550618 0.833090 -0.767644
H36   H     H_    0.875889 0.577966 0.918766 0.261483
H37   H     H_    0.890132 0.503575 0.812199 0.197743
H38   H     H_    0.858290 0.589331 0.753614 0.254076
O11   O     O_3   0.262574 0.408071 0.869042 -0.572675
C57   C     C_3   0.275806 0.341184 0.809675 0.119203
H39   H     H_    0.304181 0.302671 0.872267 0.113307
H40   H     H_    0.306419 0.349923 0.722943 0.141340
C58   C     C_3   0.207318 0.306180 0.774323 -0.818543
H41   H     H_    0.176324 0.343476 0.714886 0.254029
H42   H     H_    0.216954 0.255355 0.721732 0.197393
H43   H     H_    0.177511 0.293337 0.860316 0.255818
O12   O     O_3   0.738303 0.590869 0.130543 -0.591927
C59   C     C_3   0.724697 0.656739 0.192939 0.139078
H44   H     H_    0.695199 0.646451 0.280403 0.139803
H45   H     H_    0.695124 0.695519 0.132717 0.132750
C60   C     C_3   0.793035 0.692355 0.227414 -0.824713
H46   H     H_    0.821920 0.706527 0.141014 0.260407
H47   H     H_    0.783228 0.742461 0.281928 0.200570
H48   H     H_    0.825024 0.654872 0.284735 0.252949

loop_
_geom_bond_atom_site_label_1
_geom_bond_atom_site_label_2
_ccdc_geom_bond_type
C21   C26   A    
C33   O12   S    
O9    C53   S    
C49   H11   S    
O5    Zn1   S    
C50   H12   S    
C14   C18   A    
C2    O2    A    
C6    C9    A    
C54   H31   S    
O3    Zn1   S    
C11   N1    A    
C15   C19   A    
C56   H37   S    
C3    C43   A    
O10   C55   S    
C6    H14   S    
C27   O8    A    
C16   H22   S    
C32   C36   A    
C38   C42   A    
C55   H35   S    
C20   C25   S    
C13   N1    A    
C28   C41   S    
N2    Zn2   S    
C55   C56   S    
C23   C26   A    
C19   C26   S    
C57   H39   S    
C60   H48   S    
C17   C19   A    
C59   H44   S    
O8    Zn2   S    
C36   O9    S    
C24   H28   S    
C12   C16   A    
C29   C33   A    
C44   H6    S    
C22   C25   A    
C28   O6    A    
C28   O7    A    
C32   C38   A    
O7    Zn1   S    
C18   C20   A    
C58   H43   S    
C53   H29   S    
C9    C52   S    
C11   C15   A    
C10   C51   S    
C54   H32   S    
C39   C42   A    
C57   H40   S    
C4    C45   A    
C56   H38   S    
C30   C34   A    
C12   N2    A    
O6    Zn2   S    
C24   C25   A    
C22   H26   S    
C5    H13   S    
C5    C7    A    
C6    C8    A    
C2    O3    A    
C4    C44   A    
C53   C54   S    
C31   C37   A    
C59   C60   S    
C53   H30   S    
C30   H2    S    
C48   H10   S    
C45   C49   A    
C16   C20   A    
C49   C52   A    
C29   C39   A    
C50   C51   A    
C30   C40   A    
C27   O5    A    
C57   C58   S    
C60   H46   S    
C40   C41   A    
C15   H21   S    
C8    H16   S    
C31   C35   A    
C14   N2    A    
C54   H33   S    
O1    Zn1   S    
C58   H41   S    
C1    O4    A    
C7    C9    A    
C12   H18   S    
C45   H7    S    
C18   H24   S    
C46   H8    S    
C14   H20   S    
C35   O10   S    
C47   H9    S    
C47   C51   A    
C11   H17   S    
C1    O1    A    
C13   H19   S    
C56   H36   S    
C46   C50   A    
C3    C46   A    
C13   C17   A    
C1    C4    S    
C31   H3    S    
C2    C3    S    
C5    C10   A    
C37   C39   A    
O4    Zn2   S    
O12   C59   S    
C38   C40   A    
C27   C42   S    
C29   H1    S    
C33   C35   A    
C34   C36   A    
C37   C41   A    
C55   H34   S    
C59   H45   S    
C60   H47   S    
C43   H5    S    
C7    H15   S    
N1    Zn1   S    
C48   C52   A    
C8    C10   A    
C21   C24   A    
C21   H25   S    
C17   H23   S    
C34   O11   S    
C22   C23   A    
O2    Zn2   S    
C23   H27   S    
O11   C57   S    
C43   C47   A    
C32   H4    S    
C44   C48   A    
C58   H42   S    
