data_mof_unit_57224.cif
_audit_creation_date              2012-12-10T20:25:45-0500
_audit_creation_method            fapswitch 2.2
_symmetry_space_group_name_H-M    P1
_symmetry_Int_Tables_number       1
_space_group_crystal_system       triclinic
_cell_length_a                    8.585576
_cell_length_b                    10.692254
_cell_length_c                    9.889975
_cell_angle_alpha                 89.187399
_cell_angle_beta                  98.34495
_cell_angle_gamma                 90.590422
_cell_volume                      898.15730468

loop_
_atom_site_label
_atom_site_type_symbol
_atom_type_description
_atom_site_fract_x
_atom_site_fract_y
_atom_site_fract_z
_atom_type_partial_charge
C1    C     C_R   0.505775 0.259784 0.501225 0.871561
C2    C     C_R   0.370737 0.459492 0.913589 0.216966
C3    C     C_3   0.294730 0.333737 0.900684 -0.522345
C4    C     C_R   0.201401 0.498438 0.464421 0.968897
C5    C     C_3   0.296757 0.332127 0.054687 -0.496000
C6    C     C_R   0.506815 0.739902 0.499943 0.883111
C7    C     C_R   0.798662 0.499494 0.535697 0.969902
C8    C     C_2   0.036453 0.494036 0.445544 -0.365679
C9    C     C_2   0.963745 0.499695 0.555019 -0.389810
C10   C     C_R   0.554507 0.061421 0.626814 0.137012
C11   C     C_R   0.534078 0.128352 0.503790 -0.102253
C12   C     C_R   0.549307 0.937123 0.380703 -0.210692
C13   C     C_R   0.548326 0.066494 0.381643 -0.224550
C14   C     C_1   0.730433 0.636959 0.166173 0.202856
C15   C     C_R   0.536381 0.871003 0.501972 -0.102932
C16   C     C_R   0.555666 0.933611 0.625726 0.130912
C17   C     C_3   0.465500 0.921602 0.743464 -0.462056
C18   C     C_3   0.463452 0.062984 0.744431 -0.506502
C19   C     C_R   0.371703 0.458060 0.055732 0.203690
C20   C     C_R   0.614308 0.561515 0.084489 0.006011
C21   C     C_R   0.615919 0.558775 0.940884 -0.180722
H1    H     H_    0.975332 0.486087 0.341736 0.184007
H2    H     H_    0.346739 0.878968 0.715001 0.209947
H3    H     H_    0.537205 0.879862 0.835386 0.203614
H4    H     H_    0.343202 0.101533 0.715659 0.206273
H5    H     H_    0.534321 0.102043 0.837523 0.203042
H6    H     H_    0.709802 0.604919 0.896645 0.153324
H7    H     H_    0.174212 0.336869 0.841875 0.202108
H8    H     H_    0.373592 0.264080 0.866627 0.215714
H9    H     H_    0.177207 0.335222 0.085069 0.203666
H10   H     H_    0.376105 0.260164 0.108767 0.210865
H11   H     H_    0.025034 0.506244 0.659026 0.174457
H12   H     H_    0.546344 0.116556 0.285441 0.168561
H13   H     H_    0.547271 0.890120 0.284122 0.176990
N1    N     N_R   0.498950 0.499140 0.142680 -0.131131
N2    N     N_R   0.498950 0.499180 0.857030 -0.110875
N3    N     N_1   0.823508 0.699147 0.230579 -0.223576
O1    O     O_R   0.500020 0.316790 0.614690 -0.616999
O2    O     O_R   0.500000 0.316760 0.385350 -0.629693
O3    O     O_R   0.271760 0.500010 0.587850 -0.613950
O4    O     O_R   0.271740 0.499970 0.358500 -0.621329
O5    O     O_R   0.500000 0.683240 0.614650 -0.621980
O6    O     O_R   0.499980 0.683210 0.385310 -0.620467
O7    O     O_R   0.728260 0.500030 0.641500 -0.632039
O8    O     O_R   0.728240 0.499990 0.412150 -0.608884
Zn1   Zn    Zn3+2 0.500010 0.500020 0.653130 0.939490
Zn2   Zn    Zn3+2 0.499990 0.499980 0.346870 0.951491

loop_
_geom_bond_atom_site_label_1
_geom_bond_atom_site_label_2
_ccdc_geom_bond_type
C8    H1    S    
C13   H12   S    
C5    C19   S    
C18   H5    S    
C12   C15   A    
C4    C8    S    
N1    Zn2   S    
C2    C3    S    
C21   H6    S    
C10   C11   A    
C21   N2    A    
C10   C16   A    
C7    O7    A    
C20   C21   A    
C14   N3    T    
N2    Zn1   S    
C11   C13   A    
C17   H2    S    
C18   H4    S    
O6    Zn2   S    
C1    O1    A    
C10   C18   S    
C7    O8    A    
C3    H7    S    
O7    Zn1   S    
C17   C18   S    
C7    C9    S    
C6    O6    A    
O8    Zn2   S    
O4    Zn2   S    
O1    Zn1   S    
C17   H3    S    
C4    O4    A    
O3    Zn1   S    
C12   H13   S    
C15   C16   A    
C14   C20   S    
C12   C13   A    
O2    Zn2   S    
C5    H9    S    
O5    Zn1   S    
C2    N2    A    
C3    H8    S    
C1    O2    A    
C8    C9    D    
C19   N1    A    
C9    H11   S    
C5    H10   S    
C6    C15   S    
C2    C19   A    
C20   N1    A    
C6    O5    A    
C4    O3    A    
C16   C17   S    
C3    C5    S    
C1    C11   S    
