data_mof_unit_47275.cif
_audit_creation_date              2012-12-11T15:06:51-0500
_audit_creation_method            fapswitch 2.2
_symmetry_space_group_name_H-M    P1
_symmetry_Int_Tables_number       1
_space_group_crystal_system       triclinic
_cell_length_a                    19.807994
_cell_length_b                    11.457022
_cell_length_c                    18.711763
_cell_angle_alpha                 90.000049
_cell_angle_beta                  89.647968
_cell_angle_gamma                 90.0
_cell_volume                      4246.37900124

loop_
_atom_site_label
_atom_site_type_symbol
_atom_type_description
_atom_site_fract_x
_atom_site_fract_y
_atom_site_fract_z
_atom_type_partial_charge
C1    C     C_R   0.762117 0.521829 0.638936 0.534825
C2    C     C_R   0.237883 0.521829 0.361064 0.534825
C3    C     C_R   0.262117 0.021829 0.638936 0.534825
C4    C     C_R   0.737883 0.021829 0.361064 0.534825
C5    C     C_3   0.816666 0.122304 0.440832 -0.248842
C6    C     C_3   0.183334 0.122304 0.559168 -0.248842
C7    C     C_3   0.316666 0.622304 0.440832 -0.248842
C8    C     C_3   0.683334 0.622304 0.559168 -0.248842
C9    C     C_3   0.747971 0.062809 0.435064 0.038705
C10   C     C_3   0.252029 0.062809 0.564936 0.038705
C11   C     C_3   0.247971 0.562809 0.435064 0.038705
C12   C     C_3   0.752029 0.562809 0.564936 0.038705
C13   C     C_3   0.771486 0.116525 0.568461 0.057297
C14   C     C_3   0.228514 0.116525 0.431539 0.057298
C15   C     C_3   0.271486 0.616525 0.568461 0.057298
C16   C     C_3   0.728514 0.616525 0.431539 0.057298
C17   C     C_3   0.779091 0.983110 0.558927 -0.073522
C18   C     C_3   0.220909 0.983110 0.441073 -0.073522
C19   C     C_3   0.279091 0.483110 0.558927 -0.073522
C20   C     C_3   0.720909 0.483110 0.441073 -0.073522
C21   C     C_3   0.822283 0.171437 0.516410 -0.291599
C22   C     C_3   0.177717 0.171437 0.483590 -0.291599
C23   C     C_3   0.322284 0.671437 0.516410 -0.291599
C24   C     C_3   0.677717 0.671437 0.483590 -0.291599
C25   C     C_3   0.998228 0.207866 0.458735 -0.263437
C26   C     C_3   0.001773 0.207866 0.541265 -0.263437
C27   C     C_3   0.498227 0.707866 0.458735 -0.263437
C28   C     C_3   0.501773 0.707866 0.541265 -0.263437
C29   C     C_3   0.065833 0.400193 0.471421 -0.173273
C30   C     C_3   0.934167 0.400194 0.528579 -0.173274
C31   C     C_3   0.565833 0.900194 0.471421 -0.173274
C32   C     C_3   0.434167 0.900194 0.528579 -0.173274
C33   C     C_3   0.942949 0.399980 0.446495 -0.108015
C34   C     C_3   0.057051 0.399980 0.553505 -0.108014
C35   C     C_3   0.442949 0.899980 0.446495 -0.108014
C36   C     C_3   0.557051 0.899980 0.553505 -0.108014
C37   C     C_3   0.008719 0.335060 0.430241 0.032596
C38   C     C_3   0.991281 0.335060 0.569759 0.032596
C39   C     C_3   0.508719 0.835060 0.430241 0.032596
C40   C     C_3   0.491281 0.835060 0.569759 0.032596
C41   C     C_3   0.818448 0.034215 0.047496 -0.251926
C42   C     C_3   0.181552 0.034215 0.952504 -0.251926
C43   C     C_3   0.318448 0.534215 0.047496 -0.251926
C44   C     C_3   0.681552 0.534215 0.952504 -0.251926
C45   C     C_R   0.787570 0.153810 0.641808 0.565167
C46   C     C_R   0.212430 0.153810 0.358192 0.565167
C47   C     C_R   0.287570 0.653810 0.641808 0.565167
C48   C     C_R   0.712430 0.653810 0.358192 0.565167
C49   C     C_3   0.818393 0.030954 0.967085 -0.238746
C50   C     C_3   0.181607 0.030954 0.032915 -0.238746
C51   C     C_3   0.318393 0.530954 0.967085 -0.238747
C52   C     C_3   0.681607 0.530954 0.032915 -0.238747
C53   C     C_3   0.692468 0.009100 0.030997 -0.204157
C54   C     C_3   0.307531 0.009100 0.969003 -0.204156
C55   C     C_3   0.192469 0.509100 0.030997 -0.204157
C56   C     C_3   0.807531 0.509100 0.969003 -0.204157
C57   C     C_3   0.737662 0.201567 0.061813 -0.086040
C58   C     C_3   0.262338 0.201567 0.938187 -0.086040
C59   C     C_3   0.237662 0.701567 0.061813 -0.086040
C60   C     C_3   0.762338 0.701567 0.938187 -0.086040
C61   C     C_3   0.747134 0.071213 0.075710 0.044796
C62   C     C_3   0.252866 0.071213 0.924290 0.044795
C63   C     C_3   0.247134 0.571213 0.075710 0.044795
C64   C     C_3   0.752866 0.571213 0.924290 0.044796
C65   C     C_3   0.759619 0.106122 0.936537 0.025836
C66   C     C_3   0.240381 0.106122 0.063463 0.025835
C67   C     C_3   0.259619 0.606122 0.936537 0.025836
C68   C     C_3   0.740381 0.606122 0.063463 0.025836
C69   C     C_3   0.694544 0.039015 0.950099 -0.242149
C70   C     C_3   0.305456 0.039014 0.049900 -0.242150
C71   C     C_3   0.194544 0.539014 0.950099 -0.242149
C72   C     C_3   0.805456 0.539014 0.049900 -0.242150
C73   C     C_3   0.753509 0.220074 0.980814 -0.189821
C74   C     C_3   0.246491 0.220073 0.019186 -0.189821
C75   C     C_3   0.253509 0.720074 0.980814 -0.189820
C76   C     C_3   0.746491 0.720073 0.019186 -0.189821
C77   C     C_3   0.999781 0.479748 0.040661 -0.222708
C78   C     C_3   0.000219 0.479748 0.959339 -0.222708
C79   C     C_3   0.499781 0.979748 0.040661 -0.222708
C80   C     C_3   0.500219 0.979748 0.959339 -0.222708
C81   C     C_3   0.067127 0.292009 0.025355 -0.227503
C82   C     C_3   0.932873 0.292009 0.974645 -0.227502
C83   C     C_3   0.567127 0.792009 0.025355 -0.227503
C84   C     C_3   0.432873 0.792009 0.974645 -0.227503
C85   C     C_3   0.946855 0.284490 0.055603 -0.255149
C86   C     C_3   0.053145 0.284490 0.944397 -0.255149
C87   C     C_3   0.446855 0.784490 0.055603 -0.255149
C88   C     C_3   0.553145 0.784490 0.944397 -0.255149
C89   C     C_R   0.970412 0.342200 0.646139 0.520300
C90   C     C_R   0.029588 0.342200 0.353861 0.520300
C91   C     C_R   0.470411 0.842200 0.646139 0.520300
C92   C     C_R   0.529588 0.842200 0.353861 0.520300
C93   C     C_3   0.010962 0.353029 0.069386 0.048514
C94   C     C_3   0.989038 0.353030 0.930614 0.048514
C95   C     C_3   0.510962 0.853030 0.069386 0.048514
C96   C     C_3   0.489038 0.853030 0.930614 0.048514
C97   C     C_R   0.760494 0.533672 0.848284 0.518853
C98   C     C_R   0.239506 0.533672 0.151716 0.518854
C99   C     C_R   0.260494 0.033672 0.848284 0.518853
C100  C     C_R   0.739506 0.033672 0.151716 0.518854
C101  C     C_R   0.774404 0.133988 0.859175 0.542118
C102  C     C_R   0.225596 0.133987 0.140825 0.542118
C103  C     C_R   0.274404 0.633988 0.859175 0.542118
C104  C     C_R   0.725596 0.633988 0.140825 0.542118
C105  C     C_R   0.967667 0.353697 0.854057 0.535633
C106  C     C_R   0.032333 0.353696 0.145943 0.535633
C107  C     C_R   0.467666 0.853696 0.854057 0.535633
C108  C     C_R   0.532333 0.853696 0.145943 0.535633
C109  C     C_3   0.692733 0.148025 0.463194 -0.248483
C110  C     C_3   0.307267 0.148024 0.536806 -0.248482
C111  C     C_3   0.192733 0.648025 0.463194 -0.248482
C112  C     C_3   0.807267 0.648024 0.536806 -0.248482
C113  C     C_3   0.699124 0.154683 0.544902 -0.220375
C114  C     C_3   0.300876 0.154682 0.455098 -0.220375
C115  C     C_3   0.199124 0.654682 0.544902 -0.220375
C116  C     C_3   0.800876 0.654682 0.455098 -0.220375
C117  C     C_3   0.748106 0.955394 0.486040 -0.246087
C118  C     C_3   0.251894 0.955394 0.513960 -0.246087
C119  C     C_3   0.248106 0.455394 0.486040 -0.246087
C120  C     C_3   0.751894 0.455394 0.513960 -0.246087
Cr1   Cr    Cr6+3 0.885690 0.492860 0.745310 1.012139
Cr2   Cr    Cr6+3 0.114310 0.492860 0.254690 1.012138
Cr3   Cr    Cr6+3 0.385690 0.992860 0.745310 1.012139
Cr4   Cr    Cr6+3 0.614310 0.992860 0.254690 1.012139
Cr5   Cr    Cr6+3 0.729880 0.332270 0.748190 1.022106
Cr6   Cr    Cr6+3 0.270120 0.332270 0.251810 1.022107
Cr7   Cr    Cr6+3 0.229880 0.832270 0.748190 1.022106
Cr8   Cr    Cr6+3 0.770120 0.832270 0.251810 1.022106
Cr9   Cr    Cr6+3 0.888120 0.178590 0.753010 1.005298
Cr10  Cr    Cr6+3 0.111880 0.178590 0.246990 1.005299
Cr11  Cr    Cr6+3 0.388120 0.678590 0.753010 1.005298
Cr12  Cr    Cr6+3 0.611880 0.678590 0.246990 1.005299
H1    H     H_    0.641303 0.122242 0.448451 0.169035
H2    H     H_    0.358697 0.122242 0.551549 0.169035
H3    H     H_    0.141303 0.622242 0.448451 0.169034
H4    H     H_    0.858697 0.622241 0.551549 0.169034
H5    H     H_    0.872881 0.160820 0.536237 0.121906
H6    H     H_    0.127119 0.160819 0.463763 0.121906
H7    H     H_    0.372881 0.660820 0.536237 0.121906
H8    H     H_    0.627119 0.660820 0.463763 0.121906
H9    H     H_    0.774715 0.883200 0.461882 0.116027
H10   H     H_    0.225285 0.883200 0.538118 0.116027
H11   H     H_    0.274715 0.383200 0.461882 0.116027
H12   H     H_    0.725284 0.383200 0.538118 0.116027
H13   H     H_    0.833792 0.960149 0.555977 0.105631
H14   H     H_    0.166208 0.960149 0.444023 0.105631
H15   H     H_    0.333792 0.460149 0.555977 0.105632
H16   H     H_    0.666208 0.460149 0.444023 0.105632
H17   H     H_    0.030745 0.140791 0.434312 0.142716
H18   H     H_    0.969255 0.140791 0.565688 0.142716
H19   H     H_    0.530745 0.640791 0.434312 0.142716
H20   H     H_    0.469255 0.640791 0.565688 0.142716
H21   H     H_    0.948164 0.176571 0.442199 0.112591
H22   H     H_    0.051836 0.176571 0.557801 0.112591
H23   H     H_    0.448164 0.676571 0.442199 0.112591
H24   H     H_    0.551836 0.676571 0.557801 0.112590
H25   H     H_    0.612455 0.860750 0.453518 0.060251
H26   H     H_    0.387545 0.860750 0.546481 0.060251
H27   H     H_    0.112455 0.360750 0.453518 0.060250
H28   H     H_    0.887545 0.360750 0.546481 0.060251
H29   H     H_    0.599583 0.850511 0.576596 0.130792
H30   H     H_    0.400417 0.850511 0.423404 0.130792
H31   H     H_    0.099583 0.350511 0.576596 0.130792
H32   H     H_    0.900417 0.350511 0.423404 0.130793
H33   H     H_    0.931016 0.490919 0.546903 0.216201
H34   H     H_    0.068984 0.490919 0.453097 0.216201
H35   H     H_    0.431016 0.990919 0.546903 0.216201
H36   H     H_    0.568984 0.990919 0.453097 0.216201
H37   H     H_    0.835845 0.946898 0.065013 0.177191
H38   H     H_    0.164155 0.946898 0.934987 0.177192
H39   H     H_    0.335845 0.446898 0.065012 0.177191
H40   H     H_    0.664155 0.446898 0.934987 0.177191
H41   H     H_    0.699881 0.235368 0.440889 0.110343
H42   H     H_    0.300119 0.235367 0.559111 0.110343
H43   H     H_    0.199881 0.735367 0.440889 0.110343
H44   H     H_    0.800119 0.735367 0.559111 0.110344
H45   H     H_    0.856519 0.097028 0.066980 0.115988
H46   H     H_    0.143481 0.097028 0.933020 0.115987
H47   H     H_    0.356519 0.597028 0.066980 0.115988
H48   H     H_    0.643481 0.597028 0.933020 0.115987
H49   H     H_    0.869657 0.051970 0.948347 0.154543
H50   H     H_    0.130343 0.051970 0.051653 0.154544
H51   H     H_    0.369657 0.551971 0.948347 0.154543
H52   H     H_    0.630343 0.551970 0.051653 0.154543
H53   H     H_    0.809886 0.941469 0.949384 0.161574
H54   H     H_    0.190114 0.941469 0.050616 0.161576
H55   H     H_    0.309887 0.441470 0.949383 0.161575
H56   H     H_    0.690114 0.441469 0.050616 0.161575
H57   H     H_    0.704393 0.919887 0.038280 0.087435
H58   H     H_    0.295607 0.919887 0.961720 0.087435
H59   H     H_    0.204393 0.419887 0.038280 0.087436
H60   H     H_    0.795607 0.419887 0.961720 0.087435
H61   H     H_    0.692646 0.958188 0.917365 0.094244
H62   H     H_    0.307354 0.958188 0.082634 0.094244
H63   H     H_    0.192647 0.458188 0.917366 0.094244
H64   H     H_    0.807354 0.458188 0.082634 0.094244
H65   H     H_    0.774714 0.251716 0.094113 0.059726
H66   H     H_    0.225286 0.251716 0.905887 0.059726
H67   H     H_    0.274713 0.751717 0.094113 0.059727
H68   H     H_    0.725286 0.751717 0.905887 0.059726
H69   H     H_    0.804524 0.251164 0.979765 0.080959
H70   H     H_    0.195476 0.251164 0.020235 0.080959
H71   H     H_    0.304524 0.751164 0.979765 0.080959
H72   H     H_    0.695476 0.751164 0.020235 0.080959
H73   H     H_    0.718075 0.281797 0.955529 0.163722
H74   H     H_    0.281925 0.281797 0.044471 0.163722
H75   H     H_    0.218075 0.781797 0.955529 0.163723
H76   H     H_    0.781925 0.781797 0.044471 0.163722
H77   H     H_    0.641964 0.025413 0.052987 0.162897
H78   H     H_    0.358036 0.025413 0.947013 0.162897
H79   H     H_    0.141964 0.525413 0.052987 0.162896
H80   H     H_    0.858036 0.525414 0.947013 0.162897
H81   H     H_    0.678542 0.236262 0.566773 0.146756
H82   H     H_    0.321458 0.236262 0.433227 0.146756
H83   H     H_    0.178542 0.736262 0.566773 0.146756
H84   H     H_    0.821458 0.736262 0.433227 0.146756
H85   H     H_    0.650889 0.094545 0.935355 0.169380
H86   H     H_    0.349111 0.094544 0.064645 0.169380
H87   H     H_    0.150889 0.594544 0.935355 0.169379
H88   H     H_    0.849111 0.594544 0.064645 0.169380
H89   H     H_    0.037012 0.544578 0.059004 0.179335
H90   H     H_    0.962988 0.544579 0.940996 0.179336
H91   H     H_    0.537012 0.044579 0.059004 0.179336
H92   H     H_    0.462988 0.044579 0.940996 0.179336
H93   H     H_    0.950673 0.512648 0.060724 0.130955
H94   H     H_    0.049327 0.512648 0.939276 0.130955
H95   H     H_    0.450673 0.012648 0.060725 0.130955
H96   H     H_    0.549327 0.012648 0.939276 0.130955
H97   H     H_    0.610666 0.844795 0.033498 0.100940
H98   H     H_    0.389334 0.844794 0.966502 0.100940
H99   H     H_    0.110666 0.344794 0.033498 0.100940
H100  H     H_    0.889334 0.344795 0.966502 0.100940
H101  H     H_    0.596277 0.820242 0.913010 0.106175
H102  H     H_    0.403723 0.820241 0.086990 0.106176
H103  H     H_    0.096277 0.320241 0.913010 0.106175
H104  H     H_    0.903723 0.320242 0.086990 0.106175
H105  H     H_    0.954464 0.192106 0.071810 0.130270
H106  H     H_    0.045536 0.192105 0.928190 0.130270
H107  H     H_    0.454464 0.692106 0.071810 0.130270
H108  H     H_    0.545536 0.692106 0.928190 0.130269
H109  H     H_    0.924396 0.204008 0.953682 0.137776
H110  H     H_    0.075604 0.204008 0.046317 0.137776
H111  H     H_    0.424397 0.704008 0.953683 0.137776
H112  H     H_    0.575604 0.704008 0.046317 0.137776
H113  H     H_    0.666286 0.091023 0.568487 0.196406
H114  H     H_    0.333714 0.091023 0.431513 0.196406
H115  H     H_    0.166286 0.591023 0.568487 0.196406
H116  H     H_    0.833714 0.591023 0.431513 0.196406
H117  H     H_    0.695626 0.935295 0.496900 0.121976
H118  H     H_    0.304374 0.935295 0.503100 0.121976
H119  H     H_    0.195626 0.435295 0.496900 0.121976
H120  H     H_    0.804374 0.435294 0.503100 0.121976
H121  H     H_    0.857598 0.057426 0.431395 0.145959
H122  H     H_    0.142402 0.057426 0.568605 0.145959
H123  H     H_    0.357598 0.557426 0.431395 0.145959
H124  H     H_    0.642402 0.557426 0.568605 0.145959
H125  H     H_    0.822080 0.192870 0.400398 0.145495
H126  H     H_    0.177920 0.192871 0.599602 0.145495
H127  H     H_    0.322080 0.692870 0.400398 0.145495
H128  H     H_    0.677920 0.692871 0.599602 0.145495
H129  H     H_    0.809653 0.261275 0.512235 0.113663
H130  H     H_    0.190347 0.261275 0.487765 0.113663
H131  H     H_    0.309653 0.761275 0.512235 0.113663
H132  H     H_    0.690347 0.761275 0.487765 0.113663
O1    O     O_R   0.957210 0.449410 0.665480 -0.524562
O2    O     O_R   0.042790 0.449410 0.334520 -0.524561
O3    O     O_R   0.457210 0.949410 0.665480 -0.524562
O4    O     O_R   0.542790 0.949410 0.334520 -0.524561
O5    O     O_R   0.736260 0.212010 0.826560 -0.499142
O6    O     O_R   0.263740 0.212010 0.173440 -0.499142
O7    O     O_R   0.236260 0.712010 0.826560 -0.499142
O8    O     O_R   0.763740 0.712010 0.173440 -0.499142
O9    O     O_R   0.832520 0.095300 0.836000 -0.527730
O10   O     O_R   0.167480 0.095300 0.164000 -0.527729
O11   O     O_R   0.332520 0.595300 0.836000 -0.527730
O12   O     O_R   0.667480 0.595300 0.164000 -0.527730
O13   O     O_R   0.946380 0.253940 0.826940 -0.511184
O14   O     O_R   0.053620 0.253940 0.173060 -0.511184
O15   O     O_R   0.446380 0.753940 0.826940 -0.511184
O16   O     O_R   0.553620 0.753940 0.173060 -0.511183
O17   O     O_3   0.834560 0.334570 0.748840 -0.302347
O18   O     O_3   0.165440 0.334570 0.251160 -0.302347
O19   O     O_3   0.334560 0.834570 0.748840 -0.302347
O20   O     O_3   0.665440 0.834570 0.251160 -0.302347
O21   O     O_R   0.820730 0.541240 0.668250 -0.517549
O22   O     O_R   0.179270 0.541240 0.331750 -0.517549
O23   O     O_R   0.320730 0.041240 0.668250 -0.517549
O24   O     O_R   0.679270 0.041240 0.331750 -0.517549
O25   O     O_R   0.714240 0.455060 0.663710 -0.530588
O26   O     O_R   0.285760 0.455060 0.336290 -0.530588
O27   O     O_R   0.214240 0.955060 0.663710 -0.530588
O28   O     O_R   0.785760 0.955060 0.336290 -0.530588
O29   O     O_R   0.736780 0.204870 0.675910 -0.494921
O30   O     O_R   0.263220 0.204870 0.324090 -0.494921
O31   O     O_R   0.236780 0.704870 0.675910 -0.494921
O32   O     O_R   0.763220 0.704870 0.324090 -0.494921
O33   O     O_R   0.833070 0.087590 0.673490 -0.524896
O34   O     O_R   0.166930 0.087590 0.326510 -0.524896
O35   O     O_R   0.333070 0.587590 0.673490 -0.524896
O36   O     O_R   0.666930 0.587590 0.326510 -0.524896
O37   O     O_R   0.946890 0.246800 0.676300 -0.519541
O38   O     O_R   0.053110 0.246800 0.323700 -0.519541
O39   O     O_R   0.446890 0.746800 0.676300 -0.519541
O40   O     O_R   0.553110 0.746800 0.323700 -0.519541
O41   O     O_R   0.956650 0.457120 0.827980 -0.525029
O42   O     O_R   0.043350 0.457120 0.172020 -0.525030
O43   O     O_R   0.456650 0.957120 0.827980 -0.525029
O44   O     O_R   0.543350 0.957120 0.172020 -0.525029
O45   O     O_R   0.820220 0.548390 0.818890 -0.516612
O46   O     O_R   0.179780 0.548390 0.181110 -0.516613
O47   O     O_R   0.320220 0.048390 0.818890 -0.516612
O48   O     O_R   0.679780 0.048390 0.181110 -0.516612
O49   O     O_R   0.713680 0.462770 0.826210 -0.528682
O50   O     O_R   0.286320 0.462770 0.173790 -0.528681
O51   O     O_R   0.213680 0.962770 0.826210 -0.528682
O52   O     O_R   0.786320 0.962770 0.173790 -0.528682
C121  C     C_2   0.941647 0.520468 0.412572 0.227323
H133  H     H_    0.924598 0.528907 0.357773 0.171922
O53   O     O_2   0.960697 0.607998 0.443630 -0.493107
C122  C     C_2   0.058353 0.520468 0.587428 0.227323
H134  H     H_    0.075402 0.528907 0.642227 0.171922
O54   O     O_2   0.039303 0.607998 0.556370 -0.493108
C123  C     C_2   0.441647 0.020468 0.412573 0.227323
H135  H     H_    0.424598 0.028907 0.357773 0.171922
O55   O     O_2   0.460697 0.107998 0.443630 -0.493107
C124  C     C_2   0.558353 0.020468 0.587428 0.227323
H136  H     H_    0.575402 0.028907 0.642227 0.171922
O56   O     O_2   0.539303 0.107998 0.556370 -0.493107
C125  C     C_2   0.667805 0.242753 0.084567 0.190996
H137  H     H_    0.658666 0.265517 0.140076 0.134716
O57   O     O_2   0.621464 0.250518 0.042010 -0.544462
C126  C     C_2   0.332195 0.242753 0.915433 0.190996
H138  H     H_    0.341334 0.265517 0.859924 0.134717
O58   O     O_2   0.378535 0.250518 0.957990 -0.544462
C127  C     C_2   0.167804 0.742753 0.084567 0.190995
H139  H     H_    0.158665 0.765515 0.140076 0.134718
O59   O     O_2   0.121464 0.750520 0.042009 -0.544462
C128  C     C_2   0.832195 0.742753 0.915433 0.190996
H140  H     H_    0.841334 0.765517 0.859924 0.134717
O60   O     O_2   0.878536 0.750518 0.957990 -0.544462
C129  C     C_2   0.750588 0.912067 0.620957 0.206121
H141  H     H_    0.783444 0.853015 0.649784 0.124753
O61   O     O_2   0.693185 0.925408 0.642993 -0.576691
C130  C     C_2   0.249412 0.912067 0.379043 0.206120
H142  H     H_    0.216557 0.853014 0.350216 0.124752
O62   O     O_2   0.306815 0.925408 0.357006 -0.576690
C131  C     C_2   0.250588 0.412067 0.620957 0.206121
H143  H     H_    0.283444 0.353015 0.649784 0.124752
O63   O     O_2   0.193185 0.425408 0.642993 -0.576691
C132  C     C_2   0.749412 0.412067 0.379043 0.206121
H144  H     H_    0.716556 0.353015 0.350215 0.124752
O64   O     O_2   0.806815 0.425408 0.357007 -0.576691

loop_
_geom_bond_atom_site_label_1
_geom_bond_atom_site_label_2
_ccdc_geom_bond_type
C78   H94   S    
C82   C94   S    
C119  H11   S    
C7    H127  S    
C120  H12   S    
C41   C61   S    
C116  H84   S    
C53   C69   S    
C56   H60   S    
C120  H120  S    
C43   C63   S    
C24   H8    S    
C70   H86   S    
C63   C98   S    
C51   H51   S    
C109  H41   S    
C28   C40   S    
Cr12  O12   S    
C30   C38   S    
C42   H38   S    
C75   H75   S    
C56   C72   S    
C98   O46   A    
Cr1   O41   S    
C124  H136  S    
C106  O14   A    
C21   H5    S    
C84   H98   S    
C18   C118  S    
C81   C86   S    
C110  H42   S    
C83   C88   S    
C92   O40   A    
C91   O3    A    
C41   C49   S    
C19   C131  S    
C109  H1    S    
C123  H135  S    
C52   H52   S    
C118  H118  S    
Cr1   O1    S    
C127  O59   D    
C35   C123  S    
C26   C38   S    
C14   C114  S    
C41   H37   S    
C83   H112  S    
Cr4   O4    S    
C44   C64   S    
C55   H59   S    
C81   H110  S    
C15   C19   S    
C44   H40   S    
C47   O35   A    
C54   C70   S    
C23   H131  S    
C68   C72   S    
Cr9   O37   S    
C69   H61   S    
C115  H83   S    
C98   O50   A    
C102  O10   A    
C31   H25   S    
C64   C97   S    
C17   H13   S    
C15   C115  S    
Cr6   O50   S    
Cr7   O31   S    
Cr8   O32   S    
C75   H71   S    
C57   H65   S    
C60   C128  S    
Cr6   O6    S    
C46   O34   A    
C72   H64   S    
C57   C61   S    
C82   C85   S    
C59   C63   S    
C60   C64   S    
C13   C45   S    
C66   C70   S    
C78   C94   S    
C113  H113  S    
Cr9   O33   S    
C86   H106  S    
C4    O28   A    
C132  H144  S    
C95   C108  S    
C60   H68   S    
C62   C99   S    
C92   O4    A    
C5    C21   S    
C108  O44   A    
C81   H99   S    
C31   C36   S    
C48   O36   A    
C55   C71   S    
C76   H76   S    
C103  O7    A    
Cr6   O30   S    
C88   H108  S    
Cr7   O51   S    
Cr2   O2    S    
C114  H82   S    
C65   C101  S    
C43   C51   S    
Cr11  O19   S    
C67   C103  S    
C88   H101  S    
C37   C90   S    
Cr10  O34   S    
C41   H45   S    
C42   H46   S    
C100  O48   A    
C66   C74   S    
C25   H17   S    
C57   C73   S    
C85   C93   S    
C106  O42   A    
C36   C124  S    
C87   C95   S    
C56   C64   S    
C10   C110  S    
C47   O31   A    
C42   C62   S    
C85   H105  S    
C48   O32   A    
C89   O37   A    
C44   C52   S    
C91   O39   A    
Cr7   O7    S    
Cr8   O8    S    
C50   H50   S    
C1    C12   S    
Cr1   O17   S    
C112  H4    S    
C2    C11   S    
C129  O61   D    
Cr12  O16   S    
C87   H107  S    
C126  H138  S    
C118  H10   S    
C43   H39   S    
C15   C47   S    
C1    O25   A    
C25   C26   S    
C101  O5    A    
C127  H139  S    
C123  O55   D    
C122  O54   D    
C8    H128  S    
C5    C9    S    
C119  H119  S    
C93   C106  S    
C71   H63   S    
C104  O12   A    
C8    C12   S    
C5    H125  S    
C51   C67   S    
C42   C50   S    
C17   C129  S    
C112  H44   S    
C78   H90   S    
C128  O60   D    
C49   H49   S    
C110  H2    S    
C61   C100  S    
C67   C75   S    
Cr8   O20   S    
C50   H54   S    
C112  C116  S    
C58   C74   S    
C21   H129  S    
C82   H100  S    
C54   H58   S    
Cr4   O20   S    
C30   H33   S    
Cr5   O17   S    
C79   H91   S    
C68   C76   S    
C13   C17   S    
C14   C22   S    
C99   O51   A    
C103  O11   A    
C7    C23   S    
C8    C24   S    
C89   O1    A    
C40   C91   S    
Cr5   O25   S    
Cr4   O44   S    
C54   H78   S    
C49   H53   S    
C130  H142  S    
Cr1   O45   S    
Cr2   O42   S    
C72   H88   S    
Cr3   O47   S    
C46   O30   A    
C4    C9    S    
C53   H57   S    
C58   C62   S    
C88   C96   S    
C94   C105  S    
C77   H93   S    
Cr9   O9    S    
C12   C112  S    
C44   H48   S    
C1    O21   A    
C14   C46   S    
C77   C78   S    
C3    O23   A    
C43   H47   S    
C69   H85   S    
C55   C63   S    
C6    C22   S    
C9    C117  S    
C121  O53   D    
C14   C18   S    
C73   H73   S    
Cr6   O26   S    
C99   O47   A    
C116  H116  S    
C20   C120  S    
C113  H81   S    
Cr10  O10   S    
Cr12  O36   S    
Cr11  O15   S    
C17   C117  S    
C19   C119  S    
Cr10  O38   S    
C9    C109  S    
Cr11  O35   S    
C16   C116  S    
C100  O52   A    
C115  H115  S    
C27   H23   S    
C117  H9    S    
C25   H21   S    
C26   H18   S    
C33   C121  S    
C131  H143  S    
C117  H117  S    
C54   C62   S    
C107  O43   A    
C11   C111  S    
C29   C34   S    
C19   H15   S    
C82   H109  S    
C45   O33   A    
C30   H28   S    
C104  O8    A    
C79   C95   S    
C80   H92   S    
C90   O38   A    
Cr5   O29   S    
C70   H62   S    
C107  O15   A    
C58   C126  S    
Cr1   O21   S    
C80   H96   S    
C132  O64   D    
Cr2   O18   S    
Cr3   O23   S    
Cr4   O24   S    
Cr12  O20   S    
C96   C107  S    
C39   C92   S    
Cr11  O39   S    
C27   H19   S    
C102  O6    A    
C7    H123  S    
C68   C104  S    
C6    C10   S    
C22   H130  S    
C74   H70   S    
C22   H6    S    
C6    H126  S    
C2    O26   A    
C114  H114  S    
C73   H69   S    
C65   C69   S    
Cr6   O18   S    
C77   C93   S    
C60   C76   S    
Cr4   O48   S    
C84   H111  S    
C67   C71   S    
C111  H3    S    
C33   C37   S    
C51   H55   S    
Cr3   O3    S    
C31   H36   S    
C53   H77   S    
Cr12  O40   S    
C32   H35   S    
C29   C37   S    
C18   C130  S    
C29   H34   S    
C97   O45   A    
C85   H104  S    
C105  O13   A    
C125  H137  S    
C66   C102  S    
C35   C39   S    
C84   C87   S    
C3    O27   A    
C11   C119  S    
C16   C48   S    
C34   C122  S    
C29   H27   S    
C129  H141  S    
C7    C11   S    
C38   C89   S    
C4    O24   A    
C87   H102  S    
C49   C65   S    
C111  H43   S    
C23   H7    S    
C90   O2    A    
C126  O58   D    
C56   H80   S    
C5    H121  S    
Cr2   O46   S    
C65   C73   S    
C6    H122  S    
Cr3   O43   S    
C84   C96   S    
Cr7   O19   S    
C20   C132  S    
C86   C94   S    
C25   C37   S    
C12   C120  S    
C59   H67   S    
Cr9   O13   S    
C80   C96   S    
C52   C68   S    
C16   C20   S    
C2    O22   A    
C15   C23   S    
C16   C24   S    
C97   O49   A    
C101  O9    A    
C53   C61   S    
C79   H95   S    
C32   H26   S    
C35   H30   S    
C13   C21   S    
C32   C35   S    
C36   C40   S    
C33   H32   S    
Cr5   O49   S    
C34   H31   S    
C27   C39   S    
Cr7   O27   S    
Cr8   O52   S    
Cr5   O5    S    
Cr10  O14   S    
Cr11  O11   S    
C10   C118  S    
C131  O63   D    
C81   C93   S    
Cr8   O28   S    
C83   C95   S    
C24   H132  S    
C20   H16   S    
C125  O57   D    
Cr9   O17   S    
C50   C66   S    
C77   H89   S    
C130  O62   D    
C28   H20   S    
C26   H22   S    
C59   C75   S    
C74   H74   S    
C57   C125  S    
C110  C114  S    
C58   H66   S    
C30   C33   S    
C34   C38   S    
C45   O29   A    
C83   H97   S    
C18   H14   S    
C124  O56   D    
C76   H72   S    
C109  C113  S    
C52   H56   S    
C71   H87   S    
C86   H103  S    
C122  H134  S    
Cr2   O22   S    
Cr10  O18   S    
C3    C10   S    
Cr3   O19   S    
C36   H29   S    
C31   C39   S    
C32   C40   S    
C121  H133  S    
C55   H79   S    
C79   C80   S    
C128  H140  S    
C59   C127  S    
C27   C28   S    
C28   H24   S    
C111  C115  S    
C8    H124  S    
C108  O16   A    
C13   C113  S    
C105  O41   A    
