data_mof_unit_68249.cif
_audit_creation_date              2012-12-11T18:18:10-0500
_audit_creation_method            fapswitch 2.2
_symmetry_space_group_name_H-M    P1
_symmetry_Int_Tables_number       1
_space_group_crystal_system       triclinic
_cell_length_a                    8.57987
_cell_length_b                    14.570396
_cell_length_c                    15.148497
_cell_angle_alpha                 96.855744
_cell_angle_beta                  97.550124
_cell_angle_gamma                 91.795356
_cell_volume                      1861.77644361

loop_
_atom_site_label
_atom_site_type_symbol
_atom_type_description
_atom_site_fract_x
_atom_site_fract_y
_atom_site_fract_z
_atom_type_partial_charge
Ba1   Ba    Ba6+2 0.833410 0.543320 0.453520 2.080271
Ba2   Ba    Ba6+2 0.356410 0.456750 0.546480 2.035039
C1    C     C_3   0.477693 0.877440 0.205727 1.139360
C2    C     C_R   0.114236 0.469348 0.205775 -0.014441
C3    C     C_R   0.921117 0.496120 0.770335 -0.162259
C4    C     C_3   0.974940 0.776746 0.205719 1.005912
C5    C     C_R   0.834526 0.459841 0.830650 0.090748
C6    C     C_R   0.898197 0.462377 0.920955 0.071175
C7    C     C_R   0.056946 0.491797 0.952436 -0.028019
C8    C     C_R   0.141866 0.532048 0.889393 -0.096281
C9    C     C_R   0.130402 0.489486 0.045454 -0.028108
C10   C     C_R   0.288201 0.528822 0.072369 -0.209469
C11   C     C_R   0.368875 0.560039 0.004767 0.351619
C12   C     C_3   0.511865 0.784013 0.243453 0.544863
C13   C     C_R   0.290792 0.571462 0.921404 0.723114
C14   C     C_R   0.057361 0.447419 0.112504 0.291636
C15   C     C_R   0.256933 0.520644 0.230355 0.111534
C16   C     C_3   0.926328 0.831177 0.123499 0.901215
C17   C     C_R   0.073972 0.533579 0.796569 0.067426
C18   C     C_R   0.708856 0.947759 0.554683 0.499449
C19   C     C_R   0.513777 0.808227 0.514560 0.056763
C20   C     C_R   0.361773 0.776076 0.476953 -0.251747
C21   C     C_R   0.253524 0.834146 0.440576 0.023009
C22   C     C_R   0.292621 0.929065 0.445088 0.380885
C23   C     C_3   0.429033 0.302201 0.280611 0.872576
C24   C     C_R   0.448913 0.963443 0.474861 -0.030428
C25   C     C_R   0.560267 0.905056 0.515164 -0.030105
C26   C     C_R   0.643064 0.095676 0.502123 -0.096386
C27   C     C_R   0.753437 0.039351 0.543819 0.049968
C28   C     C_3   0.071101 0.748293 0.698799 0.825720
C29   C     C_R   0.683133 0.191456 0.503010 0.003231
C30   C     C_R   0.827189 0.229014 0.552888 0.143100
C31   C     C_R   0.942794 0.170988 0.585523 0.055683
C32   C     C_R   0.906396 0.076974 0.578754 -0.009668
C33   C     C_R   0.493235 0.056118 0.466545 0.078970
C34   C     C_3   0.366758 0.265994 0.182724 0.656339
C35   C     C_3   0.032990 0.802997 0.785566 0.691123
C36   C     C_3   0.936851 0.247129 0.322398 0.873606
C37   C     C_3   0.876977 0.153250 0.271847 1.231661
C38   C     C_3   0.581129 0.732023 0.732267 0.508329
C39   C     C_3   0.539269 0.827527 0.780327 0.908323
C40   C     C_3   0.165880 0.265113 0.806351 1.187348
C41   C     C_3   0.211250 0.241156 0.901481 0.367579
C42   C     C_3   0.618446 0.226780 0.762654 0.244598
C43   C     C_3   0.613835 0.134863 0.799972 1.204772
C44   C     C_R   0.353484 0.541638 0.166077 0.057613
Cl1   Cl    Cl    0.659145 0.807296 0.336952 -0.594199
Cl2   Cl    Cl    0.277735 0.152428 0.173238 -0.394344
Cl3   Cl    Cl    0.517718 0.265982 0.112462 -0.393695
Cl4   Cl    Cl    0.457874 0.866678 0.086610 -0.238640
Cl5   Cl    Cl    0.082235 0.863490 0.065834 -0.300503
Cl6   Cl    Cl    0.102863 0.140818 0.920575 -0.272435
Cl7   Cl    Cl    0.305165 0.569108 0.342838 -0.699359
Cl8   Cl    Cl    0.573471 0.573805 0.008306 -0.469564
Cl9   Cl    Cl    0.921859 0.351125 0.082649 -0.507045
Cl10  Cl    Cl    0.142234 0.005240 0.416521 -0.565036
Cl11  Cl    Cl    0.133290 0.707623 0.182690 -0.753369
Cl12  Cl    Cl    0.065011 0.742658 0.880242 -0.517476
Cl13  Cl    Cl    0.864982 0.348843 0.577254 -0.653180
Cl14  Cl    Cl    0.820976 0.905342 0.642560 -0.559690
Cl15  Cl    Cl    0.788738 0.765072 0.040472 -0.311215
Cl16  Cl    Cl    0.847088 0.938704 0.154516 -0.295727
Cl17  Cl    Cl    0.119371 0.917746 0.809848 -0.263271
Cl18  Cl    Cl    0.072477 0.228380 0.413843 -0.671964
Cl19  Cl    Cl    0.662005 0.661748 0.813507 -0.530072
Cl20  Cl    Cl    0.699543 0.900676 0.837698 -0.295019
Cl21  Cl    Cl    0.425975 0.812523 0.867111 -0.276244
Cl22  Cl    Cl    0.428127 0.891324 0.703637 -0.576497
Cl23  Cl    Cl    0.306921 0.925612 0.240658 -0.543244
F1    F     F_    0.814611 0.294017 0.351685 -0.678276
F2    F     F_    0.731915 0.134674 0.871449 -0.522776
F3    F     F_    0.363967 0.626096 0.873076 -0.589491
F4    F     F_    0.093410 0.806625 0.635606 -0.653676
F5    F     F_    0.779880 0.164551 0.194155 -0.528373
F6    F     F_    0.794550 0.104022 0.324771 -0.636875
F7    F     F_    0.593141 0.945109 0.239148 -0.549875
F8    F     F_    0.516946 0.384040 0.283193 -0.702115
F9    F     F_    0.248650 0.346258 0.799610 -0.752493
F10   F     F_    0.006069 0.278843 0.792984 -0.758243
F11   F     F_    0.636025 0.065448 0.733226 -0.679334
F12   F     F_    0.854937 0.716271 0.215430 -0.642487
H1    H     H_    0.907811 0.810085 0.776927 0.085230
H2    H     H_    0.516232 0.226408 0.709304 -0.023931
H3    H     H_    0.498144 0.122144 0.822757 0.014119
H4    H     H_    0.865782 0.498394 0.702440 0.076485
H5    H     H_    0.817823 0.443890 0.965023 0.166346
H6    H     H_    0.324552 0.705057 0.478920 0.094723
H7    H     H_    0.999009 0.033967 0.603241 0.178375
H8    H     H_    0.409378 0.097995 0.432655 0.161387
H9    H     H_    0.968595 0.700917 0.670588 -0.082522
H10   H     H_    0.978119 0.112928 0.253397 0.055908
H11   H     H_    0.474541 0.696314 0.693871 0.024857
H12   H     H_    0.407019 0.758052 0.269778 -0.076562
H13   H     H_    0.325000 0.316906 0.315498 -0.132974
H14   H     H_    0.275893 0.311963 0.156851 -0.142070
H15   H     H_    0.338912 0.228814 0.913062 0.041463
H16   H     H_    0.186995 0.299825 0.950849 0.026540
H17   H     H_    0.729408 0.233003 0.732899 0.046095
O1    O     O_2   0.841250 0.444240 0.280450 -0.320790
O2    O     O_2   0.268902 0.169499 0.579621 -0.447523
O3    O     O_3   0.205759 0.192831 0.743883 -0.633674
O4    O     O_3   0.112870 0.447390 0.393710 -0.409200
O5    O     O_3   0.560600 0.613720 0.540760 -0.471800
O6    O     O_2   0.387470 0.270310 0.467210 -0.461283
O7    O     O_3   0.521896 0.236163 0.320886 -0.535458
O8    O     O_2   0.507802 0.462791 0.824504 -0.355075
O9    O     O_3   0.610010 0.299178 0.831651 -0.587196
O10   O     O_3   0.597960 0.615760 0.327700 -0.376847
O11   O     O_2   0.689063 0.552541 0.178636 -0.323988
O12   O     O_3   0.698073 0.739850 0.677072 -0.659815
O13   O     O_3   0.013693 0.296262 0.266261 -0.654325
O14   O     O_3   0.562068 0.716571 0.178641 -0.505641
O15   O     O_2   0.802240 0.729720 0.532850 -0.379372
O16   O     O_3   0.017190 0.664840 0.371090 -0.406554
O17   O     O_2   0.945680 0.829899 0.446819 -0.341620
O18   O     O_3   0.011124 0.838893 0.285673 -0.534374
O19   O     O_2   0.348460 0.555790 0.719610 -0.373192
O20   O     O_3   0.076820 0.552690 0.606290 -0.489496
O21   O     O_3   0.591740 0.384320 0.672310 -0.483795
O22   O     O_3   0.209476 0.702466 0.715480 -0.629920
O23   O     O_3   0.629090 0.386360 0.459240 -0.321447
O24   O     O_3   0.172500 0.335240 0.628910 -0.355864
P1    P     P_3+3 0.018620 0.416870 0.295980 1.250969
P2    P     P_3+3 0.635650 0.716500 0.560900 1.083340
P3    P     P_3+3 0.059390 0.786035 0.384924 1.256163
P4    P     P_3+3 0.171070 0.583210 0.704020 1.097749
P5    P     P_3+3 0.145842 0.216546 0.633741 1.200181
P6    P     P_3+3 0.548543 0.604262 0.211724 1.304074
P7    P     P_3+3 0.556533 0.268880 0.437610 1.205904
P8    P     P_3+3 0.637704 0.404140 0.789163 1.144554

loop_
_geom_bond_atom_site_label_1
_geom_bond_atom_site_label_2
_ccdc_geom_bond_type
C36   F1    S    
C43   F2    S    
O2    P5    D    
C28   H9    S    
C42   H2    S    
Ba1   O1    S    
Ba2   O20   S    
C23   O7    S    
C5    C6    A    
C39   Cl21  S    
C38   Cl19  S    
C12   O14   S    
C13   F3    S    
C24   C25   A    
C23   F8    S    
C44   P6    S    
C26   C27   A    
C1    Cl23  S    
C22   C24   A    
C8    C13   A    
C36   C37   S    
O22   P4    S    
C41   Cl6   S    
Ba2   O23   S    
Ba2   O4    S    
C31   P5    S    
O21   P8    S    
Ba1   Ba2   S    
C37   F5    S    
O24   P5    S    
C5    P8    S    
O12   P2    S    
O16   P3    S    
C42   H17   S    
Ba2   O19   S    
C26   C33   A    
C6    C7    A    
C21   C22   A    
C37   F6    S    
C18   Cl14  S    
O19   P4    D    
Ba1   O5    S    
C12   H12   S    
C35   Cl12  S    
C21   P3    S    
C3    H4    S    
C19   C25   A    
C23   H13   S    
C4    F12   S    
C19   C20   A    
C4    Cl11  S    
Ba1   O15   S    
O9    P8    S    
O5    P2    S    
C37   H10   S    
C35   Cl17  S    
C1    Cl4   S    
C16   Cl5   S    
C31   C32   A    
C39   Cl22  S    
C36   Cl18  S    
C18   C27   A    
Ba2   O24   S    
C4    C16   S    
O13   P1    S    
C15   C44   A    
C10   C44   A    
C3    C5    A    
C28   F4    S    
C16   Cl16  S    
O7    P7    S    
Ba1   O10   S    
C27   C32   A    
C38   H11   S    
C28   C35   S    
C2    C14   A    
Ba1   P1    S    
Ba1   P2    S    
C9    C14   A    
O11   P6    D    
C29   C30   A    
Ba2   O6    S    
C8    C17   A    
C9    C10   A    
C41   H15   S    
C32   H7    S    
C20   H6    S    
O10   P6    S    
C1    F7    S    
C7    C9    A    
C4    O18   S    
C12   Cl1   S    
C1    C12   S    
C2    C15   A    
Ba2   P4    S    
C38   C39   S    
C33   H8    S    
C40   F9    S    
O6    P7    D    
C11   C13   A    
C35   H1    S    
C43   H3    S    
C40   C41   S    
O4    P1    S    
C40   O3    S    
C15   Cl7   S    
C42   C43   S    
O1    P1    D    
C11   Cl8   S    
C7    C8    A    
C42   O9    S    
O8    P8    D    
C26   C29   A    
C41   H16   S    
O23   P7    S    
C38   O12   S    
Ba2   O21   S    
C16   Cl15  S    
C39   Cl20  S    
C3    C17   A    
C18   C25   A    
C22   Cl10  S    
C17   P4    S    
O17   P3    D    
O18   P3    S    
C30   C31   A    
C19   P2    S    
C14   Cl9   S    
C29   P7    S    
C34   H14   S    
O15   P2    D    
C28   O22   S    
Ba2   O5    S    
O3    P5    S    
C34   Cl2   S    
C43   F11   S    
C6    H5    S    
Ba1   O20   S    
Ba1   O23   S    
O14   P6    S    
C23   C34   S    
C24   C33   A    
C40   F10   S    
C10   C11   A    
C2    P1    S    
Ba1   O16   S    
C20   C21   A    
O20   P4    S    
C30   Cl13  S    
C36   O13   S    
Ba1   O4    S    
C34   Cl3   S    
