data_mof_unit_60621.cif
_audit_creation_date              2012-12-10T19:25:07-0500
_audit_creation_method            fapswitch 2.2
_symmetry_space_group_name_H-M    P1
_symmetry_Int_Tables_number       1
_space_group_crystal_system       triclinic
_cell_length_a                    13.449942
_cell_length_b                    16.502495
_cell_length_c                    17.711769
_cell_angle_alpha                 90.853151
_cell_angle_beta                  91.419877
_cell_angle_gamma                 72.262931
_cell_volume                      3743.12662376

loop_
_atom_site_label
_atom_site_type_symbol
_atom_type_description
_atom_site_fract_x
_atom_site_fract_y
_atom_site_fract_z
_atom_type_partial_charge
C1    C     C_R   0.499374 0.500627 0.644725 0.817275
C2    C     C_R   0.974869 0.467733 0.510917 0.021599
C3    C     C_R   0.872968 0.481265 0.478613 0.062620
C4    C     C_R   0.026414 0.529052 0.496572 0.088521
C5    C     C_R   0.969362 0.609124 0.467005 0.124634
C6    C     C_R   0.871230 0.620341 0.434045 -0.281202
C7    C     C_R   0.829729 0.552702 0.430770 0.013196
C8    C     C_R   0.134572 0.510447 0.503260 -0.211546
C9    C     C_R   0.121514 0.658036 0.480678 0.155219
C10   C     C_R   0.815400 0.426042 0.498863 -0.060651
C11   C     C_R   0.551522 0.427464 0.151276 -0.112913
C12   C     C_R   0.700464 0.454446 0.497277 0.861180
C13   C     C_R   0.558094 0.424373 0.230472 0.001078
C14   C     C_R   0.503308 0.497686 0.272487 -0.084728
C15   C     C_R   0.446574 0.572118 0.234368 -0.184866
C16   C     C_R   0.442021 0.574178 0.155858 -0.138296
C17   C     C_R   0.494133 0.501872 0.114485 0.092697
C18   C     C_1   0.491351 0.504278 0.033854 -0.032693
C19   C     C_1   0.490667 0.505106 0.966161 -0.040338
C20   C     C_R   0.501779 0.428654 0.846037 -0.135324
C21   C     C_R   0.504449 0.427346 0.767436 -0.173397
C22   C     C_R   0.497037 0.502137 0.727685 -0.039238
C23   C     C_R   0.502208 0.498892 0.355440 0.822769
C24   C     C_R   0.486394 0.578274 0.767947 -0.153125
C25   C     C_R   0.483781 0.579380 0.846624 -0.140623
C26   C     C_R   0.491528 0.504577 0.885539 0.135472
C27   C     C_R   0.437783 0.183714 0.452020 -0.252716
C28   C     C_R   0.436615 0.269263 0.451327 0.356144
C29   C     C_R   0.565119 0.242554 0.549194 0.045653
C30   C     C_R   0.567934 0.156007 0.551014 -0.254628
C31   C     C_R   0.503366 0.125749 0.501768 0.107364
C32   C     C_1   0.502752 0.036518 0.500780 -0.006912
C33   C     C_1   0.500189 0.962819 0.498514 -0.007200
C34   C     C_R   0.299019 0.545807 0.499523 0.852031
C35   C     C_R   0.438090 0.842791 0.445840 -0.242583
C36   C     C_R   0.440266 0.756413 0.447716 0.066002
C37   C     C_R   0.562097 0.730859 0.549817 0.341096
C38   C     C_R   0.561327 0.816333 0.549278 -0.272344
C39   C     C_R   0.499012 0.873733 0.497604 0.099786
C40   C     C_R   0.015569 0.674147 0.463377 -0.182871
C41   C     C_R   0.183794 0.573424 0.495789 -0.110042
C42   C     C_R   0.865976 0.349639 0.535666 -0.229198
C43   C     C_R   0.966240 0.334805 0.564988 -0.135872
C44   C     C_R   0.017873 0.395774 0.558647 0.150662
Cu1   Cu    Cu3+1 0.500000 0.419580 0.500020 0.978932
Cu2   Cu    Cu3+1 0.500000 0.580420 0.499980 0.988873
H1    H     H_    0.404445 0.628669 0.265521 0.149665
H2    H     H_    0.397817 0.632119 0.127436 0.143766
H3    H     H_    0.508022 0.370472 0.875999 0.143624
H4    H     H_    0.512616 0.367798 0.737905 0.158062
H5    H     H_    0.479718 0.636941 0.738763 0.175295
H6    H     H_    0.475889 0.638385 0.877055 0.142747
H7    H     H_    0.387171 0.162444 0.413208 0.164870
H8    H     H_    0.615608 0.264501 0.587404 0.125868
H9    H     H_    0.832969 0.678190 0.403153 0.138225
H10   H     H_    0.620265 0.113206 0.590565 0.148802
H11   H     H_    0.389362 0.884843 0.404077 0.156941
H12   H     H_    0.393862 0.733709 0.406747 0.148242
H13   H     H_    0.610567 0.837754 0.589152 0.165812
H14   H     H_    0.969900 0.737033 0.444730 0.163830
H15   H     H_    0.181665 0.445014 0.508815 0.203986
H16   H     H_    0.824098 0.305325 0.549377 0.162940
H17   H     H_    0.999432 0.279285 0.599785 0.172698
H18   H     H_    0.593161 0.372544 0.117882 0.175175
N1    N     N_R   0.500030 0.298780 0.500030 -0.186859
N2    N     N_R   0.500020 0.701210 0.500010 -0.189429
O1    O     O_R   0.500010 0.432060 0.608760 -0.589736
O2    O     O_R   0.500000 0.567880 0.608730 -0.559468
O3    O     O_R   0.650990 0.398950 0.500000 -0.600859
O4    O     O_R   0.650980 0.534770 0.499970 -0.568577
O5    O     O_R   0.500000 0.432120 0.391270 -0.580836
O6    O     O_R   0.499990 0.567940 0.391240 -0.591646
O7    O     O_R   0.349020 0.465230 0.500030 -0.561576
O8    O     O_R   0.349010 0.601050 0.500000 -0.557583
I1    I     I_    0.175492 0.766039 0.476821 -0.378714
C45   C     C_2   0.626961 0.346289 0.267251 0.433248
H19   H     H_    0.653034 0.347509 0.325499 0.112673
O9    O     O_2   0.657208 0.279274 0.232213 -0.534862
I2    I     I_    0.331497 0.344734 0.369833 -0.335731
I3    I     I_    0.669188 0.654678 0.629868 -0.357063
I4    I     I_    0.140948 0.380618 0.641294 -0.368631
C46   C     C_2   0.750330 0.555417 0.370412 0.396771
H20   H     H_    0.702109 0.616108 0.348412 0.071679
O10   O     O_2   0.741766 0.489932 0.342054 -0.592848

loop_
_geom_bond_atom_site_label_1
_geom_bond_atom_site_label_2
_ccdc_geom_bond_type
C12   O3    A    
C40   H14   S    
C10   C42   A    
C2    C4    A    
C35   C36   A    
C15   H1    S    
C6    H9    S    
C4    C8    A    
C16   H2    S    
C43   H17   S    
Cu1   Cu2   S    
C8    C41   A    
C20   H3    S    
C37   C38   A    
C45   O9    D    
Cu2   N2    S    
C3    C7    A    
C36   H12   S    
Cu1   O3    S    
C5    C6    A    
C36   N2    A    
Cu1   O5    S    
C29   H8    S    
C15   C16   A    
C1    O2    A    
Cu1   O7    S    
C18   C19   T    
C28   I2    S    
C19   C26   S    
C2    C44   A    
C16   C17   A    
Cu1   O1    S    
C42   H16   S    
Cu2   O6    S    
C8    H15   S    
C24   H5    S    
C1    C22   S    
C13   C14   A    
C34   C41   S    
C21   H4    S    
C38   C39   A    
C37   I3    S    
C27   C31   A    
C23   O5    A    
C24   C25   A    
C44   I4    S    
C25   C26   A    
C30   H10   S    
C9    C40   A    
C14   C23   S    
C35   C39   A    
C43   C44   A    
Cu2   O2    S    
C29   C30   A    
C31   C32   S    
C13   C45   S    
C37   N2    A    
C17   C18   S    
C33   C39   S    
C45   H19   S    
C10   C12   S    
C34   O8    A    
C29   N1    A    
C11   H18   S    
C46   O10   D    
Cu1   N1    S    
C22   C24   A    
C42   C43   A    
Cu2   O8    S    
C12   O4    A    
C11   C17   A    
C23   O6    A    
C4    C5    A    
C27   H7    S    
C6    C7    A    
C9    C41   A    
C35   H11   S    
C32   C33   T    
C2    C3    A    
C25   H6    S    
C3    C10   A    
C11   C13   A    
C30   C31   A    
C20   C26   A    
C1    O1    A    
C28   N1    A    
Cu2   O4    S    
C34   O7    A    
C38   H13   S    
C7    C46   S    
C20   C21   A    
C46   H20   S    
C5    C40   A    
C27   C28   A    
C14   C15   A    
C9    I1    S    
C21   C22   A    
