data_mof_unit_27331.cif
_audit_creation_date              2013-03-05T15:53:43-0500
_audit_creation_method            fapswitch 2.2
_symmetry_space_group_name_H-M    P1
_symmetry_Int_Tables_number       1
_space_group_crystal_system       triclinic
_cell_length_a                    12.947046
_cell_length_b                    13.307548
_cell_length_c                    27.62838
_cell_angle_alpha                 94.92877
_cell_angle_beta                  90.273829
_cell_angle_gamma                 119.072936
_cell_volume                      4139.10797448

loop_
_atom_site_label
_atom_site_type_symbol
_atom_site_description
_atom_site_fract_x
_atom_site_fract_y
_atom_site_fract_z
_atom_type_partial_charge
O1    O     O_R   0.296680 0.802170 0.437540 -0.526602
O2    O     O_R   0.525380 0.838530 0.443500 -0.515116
C1    C     C_R   0.629506 0.894350 0.428147 0.578019
O3    O     O_R   0.702130 0.995190 0.446810 -0.444066
O4    O     O_R   0.661770 0.181390 0.458760 -0.481272
C2    C     C_R   0.601120 0.222120 0.440624 0.554106
O5    O     O_R   0.499820 0.198480 0.455280 -0.454919
O6    O     O_R   0.311660 0.976250 0.449080 -0.437589
C3    C     C_R   0.266450 0.875676 0.426258 0.557834
O7    O     O_R   0.297580 0.804960 0.544440 -0.505426
O8    O     O_R   0.526220 0.841130 0.542590 -0.493675
C4    C     C_R   0.627279 0.899318 0.565013 0.554789
O9    O     O_R   0.703030 0.997990 0.553710 -0.483590
O10   O     O_R   0.662610 0.183990 0.557860 -0.472835
C5    C     C_R   0.605129 0.230433 0.578003 0.590920
O11   O     O_R   0.500730 0.201280 0.562180 -0.444945
O12   O     O_R   0.312500 0.978850 0.548170 -0.465836
C6    C     C_R   0.271135 0.879290 0.563025 0.554773
Cr1   Cr    Cr6+3 0.416430 0.829200 0.492370 1.065427
Cr2   Cr    Cr6+3 0.674630 0.087020 0.504170 1.148379
Cr3   Cr    Cr6+3 0.408920 0.083740 0.503490 1.194009
O13   O     O_3   0.499990 0.999990 0.500010 -0.304548
C7    C     C_1   0.633015 0.267970 0.394618 0.054541
C8    C     C_R   0.719021 0.421862 0.288057 -0.073696
C9    C     C_R   0.729375 0.436962 0.238635 -0.115170
C10   C     C_R   0.641631 0.228537 0.218140 0.257538
C11   C     C_R   0.631704 0.214990 0.268180 -0.044476
C12   C     C_R   0.669319 0.310860 0.302875 0.035070
C13   C     C_R   0.689932 0.341442 0.203473 0.058774
C14   C     C_1   0.695348 0.363702 0.153129 0.066172
C15   C     C_1   0.652810 0.292929 0.353499 0.011866
C16   C     C_1   0.703041 0.392198 0.112480 0.078233
H1    H     H_    0.748528 0.496517 0.314599 0.129715
H2    H     H_    0.766670 0.523673 0.227704 0.108397
H3    H     H_    0.594510 0.129394 0.280284 0.152997
C17   C     C_R   0.153883 0.742671 0.354750 -0.162686
C18   C     C_R   0.126759 0.726703 0.304729 -0.062820
C19   C     C_R   0.115683 0.715494 0.202946 -0.021396
C20   C     C_R   0.090763 0.614913 0.225597 0.206336
C21   C     C_R   0.096474 0.620698 0.276929 -0.025334
C22   C     C_R   0.134451 0.722756 0.153038 0.176533
H4    H     H_    0.155518 0.674679 0.372881 0.137168
C23   C     C_R   0.118143 0.804686 0.129470 -0.003746
C24   C     C_R   0.181718 0.937871 0.359888 0.189775
C25   C     C_R   0.152279 0.922938 0.309722 0.003390
C26   C     C_R   0.133006 0.820274 0.281838 0.014871
C27   C     C_R   0.147251 0.010439 0.286286 -0.098224
C28   C     C_R   0.135305 0.001718 0.235845 -0.104203
C29   C     C_R   0.127783 0.905567 0.207914 0.006568
C30   C     C_R   0.123829 0.813005 0.230931 0.000907
C31   C     C_R   0.118798 0.898012 0.157281 -0.134050
C32   C     C_R   0.193607 0.850603 0.381051 0.002093
H5    H     H_    0.108605 0.962638 0.139640 0.173356
H6    H     H_    0.135666 0.071933 0.218641 0.198767
H7    H     H_    0.155366 0.087442 0.306501 0.203073
C33   C     C_R   0.759481 0.928902 0.358184 0.014077
C34   C     C_R   0.750592 0.932433 0.307467 -0.075367
C35   C     C_R   0.739984 0.920436 0.205378 -0.022701
C36   C     C_R   0.821822 0.024071 0.232835 0.197709
C37   C     C_R   0.827352 0.030585 0.283882 0.159653
C38   C     C_R   0.743214 0.908548 0.154971 -0.068140
H8    H     H_    0.808894 0.979127 0.136710 0.210235
C39   C     C_R   0.674192 0.801856 0.128138 -0.008837
C40   C     C_R   0.565582 0.758655 0.353942 -0.143150
C41   C     C_R   0.569167 0.745785 0.303644 -0.023967
C42   C     C_R   0.658195 0.835157 0.279852 0.002924
C43   C     C_R   0.478393 0.649755 0.276975 -0.097694
C44   C     C_R   0.475120 0.638023 0.226376 0.181680
C45   C     C_R   0.567461 0.724440 0.201168 -0.010990
C46   C     C_R   0.655080 0.826670 0.228735 -0.007161
C47   C     C_R   0.579570 0.710917 0.150214 -0.015886
C48   C     C_R   0.656411 0.854613 0.381120 0.023075
H9    H     H_    0.406994 0.584320 0.295615 0.155824
H10   H     H_    0.488731 0.697433 0.371606 0.140421
C49   C     C_R   0.749994 0.308284 0.650039 -0.069817
C50   C     C_R   0.748616 0.306718 0.701165 -0.072724
C51   C     C_R   0.754605 0.324977 0.804163 -0.001171
C52   C     C_R   0.818876 0.280048 0.778597 -0.021173
C53   C     C_R   0.812363 0.265148 0.727568 -0.021270
C54   C     C_R   0.762627 0.342317 0.855681 0.157736
H11   H     H_    0.868335 0.249045 0.798387 0.226411
C55   C     C_R   0.681285 0.368382 0.879685 0.134686
C56   C     C_R   0.585586 0.348344 0.650141 0.225375
C57   C     C_R   0.606334 0.379159 0.700964 0.042426
C58   C     C_R   0.678003 0.345922 0.726652 0.023181
C59   C     C_R   0.552218 0.436102 0.727135 0.081504
C60   C     C_R   0.540085 0.427774 0.777643 -0.027347
C61   C     C_R   0.600328 0.380759 0.802506 -0.163259
C62   C     C_R   0.678981 0.352185 0.777776 0.008584
C63   C     C_R   0.586342 0.363046 0.851907 0.308361
C64   C     C_R   0.651911 0.303572 0.625191 0.025365
C65   C     C_1   0.222563 0.863075 0.609726 0.070711
C66   C     C_R   0.094818 0.740560 0.717449 -0.200503
C67   C     C_R   0.076679 0.726645 0.766827 0.009243
C68   C     C_R   0.226116 0.930306 0.786601 0.136434
C69   C     C_R   0.243425 0.942441 0.736618 0.220415
C70   C     C_R   0.176730 0.846603 0.702318 -0.018914
C71   C     C_R   0.143437 0.822531 0.801798 0.015563
C72   C     C_1   0.126046 0.811758 0.853052 0.134514
C73   C     C_1   0.196067 0.854152 0.651345 0.045501
C74   C     C_1   0.102205 0.796724 0.894785 0.158584
H12   H     H_    0.045075 0.667769 0.690352 0.127250
C75   C     C_1   0.643081 0.867766 0.611466 0.062447
C76   C     C_R   0.759912 0.837144 0.725390 0.048875
C77   C     C_R   0.760952 0.824446 0.775719 0.200224
C78   C     C_R   0.564277 0.804778 0.780294 -0.131693
C79   C     C_R   0.562542 0.817374 0.730863 -0.133869
C80   C     C_R   0.659068 0.833672 0.703266 0.037200
C81   C     C_R   0.662995 0.808957 0.802859 0.014774
C82   C     C_1   0.666330 0.799633 0.854272 0.036973
C83   C     C_1   0.651799 0.849201 0.652702 0.063378
C84   C     C_1   0.681339 0.790599 0.896325 0.071833
H13   H     H_    0.488992 0.792874 0.801029 0.161455
H14   H     H_    0.485452 0.814994 0.714038 0.142140
O14   O     O_R   0.820790 0.857990 0.068830 -0.505096
O15   O     O_R   0.016700 0.827330 0.062850 -0.501476
C85   C     C_R   0.064609 0.772081 0.079619 0.548773
O16   O     O_R   0.041970 0.673520 0.060040 -0.466809
O17   O     O_R   0.817980 0.483660 0.048840 -0.473283
C86   C     C_R   0.716857 0.440710 0.067060 0.574225
O18   O     O_R   0.637200 0.461990 0.052510 -0.458089
O19   O     O_R   0.664790 0.681920 0.057970 -0.487965
C87   C     C_R   0.719188 0.781895 0.081151 0.532217
O20   O     O_R   0.815840 0.852920 0.961840 -0.453244
O21   O     O_R   0.012100 0.822630 0.963670 -0.460582
C88   C     C_R   0.057159 0.766271 0.941535 0.576717
O22   O     O_R   0.037010 0.668460 0.953040 -0.470043
O23   O     O_R   0.813390 0.478970 0.949660 -0.500664
C89   C     C_R   0.708559 0.431220 0.929220 0.679852
O24   O     O_R   0.632250 0.456930 0.945520 -0.264075
O25   O     O_R   0.660200 0.677230 0.958780 -0.507659
C90   C     C_R   0.715193 0.776636 0.943505 0.557703
Cr4   Cr    Cr6+3 0.914010 0.832750 0.013970 1.154715
Cr5   Cr    Cr6+3 0.922310 0.578600 0.003000 1.188220
Cr6   Cr    Cr6+3 0.656280 0.574630 0.003870 1.273844
O26   O     O_3   0.830870 0.661990 0.006950 -0.345108
N1    N     N_R   0.207746 0.043954 0.388177 0.067700
O27   O     O_R   0.147785 0.042188 0.426045 -0.274219
O28   O     O_R   0.297655 0.141026 0.378623 -0.322937
C91   C     C_2   0.877444 0.986025 0.385174 0.316602
H15   H     H_    0.957540 0.038277 0.367102 0.161712
O29   O     O_2   0.887913 0.968243 0.427072 -0.430949
N2    N     N_R   0.895641 0.125089 0.209143 0.120236
O30   O     O_R   0.986115 0.132491 0.186143 -0.304780
O31   O     O_R   0.877961 0.213517 0.213944 -0.180890
N3    N     N_R   0.901234 0.140470 0.311261 0.080367
O32   O     O_R   0.856829 0.180668 0.344796 -0.309235
O33   O     O_R   0.011538 0.202938 0.301397 -0.261476
C92   C     C_2   0.502602 0.598801 0.121323 0.350588
H16   H     H_    0.495814 0.519705 0.132549 0.125548
O34   O     O_2   0.444149 0.594123 0.085508 -0.372962
N4    N     N_R   0.372069 0.542307 0.201953 0.060318
O35   O     O_R   0.331602 0.439425 0.215935 -0.281320
O36   O     O_R   0.306207 0.561688 0.172766 -0.234999
N5    N     N_R   0.851126 0.332642 0.883351 0.085186
O37   O     O_R   0.822028 0.272653 0.920639 -0.230254
O38   O     O_R   0.961919 0.389331 0.873231 -0.239307
C93   C     C_2   0.861666 0.339119 0.624705 0.235417
H17   H     H_    0.939139 0.348264 0.644098 0.128232
O39   O     O_2   0.872085 0.364130 0.582837 -0.459046
C94   C     C_2   0.858022 0.191461 0.703272 0.233855
H18   H     H_    0.827383 0.151687 0.666360 0.124804
O40   O     O_2   0.928584 0.172237 0.724508 -0.417868
N6    N     N_R   0.474994 0.336673 0.872492 1.260303
O41   O     O_R   0.434251 0.268631 0.906960 -1.359688
O42   O     O_R   0.434251 0.268631 0.906960 -1.359688
C95   C     C_2   0.479030 0.482279 0.805586 0.226068
H19   H     H_    0.519528 0.535084 0.839650 0.081794
O43   O     O_2   0.381066 0.464197 0.792049 -0.420366
C96   C     C_2   0.525676 0.518424 0.703656 0.285530
H20   H     H_    0.453171 0.532536 0.714481 0.174367
O44   O     O_2   0.588732 0.575317 0.672657 -0.490202
N7    N     N_R   0.490890 0.352878 0.624805 0.113743
O45   O     O_R   0.511356 0.408709 0.586402 -0.265928
O46   O     O_R   0.383492 0.298388 0.639266 -0.249128
N8    N     N_R   0.602278 0.127823 0.183500 0.091094
O47   O     O_R   0.645902 0.135722 0.140783 -0.260087
O48   O     O_R   0.529884 0.025603 0.196079 -0.332499
C97   C     C_2   0.987253 0.609963 0.779239 0.287721
H21   H     H_    0.938764 0.541602 0.750249 0.099080
O49   O     O_2   0.966168 0.587798 0.821173 -0.477948
N9    N     N_R   0.294773 0.026730 0.821957 0.163154
O50   O     O_R   0.409617 0.082755 0.821129 -0.143533
O51   O     O_R   0.242539 0.058780 0.855003 0.075822
N10   N     N_R   0.326457 0.052446 0.720909 0.105643
O52   O     O_R   0.406204 0.060233 0.690681 -0.358883
O53   O     O_R   0.324234 0.145773 0.737648 -0.217647
C98   C     C_2   0.862743 0.849837 0.697044 0.324295
H22   H     H_    0.925677 0.827551 0.711963 0.142773
O54   O     O_2   0.879707 0.886088 0.657104 -0.462024
N11   N     N_R   0.862905 0.830967 0.799770 0.043152
O55   O     O_R   0.964677 0.924905 0.800802 -0.281454
O56   O     O_R   0.851990 0.747345 0.824233 -0.378189
N12   N     N_R   0.174963 0.650642 0.127583 -0.050562
O57   O     O_R   0.251354 0.689096 0.094103 -0.000001
O58   O     O_R   0.251354 0.689097 0.094102 -0.000001
N13   N     N_R   0.050382 0.505717 0.196709 0.137513
O59   O     O_R   0.969247 0.473170 0.161905 -0.304926
O60   O     O_R   0.089075 0.435596 0.206540 -0.137487
C99   C     C_2   0.067307 0.515514 0.301327 0.310853
H23   H     H_    0.128679 0.516321 0.328400 0.116544
O61   O     O_2   0.973113 0.427191 0.291662 -0.380994

loop_
_geom_bond_atom_site_label_1
_geom_bond_atom_site_label_2
_geom_bond_distance
_ccdc_geom_bond_type
N12   O58   1.301508 A    
C60   C61   1.419374 A    
O11   Cr3   2.056130 S    
N5    O38   1.301276 A    
C77   N11   1.435920 S    
C17   H4    1.080029 S    
C68   C69   1.410481 A    
C50   C53   1.423601 A    
C76   C80   1.417511 A    
C34   C42   1.416150 A    
O23   C89   1.287503 A    
C94   H18   1.084847 S    
C68   C71   1.412394 A    
C92   H16   1.085483 S    
Cr6   O26   1.973721 S    
C95   O43   1.220600 D    
O4    Cr2   1.910712 S    
C47   C92   1.482909 S    
C51   C52   1.401931 A    
C33   C34   1.412065 A    
C28   H6    1.082198 S    
C4    O9    1.267055 A    
N1    O28   1.301364 A    
C51   C62   1.415730 A    
C10   C11   1.407971 A    
C66   C67   1.398148 A    
O21   C88   1.275405 A    
O20   Cr4   2.035281 S    
C56   C57   1.415055 A    
C98   O54   1.220402 D    
C17   C18   1.396695 A    
C57   C59   1.419360 A    
C53   C94   1.488512 S    
C18   C21   1.416708 A    
O25   Cr6   1.908988 S    
C45   C46   1.425340 A    
C92   O34   1.221566 D    
O4    C2    1.272000 A    
C33   C91   1.493281 S    
N10   O53   1.301270 A    
C78   C79   1.391567 A    
C67   C71   1.420254 A    
N9    O51   1.300828 A    
N2    O30   1.300515 A    
O15   C85   1.280214 A    
O20   C90   1.266850 A    
C75   C83   1.202496 T    
C45   C47   1.422960 A    
N9    O50   1.301205 A    
C44   C45   1.430488 A    
C60   C95   1.487889 S    
O24   Cr6   2.058331 S    
C99   H23   1.084264 S    
C29   C31   1.394082 A    
Cr4   O26   1.976150 S    
C79   C80   1.401529 A    
O22   Cr5   2.029272 S    
C8    C9    1.394837 A    
C43   H9    1.085043 S    
O16   Cr5   2.052318 S    
C49   C64   1.412348 A    
C9    H2    1.084275 S    
C24   C32   1.415559 A    
C35   C38   1.391206 A    
N8    O48   1.301912 A    
N12   O57   1.301508 A    
C20   N13   1.442335 S    
C36   N2    1.434441 S    
C36   C37   1.404891 A    
N7    O45   1.301828 A    
Cr3   O13   1.975195 S    
C93   O39   1.221087 D    
C22   C23   1.414801 A    
N13   O59   1.300883 A    
C3    C32   1.473785 S    
C37   N3    1.438451 S    
C16   C86   1.432691 S    
C76   C77   1.415851 A    
C94   O40   1.221501 D    
C74   C88   1.428307 S    
N3    O33   1.301429 A    
C25   C27   1.407903 A    
C9    C13   1.404469 A    
C19   C20   1.418973 A    
C76   C98   1.492831 S    
O1    Cr1   2.042035 S    
O17   Cr5   1.912475 S    
O14   C87   1.280883 A    
C5    O11   1.274446 A    
C78   H13   1.083610 S    
C43   C44   1.391389 A    
O10   Cr2   1.938623 S    
Cr1   O13   1.976446 S    
O1    C3    1.276911 A    
C91   H15   1.082594 S    
C19   C22   1.404634 A    
C54   C55   1.411164 A    
C20   C21   1.413308 A    
C58   C62   1.407387 A    
C52   C53   1.403096 A    
O6    C3    1.273424 A    
C34   C37   1.417466 A    
Cr5   O26   1.975387 S    
O15   Cr4   1.920784 S    
O14   Cr4   2.047140 S    
C41   C43   1.388356 A    
C35   C36   1.411565 A    
C25   C26   1.417136 A    
O12   Cr3   1.909960 S    
N11   O55   1.300938 A    
C63   N6    1.440601 S    
C98   H22   1.083707 S    
C31   H5    1.084582 S    
C7    C15   1.204812 T    
C84   C90   1.428666 S    
C49   C50   1.414516 A    
N11   O56   1.300923 A    
C79   H14   1.084230 S    
C13   C14   1.441810 S    
C44   N4    1.431772 S    
O23   Cr5   1.935357 S    
C27   C28   1.390058 A    
O10   C5    1.279607 A    
C22   N12   1.437839 S    
C10   N8    1.443306 S    
O7    Cr1   2.039591 S    
O8    C4    1.273001 A    
O8    Cr1   1.922203 S    
C69   C70   1.408712 A    
C38   C39   1.394183 A    
O12   C6    1.271448 A    
C57   C58   1.416636 A    
C55   C89   1.486183 S    
N7    O46   1.301567 A    
C59   C60   1.412788 A    
C4    C75   1.427892 S    
C24   N1    1.436277 S    
C49   C93   1.493710 S    
N8    O47   1.301119 A    
C72   C74   1.203258 T    
C39   C47   1.424957 A    
C29   C30   1.413472 A    
C56   N7    1.437971 S    
C93   H17   1.083060 S    
Cr2   O13   1.974000 S    
C1    O3    1.265303 A    
C66   C70   1.393567 A    
C95   H19   1.085376 S    
C70   C73   1.435038 S    
C56   C64   1.414157 A    
C24   C25   1.407049 A    
C65   C73   1.200658 T    
C54   N5    1.437280 S    
C27   H7    1.081432 S    
N3    O32   1.301494 A    
N1    O27   1.300809 A    
C51   C54   1.417345 A    
O21   Cr4   1.926961 S    
N2    O31   1.299994 A    
C77   C81   1.412369 A    
N6    O41   1.301442 A    
C61   C63   1.402651 A    
O9    Cr2   2.027178 S    
C33   C48   1.411845 A    
O2    Cr1   1.924836 S    
C59   C96   1.491605 S    
C69   N10   1.439187 S    
C12   C15   1.438556 S    
C35   C46   1.412052 A    
C8    C12   1.395113 A    
N4    O36   1.298773 A    
O6    Cr3   1.937383 S    
C66   H12   1.085385 S    
C39   C87   1.481079 S    
O17   C86   1.273853 A    
C68   N9    1.434803 S    
O19   C87   1.270780 A    
C2    O5    1.268473 A    
C19   C30   1.409467 A    
C21   C99   1.485634 S    
C17   C32   1.398100 A    
C26   C30   1.401963 A    
C8    H1    1.083497 S    
C55   C63   1.414849 A    
C80   C83   1.438897 S    
C11   H3    1.084036 S    
C40   C41   1.389274 A    
N13   O60   1.300775 A    
O2    C1    1.278882 A    
C89   O24   1.265793 A    
C6    C65   1.424980 S    
C41   C42   1.408701 A    
O5    Cr3   2.026989 S    
C85   O16   1.265624 A    
C14   C16   1.205224 T    
C52   H11   1.082304 S    
C23   C31   1.399509 A    
N10   O52   1.301305 A    
C42   C46   1.405905 A    
C96   O44   1.220920 D    
O7    C6    1.266035 A    
C88   O22   1.266971 A    
C28   C29   1.396675 A    
C2    C7    1.432424 S    
N6    O42   1.301442 A    
C1    C48   1.467760 S    
C67   C97   1.489045 S    
C40   C48   1.394562 A    
C38   H8    1.081271 S    
C82   C84   1.202769 T    
O19   Cr6   1.940003 S    
C5    C64   1.488408 S    
C97   H21   1.085425 S    
O3    Cr2   2.055984 S    
C61   C62   1.409511 A    
O18   Cr6   2.025655 S    
C10   C13   1.416575 A    
C99   O61   1.220639 D    
C71   C72   1.443256 S    
C96   H20   1.081798 S    
N5    O37   1.301259 A    
C23   C85   1.470216 S    
C40   H10   1.084940 S    
C86   O18   1.266832 A    
C97   O49   1.219550 D    
N4    O35   1.301489 A    
C91   O29   1.221107 D    
C18   C26   1.412442 A    
C81   C82   1.438709 S    
C50   C58   1.417889 A    
O25   C90   1.272176 A    
C11   C12   1.401885 A    
C78   C81   1.393802 A    
