data_mof_unit_44781.cif
_audit_creation_date              2012-12-11T15:23:56-0500
_audit_creation_method            fapswitch 2.2
_symmetry_space_group_name_H-M    P1
_symmetry_Int_Tables_number       1
_space_group_crystal_system       triclinic
_cell_length_a                    17.33961
_cell_length_b                    24.443332
_cell_length_c                    14.959639
_cell_angle_alpha                 89.934406
_cell_angle_beta                  125.530586
_cell_angle_gamma                 90.856579
_cell_volume                      5159.10326955

loop_
_atom_site_label
_atom_site_type_symbol
_atom_type_description
_atom_site_fract_x
_atom_site_fract_y
_atom_site_fract_z
_atom_type_partial_charge
C1    C     C_R   0.310084 0.375675 0.909710 -0.117698
C2    C     C_R   0.553335 0.500940 0.728518 0.117442
C3    C     C_3   0.573527 0.892796 0.799114 -0.253137
C4    C     C_3   0.554289 0.365441 0.478249 -0.281186
C5    C     C_3   0.742269 0.417733 0.806105 -0.234567
C6    C     C_3   0.091060 0.862282 0.502698 -0.250291
C7    C     C_3   0.252657 0.917804 0.795240 -0.243549
C8    C     C_3   0.148426 0.613347 0.583878 -0.134207
C9    C     C_3   0.840411 0.599144 0.189489 -0.296314
C10   C     C_3   0.651115 0.114190 0.583823 -0.119931
C11   C     C_3   0.364155 0.108530 0.247716 -0.192586
C12   C     C_3   0.304138 0.388282 0.638576 -0.238989
C13   C     C_R   0.065972 0.999797 0.367684 0.134065
C14   C     C_3   0.757213 0.388506 0.362262 -0.189787
C15   C     C_3   0.804610 0.888439 0.637710 -0.231247
C16   C     C_3   0.253971 0.887743 0.362435 -0.190875
C17   C     C_3   0.312358 0.697308 0.810786 -0.216152
C18   C     C_3   0.668304 0.659849 0.265648 -0.078016
C19   C     C_3   0.809721 0.198346 0.813622 -0.236190
C20   C     C_3   0.079552 0.208692 0.165686 -0.235368
C21   C     C_R   0.051968 0.001310 0.726929 0.127735
C22   C     C_R   0.200759 0.495748 0.629614 -0.217993
C23   C     C_R   0.826787 0.498005 0.283114 -0.161736
C24   C     C_R   0.702137 0.995996 0.628877 -0.218110
C25   C     C_R   0.327763 0.999143 0.295694 -0.216719
C26   C     C_2   0.978529 0.454246 0.362884 -0.146663
C27   C     C_2   0.073701 0.448332 0.462841 -0.110509
C28   C     C_2   0.478127 0.956329 0.367327 -0.130490
C29   C     C_R   0.654570 0.350962 0.089469 -0.032858
C30   C     C_2   0.575283 0.948783 0.461766 -0.112452
C31   C     C_2   0.929525 0.498662 0.351631 -0.133823
C32   C     C_2   0.131932 0.491836 0.510082 -0.142115
C33   C     C_2   0.430056 0.998323 0.368569 -0.125128
C34   C     C_2   0.633209 0.992341 0.509368 -0.142846
C35   C     C_R   0.165521 0.683437 0.932560 0.702055
C36   C     C_R   0.723417 0.766351 0.105065 0.685149
C37   C     C_R   0.663324 0.182460 0.930121 0.698829
C38   C     C_R   0.225545 0.265775 0.110699 0.618804
C39   C     C_R   0.620213 0.230673 0.929008 -0.456364
C40   C     C_R   0.809852 0.876059 0.908685 -0.121411
C41   C     C_R   0.265185 0.314517 0.105992 -0.437180
C42   C     C_R   0.121886 0.731287 0.931291 -0.458274
C43   C     C_R   0.757789 0.817358 0.100330 -0.438169
C44   C     C_R   0.676029 0.273364 0.001565 -0.098803
C45   C     C_R   0.237316 0.336139 0.005175 -0.086777
C46   C     C_R   0.177644 0.774795 0.000912 -0.100459
C47   C     C_R   0.733856 0.837049 0.999968 -0.104983
C48   C     C_R   0.773995 0.268516 0.078848 0.647688
C49   C     C_R   0.148975 0.319665 0.909528 0.628348
C50   C     C_R   0.276233 0.771550 0.074713 0.638316
C51   C     C_R   0.155431 0.851342 0.089570 -0.038437
C52   C     C_R   0.648664 0.818086 0.902778 0.632009
C53   C     C_R   0.318375 0.723628 0.080721 -0.417512
C54   C     C_R   0.606601 0.770013 0.906680 -0.382337
C55   C     C_R   0.815131 0.220119 0.085027 -0.434779
C56   C     C_R   0.105147 0.272356 0.913283 -0.371382
C57   C     C_R   0.401621 0.620938 0.092453 -0.215816
C58   C     C_R   0.561932 0.650790 0.910962 -0.295459
C59   C     C_R   0.900143 0.119130 0.091990 -0.272341
C60   C     C_R   0.059868 0.152199 0.912699 -0.287073
C61   C     C_R   0.264068 0.680410 0.008994 -0.056679
C62   C     C_R   0.315359 0.637432 0.002346 -0.021031
C63   C     C_R   0.647661 0.741435 0.005679 -0.073155
C64   C     C_R   0.761342 0.178077 0.009430 -0.045441
C65   C     C_R   0.147570 0.242428 0.010918 -0.073492
C66   C     C_R   0.594923 0.551522 0.619294 -0.229657
C67   C     C_R   0.594169 0.549993 0.526838 -0.238402
C68   C     C_R   0.086590 0.052355 0.612284 -0.233897
C69   C     C_R   0.088534 0.051209 0.521918 -0.235182
C70   C     C_R   0.594330 0.499687 0.481897 -0.104464
C71   C     C_R   0.597670 0.502775 0.669822 -0.107662
C72   C     C_R   0.097038 0.001431 0.482333 -0.084194
C73   C     C_R   0.619788 0.683701 0.002688 -0.036393
C74   C     C_R   0.093888 0.003749 0.665706 -0.091835
C75   C     C_R   0.614830 0.451398 0.544481 0.485313
C76   C     C_R   0.624346 0.454469 0.644092 0.455217
C77   C     C_R   0.122876 0.953979 0.547864 0.467741
C78   C     C_R   0.126169 0.956496 0.644196 0.447798
C79   C     C_R   0.547883 0.453907 0.302587 -0.170676
C80   C     C_R   0.520335 0.454523 0.751503 -0.163984
C81   C     C_R   0.048180 0.954269 0.303175 -0.165011
C82   C     C_R   0.019717 0.954699 0.750482 -0.150422
C83   C     C_R   0.246590 0.542987 0.693028 0.547783
C84   C     C_R   0.813595 0.135590 0.002075 -0.008339
C85   C     C_R   0.769811 0.543793 0.247169 0.465717
C86   C     C_R   0.747419 0.043158 0.692780 0.548877
C87   C     C_R   0.270440 0.045048 0.258207 0.514622
C88   C     C_R   0.547173 0.544551 0.302767 -0.160312
C89   C     C_R   0.522231 0.545991 0.754727 -0.106138
C90   C     C_R   0.050414 0.045011 0.303535 -0.131528
C91   C     C_R   0.021887 0.046228 0.754691 -0.111743
C92   C     C_R   0.247636 0.452137 0.697497 0.518060
C93   C     C_R   0.768338 0.453376 0.260248 0.523642
C94   C     C_R   0.748317 0.952295 0.696882 0.516527
C95   C     C_R   0.117219 0.185108 0.005588 -0.108970
C96   C     C_R   0.268698 0.953915 0.265539 0.534211
C97   C     C_R   0.312557 0.626664 0.909464 0.630797
C98   C     C_R   0.636440 0.654656 0.091193 0.741825
C99   C     C_R   0.811716 0.125722 0.909399 0.628736
C100  C     C_R   0.138424 0.153205 0.093348 0.772434
C101  C     C_R   0.402093 0.376902 0.092761 -0.125772
C102  C     C_R   0.564947 0.351145 0.906702 -0.154765
C103  C     C_R   0.900835 0.876798 0.091683 -0.133936
C104  C     C_R   0.065314 0.851466 0.906549 -0.151186
C105  C     C_R   0.311032 0.364374 0.001552 0.101775
C106  C     C_R   0.562778 0.498986 0.366681 0.151101
C107  C     C_R   0.633585 0.323454 0.998219 0.103859
C108  C     C_R   0.809533 0.864859 0.999407 0.103499
C109  C     C_R   0.134292 0.824086 0.998084 0.106693
C110  C     C_3   0.044619 0.653104 0.757421 -0.210535
C111  C     C_3   0.863573 0.742043 0.270606 -0.325942
C112  C     C_3   0.543290 0.154460 0.752420 -0.191538
C113  C     C_3   0.305380 0.267301 0.301432 -0.178909
C114  C     C_3   0.861294 0.343024 0.096116 -0.268577
C115  C     C_3   0.076451 0.396100 0.811230 -0.265588
C116  C     C_3   0.357342 0.847838 0.085394 -0.248719
H1    H     H_    0.251992 0.369621 0.825200 0.212187
H2    H     H_    0.327496 0.330032 0.181164 0.157662
H3    H     H_    0.286069 0.849499 0.408799 0.173104
H4    H     H_    0.364958 0.680480 0.798859 0.168698
H5    H     H_    0.348450 0.723277 0.886469 0.122518
H6    H     H_    0.264955 0.724290 0.740290 0.151772
H7    H     H_    0.654256 0.615952 0.265794 0.105900
H8    H     H_    0.643597 0.680435 0.310563 0.120019
H9    H     H_    0.745349 0.668663 0.312292 0.198714
H10   H     H_    0.864590 0.183579 0.803641 0.166981
H11   H     H_    0.842840 0.223926 0.889500 0.108272
H12   H     H_    0.761754 0.225175 0.743103 0.164458
H13   H     H_    0.045571 0.734857 0.877613 0.164971
H14   H     H_    0.065154 0.203532 0.228403 0.156869
H15   H     H_    0.011298 0.202554 0.083508 0.102436
H16   H     H_    0.104180 0.251470 0.171865 0.145971
H17   H     H_    0.812667 0.837418 0.175949 0.164127
H18   H     H_    0.394978 0.722080 0.136399 0.192666
H19   H     H_    0.545373 0.753673 0.830434 0.174244
H20   H     H_    0.891259 0.217719 0.143675 0.171072
H21   H     H_    0.041637 0.257291 0.837605 0.173335
H22   H     H_    0.583238 0.590585 0.642797 0.151483
H23   H     H_    0.583566 0.588336 0.485654 0.150440
H24   H     H_    0.069023 0.090740 0.631380 0.153073
H25   H     H_    0.693221 0.334778 0.171348 0.164780
H26   H     H_    0.072826 0.088968 0.477343 0.151041
H27   H     H_    0.429639 0.626882 0.177852 0.146515
H28   H     H_    0.520138 0.663778 0.826462 0.142945
H29   H     H_    0.927382 0.123980 0.177383 0.153333
H30   H     H_    0.018115 0.165698 0.828481 0.149434
H31   H     H_    0.565429 0.412198 0.327590 0.154136
H32   H     H_    0.527401 0.412505 0.736484 0.154966
H33   H     H_    0.062386 0.912331 0.328161 0.144924
H34   H     H_    0.026580 0.912757 0.734647 0.152462
H35   H     H_    0.564511 0.586570 0.330261 0.080120
H36   H     H_    0.752403 0.870365 0.823931 0.214294
H37   H     H_    0.533858 0.588526 0.746827 0.102146
H38   H     H_    0.070890 0.086947 0.331095 0.104551
H39   H     H_    0.034108 0.088903 0.748285 0.105261
H40   H     H_    0.430426 0.373354 0.178182 0.094478
H41   H     H_    0.524749 0.336730 0.822597 0.097951
H42   H     H_    0.927916 0.872351 0.176742 0.093154
H43   H     H_    0.025423 0.837130 0.822409 0.097521
H44   H     H_    0.942802 0.417844 0.313567 0.200035
H45   H     H_    0.084592 0.410819 0.506798 0.211140
H46   H     H_    0.441825 0.922746 0.309169 0.193216
H47   H     H_    0.195252 0.835377 0.171660 0.163954
H48   H     H_    0.587759 0.910347 0.503488 0.214009
H49   H     H_    0.069593 0.685817 0.727453 0.143119
H50   H     H_    0.979398 0.665640 0.748974 0.128200
H51   H     H_    0.025655 0.616781 0.703568 0.159700
H52   H     H_    0.890961 0.780111 0.321079 0.145691
H53   H     H_    0.892607 0.737879 0.221269 0.128659
H54   H     H_    0.890285 0.707266 0.328442 0.189118
H55   H     H_    0.569207 0.187980 0.725085 0.140760
H56   H     H_    0.477713 0.166485 0.743649 0.128360
H57   H     H_    0.524547 0.119014 0.696652 0.162059
H58   H     H_    0.964243 0.534599 0.403559 0.138229
H59   H     H_    0.256400 0.301053 0.285209 0.096287
H60   H     H_    0.378034 0.283714 0.337822 0.107645
H61   H     H_    0.309275 0.240341 0.363594 0.191705
H62   H     H_    0.801341 0.366238 0.027393 0.139909
H63   H     H_    0.895415 0.317951 0.066313 0.117464
H64   H     H_    0.915121 0.373230 0.155900 0.165952
H65   H     H_    0.135281 0.424128 0.871838 0.137423
H66   H     H_    0.022261 0.392489 0.828646 0.136788
H67   H     H_    0.041974 0.414827 0.729052 0.184578
H68   H     H_    0.294319 0.868743 0.015557 0.139555
H69   H     H_    0.118923 0.527484 0.460690 0.140293
H70   H     H_    0.392938 0.823889 0.056100 0.132458
H71   H     H_    0.408240 0.880010 0.142166 0.165929
H72   H     H_    0.630058 0.922073 0.859221 0.136981
H73   H     H_    0.517850 0.888514 0.814052 0.136909
H74   H     H_    0.539863 0.910428 0.716153 0.184518
H75   H     H_    0.484063 0.384952 0.422131 0.106625
H76   H     H_    0.559513 0.347169 0.549456 0.197229
H77   H     H_    0.557666 0.331295 0.431896 0.154529
H78   H     H_    0.740142 0.447168 0.861237 0.137704
H79   H     H_    0.793496 0.432213 0.788648 0.135436
H80   H     H_    0.465361 0.030494 0.430465 0.135441
H81   H     H_    0.768689 0.378362 0.849919 0.156543
H82   H     H_    0.015917 0.873955 0.463263 0.110272
H83   H     H_    0.118637 0.839717 0.579845 0.203068
H84   H     H_    0.091331 0.833322 0.445828 0.134297
H85   H     H_    0.266810 0.952338 0.851592 0.137772
H86   H     H_    0.294130 0.923497 0.760361 0.153022
H87   H     H_    0.277684 0.879775 0.844096 0.154267
H88   H     H_    0.096538 0.589761 0.590783 0.096212
H89   H     H_    0.124482 0.614467 0.497231 0.104761
H90   H     H_    0.146837 0.656335 0.605886 0.173736
H91   H     H_    0.617177 0.028706 0.460821 0.140838
H92   H     H_    0.805369 0.571048 0.116782 0.135748
H93   H     H_    0.917360 0.590994 0.245524 0.154643
H94   H     H_    0.833015 0.641075 0.157578 0.170402
H95   H     H_    0.598268 0.090836 0.589334 0.092220
H96   H     H_    0.628153 0.115772 0.497574 0.103131
H97   H     H_    0.650118 0.157119 0.606507 0.176899
H98   H     H_    0.352084 0.081061 0.181012 0.098543
H99   H     H_    0.437873 0.105299 0.322175 0.122540
H100  H     H_    0.356593 0.150783 0.217526 0.202827
H101  H     H_    0.373736 0.378687 0.714983 0.145398
H102  H     H_    0.544253 0.235246 0.872836 0.164564
H103  H     H_    0.310598 0.422489 0.593813 0.137371
H104  H     H_    0.279689 0.351532 0.584657 0.159759
H105  H     H_    0.680261 0.379502 0.302640 0.115910
H106  H     H_    0.769307 0.421144 0.421303 0.146275
H107  H     H_    0.790625 0.350781 0.410048 0.176418
H108  H     H_    0.874246 0.878720 0.713940 0.142586
H109  H     H_    0.811048 0.922685 0.593005 0.138842
H110  H     H_    0.779914 0.851756 0.583595 0.165019
H111  H     H_    0.177114 0.879269 0.300758 0.113415
H112  H     H_    0.265215 0.919623 0.422321 0.159455
N1    N     N_R   0.395440 0.396300 0.944370 -0.046427
N2    N     N_R   0.474910 0.470990 0.794360 -0.062490
N3    N     N_R   0.025090 0.970990 0.205640 -0.051490
N4    N     N_R   0.974910 0.970990 0.794360 -0.064917
N5    N     N_R   0.320240 0.527820 0.794510 -0.133928
N6    N     N_R   0.679760 0.527820 0.205490 -0.139568
N7    N     N_R   0.820240 0.027820 0.794510 -0.132554
N8    N     N_R   0.179760 0.027820 0.205490 -0.124037
N9    N     N_R   0.524580 0.527810 0.205160 -0.039858
N10   N     N_R   0.475420 0.527810 0.794840 -0.039273
N11   N     N_R   0.024580 0.027810 0.205160 -0.033038
N12   N     N_R   0.604560 0.396300 0.055630 -0.063805
N13   N     N_R   0.975420 0.027810 0.794840 -0.039504
N14   N     N_R   0.320750 0.470990 0.794990 -0.138149
N15   N     N_R   0.679250 0.470990 0.205010 -0.139940
N16   N     N_R   0.820750 0.970990 0.794990 -0.138104
N17   N     N_R   0.179250 0.970990 0.205010 -0.144505
N18   N     N_R   0.393580 0.602500 0.942610 -0.109249
N19   N     N_R   0.606420 0.602500 0.057390 -0.110019
N20   N     N_R   0.893580 0.102500 0.942610 -0.113667
N21   N     N_R   0.106420 0.102500 0.057390 -0.113731
N22   N     N_R   0.451750 0.396300 0.057540 -0.048726
N23   N     N_R   0.895440 0.896300 0.944370 -0.046502
N24   N     N_R   0.548250 0.396300 0.942460 -0.048112
N25   N     N_R   0.951750 0.896300 0.057540 -0.048735
N26   N     N_R   0.048250 0.896300 0.942460 -0.047987
N27   N     N_R   0.104560 0.896300 0.055630 -0.063433
N28   N     N_R   0.449890 0.602500 0.055780 -0.064560
N29   N     N_R   0.550110 0.602500 0.944220 -0.070382
N30   N     N_R   0.949890 0.102500 0.055780 -0.074507
N31   N     N_R   0.050110 0.102500 0.944220 -0.077029
N32   N     N_R   0.525090 0.470990 0.205640 -0.049066
Ni1   Ni    Ni4+2 0.435420 0.434250 0.870220 0.201779
Ni2   Ni    Ni4+2 0.564580 0.434250 0.129780 0.185171
Ni3   Ni    Ni4+2 0.935420 0.934250 0.870220 0.202055
Ni4   Ni    Ni4+2 0.064580 0.934250 0.129780 0.186096
Ni5   Ni    Ni4+2 0.563400 0.564580 0.128670 0.206347
Ni6   Ni    Ni4+2 0.436600 0.564580 0.871330 0.233071
Ni7   Ni    Ni4+2 0.063400 0.064580 0.128670 0.246272
Ni8   Ni    Ni4+2 0.936600 0.064580 0.871330 0.229479
O1    O     O_3   0.115205 0.638012 0.866764 -0.619268
O2    O     O_3   0.650973 0.408467 0.708958 -0.628289
O3    O     O_3   0.151132 0.907431 0.521827 -0.630512
O4    O     O_3   0.154856 0.911775 0.712346 -0.636420
O5    O     O_3   0.242788 0.594487 0.651713 -0.595381
O6    O     O_3   0.798349 0.596824 0.246964 -0.647491
O7    O     O_3   0.744966 0.094644 0.652123 -0.595572
O8    O     O_3   0.298809 0.099522 0.274176 -0.578745
O9    O     O_3   0.238418 0.398506 0.662746 -0.629126
O10   O     O_3   0.798942 0.402458 0.307560 -0.617466
O11   O     O_3   0.739172 0.898644 0.662308 -0.630593
O12   O     O_3   0.763288 0.740279 0.205100 -0.597406
O13   O     O_3   0.298175 0.902566 0.310943 -0.613967
O14   O     O_3   0.257172 0.654828 0.812531 -0.619194
O15   O     O_3   0.618517 0.681573 0.159215 -0.625975
O16   O     O_3   0.756078 0.154039 0.812749 -0.614847
O17   O     O_3   0.150981 0.171604 0.188942 -0.561612
O18   O     O_3   0.612905 0.137944 0.861079 -0.619625
O19   O     O_3   0.274083 0.235418 0.206780 -0.599499
O20   O     O_3   0.830700 0.310982 0.148853 -0.601799
O21   O     O_3   0.110139 0.344316 0.809065 -0.621841
O22   O     O_3   0.332158 0.814851 0.142405 -0.602488
O23   O     O_3   0.610982 0.841551 0.801522 -0.623358
O24   O     O_3   0.630707 0.402236 0.512376 -0.615355

loop_
_geom_bond_atom_site_label_1
_geom_bond_atom_site_label_2
_ccdc_geom_bond_type
C6    O3    S    
C48   C55   A    
C113  H61   S    
N3    Ni4   S    
C16   H111  S    
C6    H83   S    
N4    Ni3   S    
C13   C90   A    
C69   C72   A    
C48   O20   S    
C4    H76   S    
C39   H102  S    
C49   O21   S    
C101  N22   A    
C3    O23   S    
C10   O7    S    
N28   Ni5   S    
C19   H10   S    
C51   N27   A    
C3    H72   S    
C37   C64   A    
C28   H46   S    
C57   C62   A    
C77   C78   A    
C19   O16   S    
C26   C27   S    
N26   N27   A    
C22   C32   S    
C90   N11   A    
C15   H109  S    
C102  N24   A    
C79   N32   A    
C60   N31   A    
N3    N11   A    
C7    O4    S    
N21   N31   A    
C7    H86   S    
C3    H73   S    
C18   H9    S    
C104  C109  A    
C110  H49   S    
C93   N15   A    
N23   N25   A    
C112  H55   S    
C54   C63   A    
C54   H19   S    
C68   C74   A    
C56   C65   A    
C58   H28   S    
C13   C81   A    
C19   H12   S    
C25   C87   A    
C104  N26   A    
C85   O6    S    
C40   H36   S    
C103  H42   S    
N9    Ni5   S    
C42   C46   A    
C116  O22   S    
C92   O9    S    
C43   H17   S    
C35   C42   A    
C94   N16   A    
N22   Ni2   S    
C7    H87   S    
N31   Ni8   S    
C14   H105  S    
C17   H4    S    
N19   N29   A    
N5    Ni6   S    
C58   N29   A    
C53   C61   A    
C64   C84   S    
C18   O15   S    
C91   N13   A    
C33   H80   S    
C52   C54   A    
C68   C69   A    
C114  H62   S    
C76   O2    S    
C115  O21   S    
N8    Ni7   S    
C77   O3    S    
C59   N30   A    
C26   H44   S    
C103  C108  A    
N15   Ni2   S    
C30   H48   S    
C41   H2    S    
C90   H38   S    
C36   C63   A    
C67   H23   S    
C29   N12   A    
N1    N22   A    
C65   C95   S    
N6    N15   A    
C5    H79   S    
C99   O16   S    
C14   O10   S    
C112  H57   S    
C94   O11   S    
N2    Ni1   S    
C26   C31   D    
C51   C109  A    
C4    H75   S    
C73   C98   A    
C112  O18   S    
C20   H16   S    
N30   Ni7   S    
N8    N17   A    
C102  H41   S    
N12   Ni2   S    
C115  H65   S    
C45   C105  S    
C38   O19   S    
C35   O1    S    
C82   N4    A    
C11   H99   S    
C101  C105  A    
C4    H77   S    
C11   O8    S    
C116  H71   S    
C115  H67   S    
C50   C53   A    
C57   H27   S    
C15   H110  S    
C85   N6    A    
C83   N5    A    
C9    O6    S    
N10   Ni6   S    
C2    C80   A    
C59   C84   A    
C38   C41   A    
N32   Ni2   S    
C100  N21   A    
C70   C106  S    
C16   H3    S    
C9    H93   S    
C97   N18   A    
C6    H82   S    
C40   N23   A    
C30   C34   D    
C95   C100  A    
N6    Ni5   S    
C5    H81   S    
C63   C73   S    
C101  H40   S    
C69   H26   S    
C116  H70   S    
C100  O17   S    
C24   C34   S    
C87   N8    A    
C23   C93   A    
C79   C106  A    
C111  H53   S    
C37   O18   S    
C23   C31   S    
N29   Ni6   S    
C2    C89   A    
C75   C76   A    
C4    O24   S    
C91   H39   S    
C72   C77   A    
C24   C94   A    
C62   C97   A    
C88   C106  A    
C110  H51   S    
C10   H95   S    
C89   H37   S    
C66   C71   A    
C66   H22   S    
C38   C65   A    
C8    H88   S    
C9    H94   S    
C61   C62   S    
C29   H25   S    
C55   C64   A    
N9    N32   A    
C45   C49   A    
C5    O2    S    
N13   Ni8   S    
N11   Ni7   S    
C102  C107  A    
C35   C61   A    
N16   Ni3   S    
C1    H1    S    
C21   C82   A    
C8    H90   S    
C93   O10   S    
C82   H34   S    
N24   Ni1   S    
C113  H60   S    
N20   N30   A    
C17   O14   S    
C32   H69   S    
N25   Ni4   S    
C17   H5    S    
C51   H47   S    
N26   Ni3   S    
N12   N24   A    
C43   C47   A    
C78   O4    S    
C81   N3    A    
C103  N25   A    
C88   H35   S    
C98   N19   A    
N2    N10   A    
C50   O22   S    
C87   O8    S    
C15   H108  S    
C20   H15   S    
C16   O13   S    
C2    C71   S    
C59   H29   S    
C12   H101  S    
C96   O13   S    
C115  H66   S    
C21   C91   A    
C44   C107  S    
C10   H96   S    
N7    Ni8   S    
C47   C108  S    
C46   C50   A    
C3    H74   S    
C22   C92   A    
C12   H103  S    
C27   C32   D    
C98   O15   S    
C84   C99   A    
C89   N10   A    
C14   H106  S    
C36   O12   S    
C53   H18   S    
C8    O5    S    
C80   N2    A    
C75   O24   S    
C9    H92   S    
C71   C76   A    
C28   C33   D    
C110  O1    S    
C79   H31   S    
C15   O11   S    
C10   H97   S    
C47   C52   A    
N20   Ni8   S    
C13   C72   S    
N1    Ni1   S    
C34   H91   S    
C24   C86   A    
C49   C56   A    
C11   H100  S    
C16   H112  S    
C114  H64   S    
C86   N7    A    
C1    C105  A    
C40   C108  A    
C67   C70   A    
C111  O12   S    
N21   Ni7   S    
C111  H54   S    
C28   C30   S    
C96   N17   A    
C39   C44   A    
C23   C85   A    
N4    N13   A    
C7    H85   S    
C44   C48   A    
C83   O5    S    
C97   O14   S    
C86   O7    S    
C22   C83   A    
C6    H84   S    
C56   H21   S    
C110  H50   S    
C114  O20   S    
C112  H56   S    
N18   N28   A    
C27   H45   S    
C57   N28   A    
N5    N14   A    
C81   H33   S    
C88   N9    A    
C21   C74   S    
C19   H11   S    
N14   Ni1   S    
C14   H107  S    
C66   C67   A    
C42   H13   S    
C20   O17   S    
C8    H89   S    
N7    N16   A    
C68   H24   S    
C11   H98   S    
N19   Ni5   S    
C60   C95   A    
C1    N1    A    
C17   H6    S    
C80   H32   S    
C60   H30   S    
N27   Ni4   S    
C58   C73   A    
C25   C96   A    
C37   C39   A    
C114  H63   S    
C74   C78   A    
C46   C109  S    
C25   C33   S    
C70   C75   A    
C41   C45   A    
C113  H59   S    
C29   C107  A    
C36   C43   A    
C116  H68   S    
C111  H52   S    
C104  H43   S    
C18   H8    S    
C99   N20   A    
N18   Ni6   S    
N17   Ni4   S    
C92   N14   A    
C12   O9    S    
C12   H104  S    
C52   O23   S    
C113  O19   S    
C55   H20   S    
C18   H7    S    
N23   Ni3   S    
C5    H78   S    
C20   H14   S    
C31   H58   S    
