data_mof_unit_41140.cif
_audit_creation_date              2012-12-10T17:31:04-0500
_audit_creation_method            fapswitch 2.2
_symmetry_space_group_name_H-M    P1
_symmetry_Int_Tables_number       1
_space_group_crystal_system       triclinic
_cell_length_a                    12.01876
_cell_length_b                    12.814884
_cell_length_c                    15.426892
_cell_angle_alpha                 86.599751
_cell_angle_beta                  115.775184
_cell_angle_gamma                 95.145649
_cell_volume                      2130.46695072

loop_
_atom_site_label
_atom_site_type_symbol
_atom_type_description
_atom_site_fract_x
_atom_site_fract_y
_atom_site_fract_z
_atom_type_partial_charge
Br1   Br    Br    0.910420 0.493278 0.182757 -0.426466
Br2   Br    Br    0.768060 0.053628 0.452277 -0.479875
Br3   Br    Br    0.215982 0.761439 0.878649 -0.427156
Br4   Br    Br    0.181273 0.648008 0.216930 -0.435785
Br5   Br    Br    0.836203 0.381240 0.799204 -0.450363
Br6   Br    Br    0.894852 0.339596 0.024094 -0.321431
Br7   Br    Br    0.065661 0.627666 0.979447 -0.314305
Br8   Br    Br    0.430983 0.805988 0.635922 -0.501991
Br9   Br    Br    0.548893 0.204256 0.343211 -0.418259
Br10  Br    Br    0.208243 0.947207 0.513578 -0.501214
C1    C     C_R   0.472254 0.299376 0.492827 0.951490
C2    C     C_R   0.628434 0.978016 0.464585 0.284143
C3    C     C_R   0.354479 0.131833 0.501759 0.086924
C4    C     C_R   0.634100 0.869644 0.482346 0.090814
C5    C     C_R   0.514355 0.134839 0.444990 0.258041
C6    C     C_R   0.470571 0.868456 0.534792 0.259127
C7    C     C_R   0.530660 0.028587 0.469070 -0.085128
C8    C     C_R   0.451132 0.972746 0.505610 -0.083031
C9    C     C_R   0.023430 0.622134 0.435894 0.130913
C10   C     C_R   0.983290 0.383131 0.573859 0.135569
C11   C     C_R   0.139857 0.606004 0.438949 0.119462
C12   C     C_R   0.526286 0.701187 0.504555 0.957265
C13   C     C_R   0.862940 0.396443 0.565437 0.082066
C14   C     C_R   0.152153 0.447059 0.527362 -0.068100
C15   C     C_R   0.850749 0.554976 0.476282 -0.067800
C16   C     C_R   0.576440 0.492428 0.681195 0.934656
C17   C     C_R   0.423326 0.508443 0.319099 0.936310
C18   C     C_R   0.035443 0.457789 0.527456 -0.018755
C19   C     C_R   0.969503 0.545976 0.479636 -0.023748
C20   C     C_R   0.624787 0.487727 0.787256 -0.201038
C21   C     C_R   0.375251 0.526827 0.214371 -0.202174
C22   C     C_R   0.770795 0.436301 0.949729 0.335682
C23   C     C_R   0.653578 0.525531 0.121697 0.127889
C24   C     C_R   0.237411 0.604605 0.060927 0.332202
C25   C     C_R   0.735929 0.442845 0.849533 0.237046
C26   C     C_R   0.270223 0.583320 0.159213 0.247037
C27   C     C_R   0.550343 0.523792 0.825626 -0.223737
C28   C     C_R   0.445552 0.496097 0.170579 -0.186488
C29   C     C_R   0.587563 0.526963 0.924569 0.032480
C30   C     C_R   0.433311 0.541767 0.082763 0.012100
C31   C     C_R   0.701063 0.484860 0.989028 -0.084902
C32   C     C_R   0.326386 0.595576 0.024691 -0.097828
C33   C     C_R   0.507051 0.562785 0.959761 -0.011222
C34   C     C_R   0.412151 0.631113 0.907383 0.092130
C35   C     C_R   0.529468 0.537178 0.054482 -0.011252
C36   C     C_3   0.989067 0.772741 0.320138 -0.658620
C37   C     C_3   0.999036 0.219028 0.673398 -0.657930
C38   C     C_3   0.687908 0.676633 0.219240 -0.699959
C39   C     C_3   0.518519 0.788415 0.876040 -0.561767
C40   C     C_3   0.836391 0.807049 0.576225 -0.601610
C41   C     C_3   0.154883 0.204612 0.422776 -0.566163
C42   C     C_R   0.739493 0.496082 0.089476 0.266275
C43   C     C_R   0.321451 0.647534 0.939398 0.258694
C44   C     C_R   0.546283 0.814683 0.508485 -0.213864
C45   C     C_R   0.445443 0.187374 0.479363 -0.221505
C46   C     C_R   0.353685 0.022869 0.510481 0.294697
H1    H     H_    0.819406 0.340806 0.598420 0.170684
H2    H     H_    0.084504 0.810306 0.350450 0.273215
H3    H     H_    0.144879 0.317613 0.671904 0.225481
H4    H     H_    0.062405 0.154976 0.704987 0.255724
H5    H     H_    0.909627 0.184196 0.619399 0.272325
H6    H     H_    0.985821 0.254224 0.731975 0.264481
H7    H     H_    0.773409 0.535832 0.269966 0.275477
H8    H     H_    0.719945 0.701356 0.294231 0.235983
H9    H     H_    0.591278 0.699172 0.179080 0.244750
H10   H     H_    0.745424 0.719444 0.186761 0.251034
H11   H     H_    0.346099 0.719742 0.778658 0.295246
H12   H     H_    0.184691 0.663793 0.408843 0.179614
H13   H     H_    0.588833 0.786688 0.847754 0.261052
H14   H     H_    0.567271 0.784785 0.956093 0.219269
H15   H     H_    0.473753 0.863822 0.853928 0.260864
H16   H     H_    0.760359 0.841332 0.428654 0.251522
H17   H     H_    0.904425 0.756767 0.572480 0.219586
H18   H     H_    0.803898 0.770071 0.628912 0.254325
H19   H     H_    0.883528 0.885196 0.602311 0.265277
H20   H     H_    0.239069 0.155509 0.566557 0.264822
H21   H     H_    0.088506 0.247437 0.437016 0.236576
H22   H     H_    0.106967 0.129696 0.388129 0.262346
H23   H     H_    0.519161 0.444759 0.210065 0.217039
H24   H     H_    0.182831 0.252820 0.372302 0.253713
H25   H     H_    0.459167 0.546267 0.776645 0.210063
H26   H     H_    0.797987 0.620999 0.440314 0.156972
H27   H     H_    0.205779 0.381136 0.562797 0.151978
H28   H     H_    0.955630 0.763208 0.442825 0.252001
H29   H     H_    0.924016 0.835562 0.288460 0.245691
H30   H     H_    0.975876 0.719098 0.262066 0.287527
N1    N     N_R   0.799120 0.480200 0.517090 -0.112533
N2    N     N_R   0.200880 0.519800 0.482910 -0.115664
N3    N     N_2   0.963488 0.716081 0.394304 -0.339713
N4    N     N_2   0.052922 0.297336 0.628577 -0.320192
N5    N     N_2   0.694732 0.564457 0.216501 -0.299431
N6    N     N_2   0.426308 0.701442 0.837424 -0.299339
N7    N     N_2   0.733439 0.816984 0.481989 -0.306621
N8    N     N_2   0.262077 0.185144 0.512401 -0.301064
O1    O     O_R   0.580150 0.341050 0.504560 -0.595265
O2    O     O_R   0.419850 0.658950 0.495440 -0.589876
O3    O     O_R   0.388090 0.353760 0.493600 -0.607157
O4    O     O_R   0.611910 0.646240 0.506400 -0.607287
O5    O     O_R   0.650890 0.490020 0.640860 -0.574391
O6    O     O_R   0.349110 0.509980 0.359140 -0.571798
O7    O     O_R   0.458830 0.502730 0.629890 -0.618563
O8    O     O_R   0.541170 0.497270 0.370110 -0.602425
Zn1   Zn    Zn3+2 0.628240 0.491510 0.507320 1.003474
Zn2   Zn    Zn3+2 0.371760 0.508490 0.492680 1.003659

loop_
_geom_bond_atom_site_label_1
_geom_bond_atom_site_label_2
_ccdc_geom_bond_type
Br6   C22   S    
Br4   C26   S    
C12   O4    A    
C23   C35   A    
O5    Zn1   S    
C24   C32   A    
O6    Zn2   S    
Br2   C2    S    
C37   H6    S    
C12   C44   S    
C36   N3    S    
C23   C42   A    
C20   C25   A    
C18   C19   A    
C9    C11   A    
C14   H27   S    
C40   H18   S    
C32   C43   A    
C38   H8    S    
C28   H23   S    
O4    Zn1   S    
C15   N1    A    
C13   H1    S    
C41   H24   S    
H20   N8    S    
C37   H4    S    
C34   C43   A    
C38   N5    S    
C2    C7    A    
C22   C31   A    
C38   H9    S    
Br10  C46   S    
C31   C42   A    
C34   N6    S    
C8    C46   A    
C16   O5    A    
C3    C46   A    
C30   C32   A    
C11   N2    A    
Br8   C6    S    
C39   H13   S    
C36   H2    S    
C27   H25   S    
N2    Zn2   S    
O1    Zn1   S    
C15   C19   A    
C30   C35   A    
C17   O6    A    
C17   C21   S    
C22   C25   A    
C29   C31   A    
C40   H17   S    
C29   C33   A    
C10   C18   A    
C10   N4    S    
C20   C27   A    
H3    N4    S    
C5    C45   A    
C33   C34   A    
C41   H21   S    
C9    N3    S    
C33   C35   A    
C10   C13   A    
C7    C8    A    
C14   N2    A    
N1    Zn1   S    
H16   N7    S    
C4    C44   A    
C2    C4    A    
C16   C20   S    
O7    Zn2   S    
C39   H14   S    
O2    Zn2   S    
C11   H12   S    
C15   H26   S    
C37   N4    S    
H28   N3    S    
C39   N6    S    
C9    C19   A    
C1    C45   S    
C1    O1    A    
C5    C7    A    
C16   O7    A    
C4    N7    S    
C12   O2    A    
C14   C18   A    
C3    C45   A    
C37   H5    S    
C40   N7    S    
C17   O8    A    
C21   C28   A    
C3    N8    S    
C1    O3    A    
C36   H29   S    
C23   N5    S    
Br9   C5    S    
C41   H22   S    
C27   C29   A    
C40   H19   S    
C28   C30   A    
Br3   C43   S    
Br5   C25   S    
H11   N6    S    
Br7   C24   S    
C24   C26   A    
O8    Zn1   S    
Br1   C42   S    
C6    C44   A    
O3    Zn2   S    
C41   N8    S    
C6    C8    A    
C39   H15   S    
H7    N5    S    
C21   C26   A    
C13   N1    A    
C38   H10   S    
C36   H30   S    
