data_mof_unit_63059.cif
_audit_creation_date              2012-12-10T21:14:45-0500
_audit_creation_method            fapswitch 2.2
_symmetry_space_group_name_H-M    P1
_symmetry_Int_Tables_number       1
_space_group_crystal_system       triclinic
_cell_length_a                    17.600633
_cell_length_b                    16.798696
_cell_length_c                    11.561055
_cell_angle_alpha                 90.000154
_cell_angle_beta                  90.838184
_cell_angle_gamma                 89.999919
_cell_volume                      3417.86458618

loop_
_atom_site_label
_atom_site_type_symbol
_atom_type_description
_atom_site_fract_x
_atom_site_fract_y
_atom_site_fract_z
_atom_type_partial_charge
C1    C     C_R   0.353291 0.500000 0.499821 0.876436
C2    C     C_R   0.113659 0.500000 0.503710 0.161815
C3    C     C_1   0.966361 0.500000 0.505823 -0.062824
C4    C     C_1   0.033748 0.500000 0.505161 -0.062814
C5    C     C_R   0.499844 0.500000 0.281513 0.924119
C6    C     C_R   0.500156 0.500000 0.718487 0.924029
C7    C     C_R   0.451381 0.832784 0.426180 -0.296245
C8    C     C_R   0.548615 0.167212 0.573810 -0.296240
C9    C     C_R   0.548615 0.832788 0.573810 -0.296240
C10   C     C_R   0.451381 0.167216 0.426180 -0.296245
C11   C     C_R   0.452037 0.748642 0.427169 0.110899
C12   C     C_R   0.646712 0.500000 0.500426 0.876162
C13   C     C_R   0.547954 0.251353 0.572841 0.111019
C14   C     C_R   0.547954 0.748647 0.572841 0.111018
C15   C     C_R   0.452037 0.251358 0.427169 0.110898
C16   C     C_1   0.500001 0.963522 0.499984 -0.030743
C17   C     C_1   0.500001 0.036478 0.499984 -0.030743
C18   C     C_1   0.499844 0.500000 0.161250 -0.171764
C19   C     C_1   0.500155 0.500000 0.838750 -0.171570
C20   C     C_1   0.499926 0.500000 0.059236 0.012137
C21   C     C_1   0.500073 0.500000 0.940764 0.012163
C22   C     C_R   0.500001 0.875872 0.499987 0.136846
C23   C     C_R   0.768940 0.572454 0.503076 -0.186033
C24   C     C_R   0.500001 0.124128 0.499987 0.136846
C25   C     C_R   0.847675 0.572333 0.504893 -0.161831
C26   C     C_R   0.152394 0.427666 0.502750 -0.161972
C27   C     C_R   0.152394 0.572334 0.502738 -0.161972
C28   C     C_R   0.847675 0.427666 0.504903 -0.161831
C29   C     C_1   0.401217 0.706907 0.349832 0.214388
C30   C     C_1   0.598729 0.293081 0.650254 0.214094
C31   C     C_1   0.598729 0.706919 0.650254 0.214095
C32   C     C_1   0.401217 0.293092 0.349832 0.214389
C33   C     C_R   0.231098 0.427545 0.501119 -0.186421
C34   C     C_R   0.231097 0.572455 0.501109 -0.186420
C35   C     C_R   0.768940 0.427546 0.503085 -0.186031
C36   C     C_R   0.729206 0.500000 0.502054 -0.035044
C37   C     C_R   0.270816 0.500000 0.500443 -0.034833
C38   C     C_R   0.886428 0.500000 0.505699 0.161735
H1    H     H_    0.413077 0.864418 0.368007 0.147071
H2    H     H_    0.260655 0.370997 0.500648 0.162596
H3    H     H_    0.260654 0.629003 0.500632 0.162597
H4    H     H_    0.739378 0.370998 0.502324 0.162625
H5    H     H_    0.586911 0.135574 0.631992 0.147059
H6    H     H_    0.586911 0.864426 0.631992 0.147059
H7    H     H_    0.413077 0.135581 0.368007 0.147071
H8    H     H_    0.878262 0.628339 0.505333 0.136451
H9    H     H_    0.121819 0.371660 0.503343 0.136463
H10   H     H_    0.121818 0.628340 0.503321 0.136463
H11   H     H_    0.878263 0.371661 0.505353 0.136451
H12   H     H_    0.739377 0.629002 0.502310 0.162624
N1    N     N_R   0.500000 0.707230 0.500000 -0.128707
N2    N     N_R   0.500000 0.292770 0.500000 -0.128707
N3    N     N_1   0.360168 0.673717 0.287325 -0.214130
N4    N     N_1   0.639736 0.326264 0.712833 -0.214181
N5    N     N_1   0.639736 0.673736 0.712833 -0.214179
N6    N     N_1   0.360168 0.326283 0.287326 -0.214127
O1    O     O_R   0.389110 0.566570 0.499990 -0.624331
O2    O     O_R   0.610890 0.433430 0.500010 -0.624301
O3    O     O_R   0.610890 0.566570 0.500010 -0.624301
O4    O     O_R   0.389110 0.433430 0.499990 -0.624331
O5    O     O_R   0.500000 0.566540 0.334450 -0.612408
O6    O     O_R   0.500000 0.433460 0.665550 -0.612458
O7    O     O_R   0.500000 0.566540 0.665550 -0.612457
O8    O     O_R   0.500000 0.433460 0.334450 -0.612408
Zn1   Zn    Zn3+2 0.500000 0.588860 0.500000 0.965612
Zn2   Zn    Zn3+2 0.500000 0.411140 0.500000 0.965612

loop_
_geom_bond_atom_site_label_1
_geom_bond_atom_site_label_2
_ccdc_geom_bond_type
C27   H10   S    
C6    O7    A    
C2    C4    S    
C9    C14   A    
O7    Zn1   S    
C8    C13   A    
C8    C24   A    
C1    C37   S    
C25   C38   A    
C12   C36   S    
C34   C37   A    
C28   H11   S    
C26   C33   A    
C14   N1    A    
C8    H5    S    
C28   C38   A    
C14   C31   S    
C5    O8    A    
C12   O2    A    
C6    O6    A    
C10   H7    S    
C5    O5    A    
C15   C32   S    
C2    C26   A    
C15   N2    A    
O3    Zn1   S    
C7    C11   A    
C6    C19   S    
C30   N4    T    
O8    Zn2   S    
C2    C27   A    
C34   H3    S    
C29   N3    T    
C26   H9    S    
C7    C22   A    
C19   C21   T    
O2    Zn2   S    
C18   C20   T    
C10   C15   A    
C23   C25   A    
C27   C34   A    
C9    C22   A    
C17   C24   S    
C11   N1    A    
O6    Zn2   S    
O4    Zn2   S    
C3    C4    T    
C13   N2    A    
O5    Zn1   S    
C13   C30   S    
N2    Zn2   S    
C20   C21   S    
C11   C29   S    
C10   C24   A    
C23   C36   A    
N1    Zn1   S    
C1    O4    A    
O1    Zn1   S    
C28   C35   A    
C35   H4    S    
C33   H2    S    
C9    H6    S    
C7    H1    S    
C5    C18   S    
C31   N5    T    
C12   O3    A    
C25   H8    S    
C32   N6    T    
C33   C37   A    
C35   C36   A    
C3    C38   S    
C16   C22   S    
C16   C17   T    
C23   H12   S    
C1    O1    A    
