data_mof_unit_18172.cif
_audit_creation_date              2013-03-05T16:44:41-0500
_audit_creation_method            fapswitch 2.2
_symmetry_space_group_name_H-M    P1
_symmetry_Int_Tables_number       1
_space_group_crystal_system       triclinic
_cell_length_a                    27.743668
_cell_length_b                    10.640813
_cell_length_c                    9.845577
_cell_angle_alpha                 90.013835
_cell_angle_beta                  89.833692
_cell_angle_gamma                 89.866405
_cell_volume                      2906.54358222

loop_
_atom_site_label
_atom_site_type_symbol
_atom_site_description
_atom_site_fract_x
_atom_site_fract_y
_atom_site_fract_z
_atom_type_partial_charge
O1    O     O_R   0.500010 0.316790 0.614690 -0.616346
O2    O     O_R   0.500000 0.316760 0.385350 -0.621338
C1    C     C_R   0.497972 0.259912 0.500062 0.881951
O3    O     O_R   0.428760 0.500040 0.614660 -0.583531
O4    O     O_R   0.428750 0.500000 0.385310 -0.638404
C2    C     C_R   0.406181 0.498834 0.499895 0.900117
Zn1   Zn    Zn3+2 0.500000 0.500020 0.653130 0.962339
Zn2   Zn    Zn3+2 0.500000 0.499980 0.346870 0.977707
O5    O     O_R   0.500000 0.683240 0.614650 -0.626055
O6    O     O_R   0.499990 0.683210 0.385310 -0.633810
O7    O     O_R   0.571250 0.500000 0.614690 -0.629878
O8    O     O_R   0.571240 0.499960 0.385340 -0.543343
C3    C     C_R   0.498057 0.740176 0.500041 0.878252
C4    C     C_R   0.594058 0.500132 0.499775 0.921338
C5    C     C_R   0.177714 0.385917 0.468864 0.512718
O9    O     O_2   0.202456 0.277868 0.450028 -0.565414
N1    N     N_R   0.201879 0.496429 0.487301 -0.341417
C6    C     C_R   0.177943 0.608046 0.502523 0.550478
C7    C     C_R   0.279424 0.563047 0.393116 -0.090329
C8    C     C_R   0.329400 0.564072 0.397437 -0.301637
C9    C     C_R   0.327776 0.422846 0.592008 0.491946
C10   C     C_R   0.277542 0.426008 0.590035 -0.187752
C11   C     C_R   0.253363 0.495377 0.490356 0.228894
C12   C     C_R   0.101881 0.498388 0.484314 -0.060636
C13   C     C_R   0.127306 0.384618 0.468402 -0.003454
C14   C     C_R   0.102061 0.272207 0.453242 -0.129343
C15   C     C_R   0.127561 0.611296 0.499335 -0.112625
C16   C     C_R   0.353783 0.496116 0.498058 -0.149561
H1    H     H_    0.257316 0.372738 0.664529 0.171396
H2    H     H_    0.120827 0.183270 0.442981 0.194967
C17   C     C_R   0.646870 0.500324 0.499903 -0.194423
C18   C     C_R   0.974538 0.387176 0.459827 0.075218
C19   C     C_R   0.975208 0.609980 0.527478 -0.025059
C20   C     C_R   0.949586 0.499003 0.495727 0.072684
C21   C     C_R   0.947520 0.280973 0.420271 -0.222057
C22   C     C_R   0.897605 0.283000 0.422352 -0.148238
C23   C     C_R   0.872832 0.390789 0.463847 0.011475
C24   C     C_R   0.898584 0.499338 0.501526 -0.123315
C25   C     C_R   0.873309 0.607857 0.544819 -0.145508
C26   C     C_R   0.822613 0.605142 0.545704 0.554872
N2    N     N_R   0.798762 0.499052 0.506652 -0.350637
C27   C     C_R   0.822546 0.392784 0.467270 0.518680
C28   C     C_R   0.721619 0.498843 0.626583 -0.087318
C29   C     C_R   0.671577 0.499087 0.624401 -0.287569
C30   C     C_R   0.673220 0.501655 0.377273 0.615383
C31   C     C_R   0.723283 0.501401 0.380331 -0.182346
C32   C     C_R   0.747414 0.499850 0.504634 0.214903
O10   O     O_2   0.797425 0.289356 0.431829 -0.553625
C33   C     C_R   0.025506 0.384973 0.465289 0.069661
C34   C     C_R   0.050896 0.499112 0.485761 0.015220
C35   C     C_R   0.025808 0.613868 0.507614 -0.059652
C36   C     C_R   0.052098 0.272074 0.452041 -0.214568
H3    H     H_    0.652320 0.498097 0.720241 0.202353
H4    H     H_    0.740427 0.497467 0.722808 0.165738
H5    H     H_    0.878482 0.199205 0.391075 0.177700
H6    H     H_    0.963879 0.195457 0.383663 0.133050
H7    H     H_    0.035346 0.181118 0.444478 0.153918
O11   O     O_2   0.202874 0.715327 0.522085 -0.556906
C37   C     C_R   0.102682 0.725147 0.507358 -0.215233
H8    H     H_    0.349054 0.618717 0.322835 0.177991
H9    H     H_    0.260855 0.615490 0.314783 0.163338
H10   H     H_    0.121982 0.813518 0.511019 0.212262
C38   C     C_R   0.949573 0.711869 0.583727 -0.266303
C39   C     C_R   0.899314 0.714686 0.586558 0.530262
O12   O     O_2   0.797070 0.707524 0.583301 -0.489602
C40   C     C_R   0.052545 0.728255 0.505357 0.504977
H11   H     H_    0.967852 0.789177 0.631893 0.222838
H12   H     H_    0.743509 0.502535 0.286079 0.169555
C41   C     C_R   0.487064 0.064305 0.623501 0.103911
C42   C     C_R   0.488773 0.128928 0.500664 -0.104147
C43   C     C_R   0.480200 0.065106 0.378474 -0.222496
H13   H     H_    0.477415 0.114178 0.282430 0.168573
C44   C     C_R   0.480289 0.935211 0.378464 -0.217779
H14   H     H_    0.477513 0.886094 0.282409 0.169390
C45   C     C_R   0.488930 0.871381 0.500664 -0.093271
C46   C     C_R   0.487151 0.936153 0.623509 0.135801
C47   C     C_3   0.519516 0.929077 0.744492 -0.482106
C48   C     C_3   0.519435 0.071511 0.744427 -0.452391
H15   H     H_    0.500982 0.888167 0.834390 0.199788
H16   H     H_    0.555372 0.887539 0.720482 0.210066
H17   H     H_    0.500914 0.112714 0.834319 0.197459
H18   H     H_    0.555238 0.112830 0.720276 0.216068
C49   C     C_R   0.480895 0.401153 0.071609 0.221271
N3    N     N_R   0.499670 0.499140 0.142800 -0.108575
C50   C     C_R   0.522982 0.591451 0.071861 -0.076743
H19   H     H_    0.540764 0.666485 0.126167 0.159544
C51   C     C_R   0.523042 0.591355 0.927742 -0.126069
H20   H     H_    0.540987 0.666069 0.873178 0.148721
N4    N     N_R   0.499670 0.499180 0.857150 -0.109133
C52   C     C_R   0.480811 0.401296 0.928917 0.186143
C53   C     C_3   0.429834 0.357861 0.924531 -0.431126
C54   C     C_3   0.430079 0.356872 0.078615 -0.534436
H21   H     H_    0.405220 0.430084 0.881681 0.259339
H22   H     H_    0.426649 0.262531 0.879571 0.205465
H23   H     H_    0.405319 0.427612 0.124303 0.228827
H24   H     H_    0.427294 0.260903 0.122405 0.198854
O13   O     O_3   0.351081 0.348028 0.685832 -0.622079
C55   C     C_3   0.357882 0.227963 0.627937 -0.289849
H25   H     H_    0.381270 0.232533 0.535995 0.146828
H26   H     H_    0.322818 0.182977 0.602909 0.189268
H27   H     H_    0.376305 0.166915 0.702935 0.184387
F1    F     F_    0.650976 0.503253 0.254637 -0.651327
O14   O     O_3   0.875984 0.818308 0.641207 -0.556412
C56   C     C_3   0.880376 0.920379 0.550417 -0.206071
H28   H     H_    0.857579 0.998829 0.588114 0.211130
H29   H     H_    0.867364 0.895452 0.446929 0.158811
H30   H     H_    0.918102 0.955197 0.545463 0.144286
O15   O     O_3   0.030806 0.844947 0.496230 -0.629744
C57   C     C_3   0.020995 0.870082 0.358417 -0.343994
H31   H     H_    0.996157 0.798971 0.314274 0.175919
H32   H     H_    0.054882 0.875218 0.297787 0.179551
H33   H     H_    0.002850 0.962844 0.351367 0.181398

loop_
_geom_bond_atom_site_label_1
_geom_bond_atom_site_label_2
_geom_bond_distance
_ccdc_geom_bond_type
C39   O14   1.385138 S    
C51   H20   1.081199 S    
C10   H1    1.083237 S    
N2    C27   1.363538 A    
C21   C22   1.385051 A    
C12   C15   1.406204 A    
C4    C17   1.465190 S    
C45   C46   1.392633 A    
C56   H29   1.114129 S    
O13   C55   1.410907 S    
C47   C48   1.515616 S    
Zn1   O7    2.011561 S    
C25   C39   1.409579 A    
N1    C11   1.428771 S    
C22   C23   1.396168 A    
C57   H32   1.113633 S    
C37   C40   1.391514 A    
C24   C25   1.414592 A    
O7    C4    1.294742 A    
C5    C13   1.398629 A    
C5    O9    1.350168 S    
Zn1   N4    2.008711 S    
C54   H24   1.111328 S    
O15   C57   1.410200 S    
C41   C46   1.363638 A    
C5    N1    1.367310 A    
C44   H14   1.083440 S    
C23   C27   1.395517 A    
O5    C3    1.282091 A    
C29   H3    1.083065 S    
C6    O11   1.350180 S    
C2    C16   1.454241 S    
C3    C45   1.418333 S    
C42   C43   1.402522 A    
C8    H8    1.083646 S    
C19   C38   1.407765 A    
C50   C51   1.418931 A    
O1    Zn1   1.986020 S    
C9    C10   1.394195 A    
C44   C45   1.402715 A    
C41   C48   1.495459 S    
O3    Zn1   2.013503 S    
C56   H28   1.109356 S    
C19   C20   1.415101 A    
C47   H15   1.111707 S    
C12   C34   1.414555 A    
C38   H11   1.077932 S    
C17   C29   1.406191 A    
C6    C15   1.398583 A    
C18   C21   1.412807 A    
C1    C42   1.417556 S    
C12   C13   1.408174 A    
O3    C2    1.293613 A    
C36   H7    1.077292 S    
C57   H33   1.109257 S    
C53   C54   1.517122 S    
C43   C44   1.382184 A    
C8    C16   1.401398 A    
C34   C35   1.420158 A    
C13   C14   1.395715 A    
C50   H19   1.081609 S    
C54   H23   1.111956 S    
O1    C1    1.281942 A    
C35   C40   1.427011 A    
C18   C20   1.419372 A    
C7    C11   1.398795 A    
C28   C29   1.388574 A    
C31   H12   1.083136 S    
C23   C24   1.409758 A    
C49   C54   1.488946 S    
C14   C36   1.386226 A    
C53   H21   1.110990 S    
C9    O13   1.380800 S    
C48   H18   1.112317 S    
C28   H4    1.082988 S    
C49   N3    1.361637 A    
Zn2   O8    2.013503 S    
C33   C36   1.414132 A    
N1    C6    1.367373 A    
N2    C32   1.424784 S    
C27   O10   1.350390 S    
C46   C47   1.495568 S    
C26   N2    1.365591 A    
C9    C16   1.408254 A    
O8    C4    1.293954 A    
C14   H2    1.083622 S    
C55   H26   1.113432 S    
C26   O12   1.349351 S    
C51   N4    1.367762 A    
C17   C30   1.409711 A    
C25   C26   1.406873 A    
C47   H16   1.112358 S    
Zn1   O5    1.986168 S    
C49   C52   1.404888 A    
C31   C32   1.396768 A    
C37   H10   1.083829 S    
C21   H6    1.077434 S    
C20   C24   1.415970 A    
O2    Zn2   1.986169 S    
N3    C50   1.368082 A    
C40   O15   1.382209 S    
O6    C3    1.282752 A    
O4    Zn2   2.011563 S    
C19   C35   1.417534 A    
C55   H27   1.108748 S    
C7    C8    1.387348 A    
O2    C1    1.282480 A    
C43   H13   1.083172 S    
C22   H5    1.083678 S    
C15   C37   1.395006 A    
C57   H31   1.113705 S    
C53   H22   1.110488 S    
C48   H17   1.111607 S    
C52   C53   1.489666 S    
O4    C2    1.288750 A    
C7    H9    1.082955 S    
C55   H25   1.113357 S    
C41   C42   1.392111 A    
C18   C33   1.415360 A    
C30   F1    1.357684 S    
C38   C39   1.394799 A    
C30   C31   1.389333 A    
Zn2   O6    1.986018 S    
C33   C34   1.420066 A    
Zn2   N3    2.009252 S    
O14   C56   1.412086 S    
C10   C11   1.399945 A    
N4    C52   1.363315 A    
C28   C32   1.396031 A    
C56   H30   1.112048 S    
