data_mof_unit_12072.cif
_audit_creation_date              2012-12-10T17:18:13-0500
_audit_creation_method            fapswitch 2.2
_symmetry_space_group_name_H-M    P1
_symmetry_Int_Tables_number       1
_space_group_crystal_system       triclinic
_cell_length_a                    10.120669
_cell_length_b                    10.859613
_cell_length_c                    14.944416
_cell_angle_alpha                 91.084306
_cell_angle_beta                  82.133103
_cell_angle_gamma                 95.452487
_cell_volume                      1619.64030248

loop_
_atom_site_label
_atom_site_type_symbol
_atom_type_description
_atom_site_fract_x
_atom_site_fract_y
_atom_site_fract_z
_atom_type_partial_charge
C1    C     C_R   0.556153 0.732508 0.495942 0.980804
C2    C     C_2   0.069812 0.483026 0.498787 -0.138774
C3    C     C_R   0.502233 0.503414 0.672513 1.035207
C4    C     C_R   0.498491 0.497047 0.327160 1.041352
C5    C     C_R   0.461470 0.386150 0.187681 0.379924
C6    C     C_R   0.500525 0.615862 0.815114 0.375290
C7    C     C_R   0.498208 0.496808 0.231463 -0.269973
C8    C     C_R   0.505807 0.504061 0.767373 -0.266512
C9    C     C_R   0.543172 0.606133 0.184493 0.337243
C10   C     C_R   0.512619 0.391691 0.809451 0.331653
C11   C     C_R   0.526822 0.611742 0.093096 -0.118568
C12   C     C_R   0.444039 0.267704 0.508432 0.974872
C13   C     C_R   0.488659 0.387995 0.904068 -0.126325
C14   C     C_R   0.499290 0.499368 0.046308 -0.063083
C15   C     C_R   0.500977 0.500749 0.952541 -0.059764
C16   C     C_R   0.472684 0.385408 0.092836 -0.040488
C17   C     C_R   0.515302 0.615004 0.906907 -0.047683
C18   C     C_R   0.539516 0.725584 0.046746 0.484670
C19   C     C_R   0.452878 0.275554 0.951191 0.484248
C20   C     C_3   0.302108 0.224613 0.236010 0.042849
C21   C     C_3   0.210047 0.260421 0.319587 -0.341573
C22   C     C_3   0.072202 0.188156 0.324304 -0.994010
C23   C     C_R   0.539800 0.725450 0.953901 -0.285260
C24   C     C_3   0.378344 0.782293 0.798069 0.065163
C25   C     C_3   0.270515 0.744352 0.737902 -0.330913
C26   C     C_3   0.153198 0.823836 0.756732 -1.004005
C27   C     C_3   0.735342 0.732502 0.201380 0.144786
C28   C     C_3   0.818025 0.650511 0.249858 -0.376319
C29   C     C_3   0.967313 0.689925 0.230013 -0.991235
C30   C     C_3   0.650932 0.237314 0.765751 0.152727
C31   C     C_3   0.760423 0.284916 0.690037 -0.352288
C32   C     C_3   0.888736 0.222171 0.691117 -0.994846
C33   C     C_3   0.423078 0.864895 0.136259 0.154788
C34   C     C_R   0.454354 0.274460 0.043993 -0.272985
C35   C     C_3   0.318557 0.877473 0.072095 -0.441978
C36   C     C_3   0.193741 0.930378 0.120852 -0.988802
C37   C     C_3   0.295002 0.171424 0.872031 0.142731
C38   C     C_3   0.177785 0.105865 0.933715 -0.415778
C39   C     C_3   0.044806 0.116245 0.898485 -0.958835
C40   C     C_2   0.588197 0.864447 0.500318 -0.338755
C41   C     C_2   0.412441 0.136295 0.519332 -0.361147
C42   C     C_2   0.487882 0.934921 0.522999 -0.149652
C43   C     C_2   0.513252 0.066564 0.521828 -0.125645
C44   C     C_2   0.926203 0.507690 0.510040 -0.139509
H1    H     H_    0.305735 0.122990 0.236744 0.174438
H2    H     H_    0.314059 0.754622 0.665978 0.252102
H3    H     H_    0.232654 0.646019 0.750722 0.226013
H4    H     H_    0.108690 0.816928 0.828866 0.275878
H5    H     H_    0.074987 0.791457 0.714095 0.264275
H6    H     H_    0.187388 0.921987 0.740204 0.266936
H7    H     H_    0.763486 0.830723 0.218291 0.179602
H8    H     H_    0.762445 0.723153 0.126943 0.141838
H9    H     H_    0.788363 0.657733 0.323810 0.274550
H10   H     H_    0.799736 0.552867 0.227731 0.231514
H11   H     H_    0.000827 0.690656 0.156058 0.274702
H12   H     H_    0.256916 0.248190 0.175339 0.128192
H13   H     H_    0.024088 0.624305 0.262085 0.276018
H14   H     H_    0.988095 0.783317 0.259092 0.266831
H15   H     H_    0.634507 0.135030 0.759702 0.180337
H16   H     H_    0.686276 0.256842 0.832531 0.133500
H17   H     H_    0.724450 0.266933 0.623657 0.255624
H18   H     H_    0.783799 0.386121 0.698533 0.232360
H19   H     H_    0.929936 0.243806 0.755257 0.271429
H20   H     H_    0.964440 0.256893 0.634111 0.277601
H21   H     H_    0.868952 0.120349 0.683806 0.269408
H22   H     H_    0.438378 0.953904 0.172907 0.176330
H23   H     H_    0.254675 0.240051 0.380659 0.242318
H24   H     H_    0.383490 0.794039 0.188333 0.160307
H25   H     H_    0.363343 0.938164 0.014706 0.253944
H26   H     H_    0.287738 0.784765 0.044937 0.210580
H27   H     H_    0.106285 0.902821 0.085023 0.275327
H28   H     H_    0.209067 0.032372 0.121980 0.254509
H29   H     H_    0.171556 0.897157 0.191406 0.268751
H30   H     H_    0.304186 0.123092 0.805582 0.177873
H31   H     H_    0.271257 0.267209 0.859164 0.136642
H32   H     H_    0.193511 0.006537 0.937723 0.241129
H33   H     H_    0.172726 0.148512 0.002022 0.228413
H34   H     H_    0.199055 0.360929 0.316768 0.219378
H35   H     H_    0.023473 0.214650 0.897834 0.261673
H36   H     H_    0.962768 0.064067 0.943377 0.278905
H37   H     H_    0.047488 0.077054 0.829167 0.271136
H38   H     H_    0.554800 0.813545 0.919435 0.195185
H39   H     H_    0.437568 0.185737 0.077389 0.186583
H40   H     H_    0.616870 0.105935 0.517593 0.181575
H41   H     H_    0.384240 0.896044 0.537864 0.181298
H42   H     H_    0.309049 0.096465 0.523604 0.142293
H43   H     H_    0.691509 0.903884 0.484846 0.144227
H44   H     H_    0.101925 0.406024 0.457605 0.166198
H45   H     H_    0.021545 0.212740 0.266581 0.273375
H46   H     H_    0.890441 0.576268 0.558936 0.167494
H47   H     H_    0.123484 0.624340 0.575691 0.163917
H48   H     H_    0.879704 0.385126 0.416503 0.173405
H49   H     H_    0.009466 0.210499 0.388264 0.255304
H50   H     H_    0.081680 0.087012 0.322821 0.270068
H51   H     H_    0.403946 0.883977 0.793106 0.183560
H52   H     H_    0.335437 0.763109 0.869650 0.120478
N1    N     N_2   0.842700 0.448880 0.462930 -0.212454
N2    N     N_2   0.157300 0.551120 0.537070 -0.202023
O1    O     O_R   0.431060 0.692470 0.507460 -0.627574
O2    O     O_3   0.497531 0.725139 0.768575 -0.652535
O3    O     O_3   0.595943 0.707440 0.230788 -0.638738
O4    O     O_3   0.527922 0.285684 0.756821 -0.643720
O5    O     O_3   0.549692 0.839348 0.090079 -0.636159
O6    O     O_3   0.416904 0.165113 0.908478 -0.653235
O7    O     O_R   0.568940 0.307530 0.492540 -0.616690
O8    O     O_R   0.651120 0.659650 0.483670 -0.631748
O9    O     O_R   0.348880 0.340350 0.516330 -0.631912
O10   O     O_R   0.389960 0.516440 0.644050 -0.634757
O11   O     O_R   0.610040 0.483560 0.355950 -0.626236
O12   O     O_R   0.610030 0.483620 0.620260 -0.631571
O13   O     O_R   0.389970 0.516380 0.379740 -0.629213
O14   O     O_3   0.435022 0.278087 0.237974 -0.646441
Zn1   Zn    Zn3+2 0.353060 0.521920 0.515880 0.932038
Zn2   Zn    Zn3+2 0.646940 0.478080 0.484120 0.934041

loop_
_geom_bond_atom_site_label_1
_geom_bond_atom_site_label_2
_ccdc_geom_bond_type
C4    O11   A    
C11   C18   A    
C23   H38   S    
C41   C43   D    
C31   H17   S    
C35   C36   S    
C20   H12   S    
C1    O1    A    
C37   H30   S    
C38   H32   S    
C2    N2    D    
C41   H42   S    
C17   C23   A    
O8    Zn2   S    
C40   H43   S    
C28   C29   S    
C24   H52   S    
C30   C31   S    
C11   C14   A    
C3    O12   A    
C15   C17   A    
C44   N1    D    
O9    Zn1   S    
C5    C16   A    
C1    C40   S    
C16   C34   A    
C20   O14   S    
C35   H26   S    
C2    C44   S    
C30   H16   S    
C21   H34   S    
H48   N1    S    
C2    H44   S    
C25   H3    S    
C20   H1    S    
C36   H27   S    
C26   H4    S    
C1    O8    A    
C40   C42   D    
C37   H31   S    
C24   O2    S    
C21   C22   S    
C21   H23   S    
C43   H40   S    
C22   H50   S    
C31   H18   S    
C4    C7    S    
C27   H7    S    
C33   H22   S    
C38   C39   S    
C13   C19   A    
C18   C23   A    
O7    Zn2   S    
C10   O4    S    
C24   C25   S    
C32   H20   S    
C3    C8    S    
C24   H51   S    
C5    C7    A    
C28   H10   S    
N2    Zn1   S    
C6    C8    A    
C29   H11   S    
C25   C26   S    
C10   C13   A    
C39   H35   S    
O10   Zn1   S    
C37   C38   S    
C37   O6    S    
C19   O6    S    
C31   C32   S    
C30   H15   S    
C30   O4    S    
O13   Zn1   S    
C42   H41   S    
C20   C21   S    
C9    C11   A    
C39   H37   S    
O11   Zn2   S    
C8    C10   A    
C5    O14   S    
C4    O13   A    
C29   H13   S    
C13   C15   A    
C22   H49   S    
C14   C16   A    
C26   H5    S    
C42   C43   S    
C44   H46   S    
C27   H8    S    
C12   C41   S    
C7    C9    A    
C6    C17   A    
O12   Zn2   S    
C33   O5    S    
C32   H19   S    
C19   C34   A    
O1    Zn1   S    
C12   O9    A    
C28   H9    S    
C38   H33   S    
C3    O10   A    
C39   H36   S    
C26   H6    S    
C12   O7    A    
C33   C35   S    
C22   H45   S    
C27   O3    S    
C18   O5    S    
H47   N2    S    
C36   H29   S    
C29   H14   S    
C35   H25   S    
C9    O3    S    
C34   H39   S    
C27   C28   S    
C14   C15   A    
N1    Zn2   S    
C25   H2    S    
C36   H28   S    
C33   H24   S    
C6    O2    S    
C32   H21   S    
