data_mof_unit_24032.cif
_audit_creation_date              2012-12-10T17:44:51-0500
_audit_creation_method            fapswitch 2.2
_symmetry_space_group_name_H-M    P1
_symmetry_Int_Tables_number       1
_space_group_crystal_system       triclinic
_cell_length_a                    15.090369
_cell_length_b                    13.677184
_cell_length_c                    19.361563
_cell_angle_alpha                 90.025687
_cell_angle_beta                  89.869144
_cell_angle_gamma                 90.009537
_cell_volume                      3996.09478183

loop_
_atom_site_label
_atom_site_type_symbol
_atom_type_description
_atom_site_fract_x
_atom_site_fract_y
_atom_site_fract_z
_atom_type_partial_charge
C1    C     C_R   0.328439 0.499986 0.500110 0.813851
C2    C     C_R   0.671561 0.500014 0.499878 0.813955
C3    C     C_R   0.814723 0.411223 0.500284 -0.195439
C4    C     C_R   0.185278 0.588773 0.499660 -0.195282
C5    C     C_R   0.907022 0.410631 0.500379 0.043381
C6    C     C_R   0.092979 0.589365 0.499540 0.043316
C7    C     C_R   0.953527 0.500132 0.499881 -0.014695
C8    C     C_R   0.046474 0.499866 0.500030 -0.014703
C9    C     C_R   0.907166 0.589847 0.499239 -0.001595
C10   C     C_R   0.092835 0.410152 0.500670 -0.001639
C11   C     C_R   0.953459 0.321953 0.501011 -0.278632
C12   C     C_R   0.046542 0.678041 0.498895 -0.278523
C13   C     C_R   0.045833 0.321485 0.501168 0.595336
C14   C     C_R   0.954167 0.678512 0.498730 0.595308
C15   C     C_R   0.446488 0.793263 0.545113 0.009770
C16   C     C_R   0.553576 0.206730 0.454939 0.010357
C17   C     C_R   0.553570 0.793226 0.454931 0.022616
C18   C     C_R   0.446474 0.206773 0.545103 0.020008
C19   C     C_R   0.554806 0.896325 0.453815 -0.004303
C20   C     C_R   0.445299 0.103670 0.546270 -0.003884
C21   C     C_R   0.445307 0.896366 0.546275 -0.005788
C22   C     C_R   0.554809 0.103627 0.453819 -0.005808
C23   C     C_R   0.500057 0.948158 0.500046 0.088398
C24   C     C_R   0.500055 0.051837 0.500045 0.088741
C25   C     C_R   0.609232 0.948580 0.407791 -0.177244
C26   C     C_R   0.390931 0.051414 0.592336 -0.179667
C27   C     C_R   0.390936 0.948662 0.592339 -0.193261
C28   C     C_R   0.609238 0.051330 0.407798 -0.191951
C29   C     C_R   0.500082 0.499987 0.367338 0.806830
C30   C     C_R   0.499816 0.500024 0.632686 0.808220
C31   C     C_R   0.515683 0.586711 0.255115 -0.225241
C32   C     C_R   0.505944 0.412025 0.745063 -0.225857
C33   C     C_R   0.491975 0.588271 0.744968 -0.224647
C34   C     C_R   0.484171 0.413439 0.255044 -0.227180
C35   C     C_R   0.515111 0.587973 0.182963 -0.000044
C36   C     C_R   0.506679 0.411154 0.817276 0.004206
C37   C     C_R   0.490338 0.589347 0.817172 0.004972
C38   C     C_R   0.483814 0.412545 0.182891 -0.001459
C39   C     C_R   0.499175 0.500350 0.145789 -0.027399
C40   C     C_R   0.498396 0.500322 0.853872 -0.021446
C41   C     C_R   0.500044 0.500015 0.291445 -0.065544
C42   C     C_R   0.499301 0.500106 0.708626 -0.064422
C43   C     C_R   0.498419 0.500518 0.929694 0.385133
C44   C     C_R   0.498857 0.500471 0.069430 0.396697
C45   C     C_R   0.814712 0.589000 0.499164 -0.187896
C46   C     C_R   0.185289 0.411002 0.500763 -0.187944
C47   C     C_R   0.768390 0.500071 0.499756 -0.100439
C48   C     C_R   0.231610 0.499928 0.500199 -0.100477
Cu1   Cu    Cu3+1 0.500000 0.597420 0.500000 0.946204
Cu2   Cu    Cu3+1 0.500000 0.402580 0.500000 0.945257
H1    H     H_    0.527750 0.654255 0.282914 0.154420
H2    H     H_    0.512800 0.343571 0.717302 0.156946
H3    H     H_    0.485281 0.656629 0.717129 0.154178
H4    H     H_    0.472428 0.345772 0.282772 0.160645
H5    H     H_    0.778717 0.657568 0.498670 0.205383
H6    H     H_    0.221284 0.342436 0.501257 0.205454
H7    H     H_    0.779072 0.342373 0.500689 0.155821
H8    H     H_    0.220928 0.657620 0.499269 0.155994
H9    H     H_    0.918209 0.252902 0.501400 0.177462
H10   H     H_    0.081791 0.747089 0.498505 0.177526
H11   H     H_    0.404706 0.752258 0.580213 0.125035
H12   H     H_    0.595374 0.247732 0.419851 0.126639
H13   H     H_    0.595358 0.752194 0.419833 0.125699
H14   H     H_    0.404679 0.247805 0.580194 0.127819
H15   H     H_    0.651772 0.910013 0.371798 0.144462
H16   H     H_    0.348417 0.089980 0.628347 0.143865
H17   H     H_    0.348422 0.910128 0.628350 0.141508
H18   H     H_    0.651790 0.089862 0.371814 0.140293
N1    N     N_R   0.438005 0.447490 0.033960 -0.224137
N2    N     N_R   0.559090 0.553852 0.964894 -0.223757
N3    N     N_R   0.437944 0.447192 0.965281 -0.225429
N4    N     N_R   0.559457 0.553522 0.033571 -0.223224
N5    N     N_R   0.500000 0.743810 0.500000 -0.183984
N6    N     N_R   0.500000 0.256190 0.500000 -0.184469
O1    O     O_R   0.370260 0.582280 0.500020 -0.586194
O2    O     O_R   0.629740 0.417720 0.499980 -0.586387
O3    O     O_R   0.629740 0.582280 0.499980 -0.585786
O4    O     O_R   0.370260 0.417720 0.500020 -0.585816
O5    O     O_R   0.499990 0.582300 0.400140 -0.586572
O6    O     O_R   0.500010 0.417700 0.599860 -0.587866
O7    O     O_R   0.500010 0.582300 0.599860 -0.585771
O8    O     O_R   0.499990 0.417700 0.400140 -0.586262
C49   C     C_R   0.527925 0.683308 0.148540 0.117931
C50   C     C_R   0.612260 0.726560 0.146654 -0.128216
C51   C     C_R   0.624024 0.817912 0.115548 -0.124372
C52   C     C_R   0.551532 0.867138 0.087263 -0.096249
C53   C     C_R   0.467163 0.825091 0.090093 -0.114490
C54   C     C_R   0.455357 0.732961 0.120006 -0.124222
H19   H     H_    0.668699 0.689333 0.168963 0.127634
H20   H     H_    0.689233 0.850775 0.113696 0.126482
H21   H     H_    0.560735 0.937936 0.063390 0.105233
H22   H     H_    0.410864 0.863997 0.069224 0.112594
H23   H     H_    0.389752 0.700916 0.121781 0.122943
C55   C     C_R   0.520376 0.316340 0.852729 0.115152
C56   C     C_R   0.593990 0.302443 0.895948 -0.116428
C57   C     C_R   0.608352 0.211930 0.927422 -0.118410
C58   C     C_R   0.549436 0.134763 0.916127 -0.115640
C59   C     C_R   0.476218 0.147867 0.873056 -0.128187
C60   C     C_R   0.461840 0.238157 0.841164 -0.132226
H24   H     H_    0.640699 0.361287 0.904616 0.129704
H25   H     H_    0.665253 0.201592 0.960547 0.119510
H26   H     H_    0.560552 0.064943 0.940881 0.104897
H27   H     H_    0.430733 0.088037 0.864149 0.125125
H28   H     H_    0.405060 0.247281 0.807657 0.123941
C61   C     C_R   0.475842 0.684186 0.852509 0.111382
C62   C     C_R   0.401682 0.697780 0.895478 -0.120331
C63   C     C_R   0.386477 0.788335 0.926760 -0.122244
C64   C     C_R   0.445109 0.865834 0.915542 -0.120151
C65   C     C_R   0.518895 0.853014 0.872754 -0.128163
C66   C     C_R   0.534110 0.762684 0.841042 -0.129230
H29   H     H_    0.355188 0.638671 0.904077 0.129460
H30   H     H_    0.329152 0.798445 0.959686 0.120105
H31   H     H_    0.433342 0.935686 0.940152 0.105340
H32   H     H_    0.564171 0.913096 0.863924 0.128407
H33   H     H_    0.591324 0.753777 0.807749 0.131664
C67   C     C_R   0.470541 0.317423 0.148317 0.116369
C68   C     C_R   0.385508 0.276168 0.144698 -0.117537
C69   C     C_R   0.373235 0.185046 0.113356 -0.119690
C70   C     C_R   0.445858 0.134085 0.086565 -0.095462
C71   C     C_R   0.530865 0.174196 0.091086 -0.118879
C72   C     C_R   0.543239 0.266072 0.121267 -0.131969
H34   H     H_    0.328942 0.314773 0.165826 0.130170
H35   H     H_    0.307511 0.153714 0.110152 0.127476
H36   H     H_    0.436242 0.063468 0.062502 0.105317
H37   H     H_    0.587196 0.134053 0.071228 0.111549
H38   H     H_    0.609328 0.296641 0.124340 0.122172
F1    F     F_    0.089089 0.234412 0.501799 -0.665994
F2    F     F_    0.910912 0.765583 0.498088 -0.666108

loop_
_geom_bond_atom_site_label_1
_geom_bond_atom_site_label_2
_ccdc_geom_bond_type
C57   H25   S    
C61   C66   A    
C9    C45   A    
C63   H30   S    
C19   C23   A    
C56   C57   A    
C9    C14   A    
C58   C59   A    
C7    C8    A    
C51   C52   A    
C67   C68   A    
C25   C28   A    
C26   C27   A    
C16   N6    A    
C33   C42   A    
C32   C36   A    
C28   H18   S    
C5    C11   A    
C37   C40   A    
C52   H21   S    
Cu2   N6    S    
C6    C12   A    
C38   C39   A    
C62   C63   A    
C59   H27   S    
C59   C60   A    
C14   F2    S    
C64   C65   A    
Cu1   O7    S    
N1    N3    A    
C69   C70   A    
C32   H2    S    
C17   C19   A    
C40   C43   S    
C20   C24   A    
C10   C46   A    
C43   N3    A    
C23   C24   A    
Cu1   O1    S    
C44   N4    A    
C18   C20   A    
C58   H26   S    
C30   O6    A    
C49   C54   A    
C21   C27   A    
C18   N6    A    
C22   C28   A    
C53   H22   S    
C17   N5    A    
C1    O4    A    
C34   C41   A    
C16   H12   S    
C11   H9    S    
Cu2   O4    S    
C62   H29   S    
C45   C47   A    
C33   H3    S    
C46   C48   A    
C67   C72   A    
C26   H16   S    
C36   C40   A    
C25   H15   S    
C50   C51   A    
C4    C6    A    
C5    C7    A    
C35   C49   S    
C52   C53   A    
C34   C38   A    
C6    C8    A    
C70   H36   S    
C33   C37   A    
Cu1   O5    S    
C1    O1    A    
C64   H31   S    
C35   C39   A    
C68   H34   S    
C37   C61   S    
Cu2   O2    S    
C38   C67   S    
C49   C50   A    
C29   O5    A    
C15   C21   A    
C63   C64   A    
C57   C58   A    
C15   H11   S    
C44   N1    A    
C70   C71   A    
C65   H32   S    
C3    H7    S    
C12   H10   S    
C15   N5    A    
C12   C14   A    
C34   H4    S    
C43   N2    A    
C21   C23   A    
Cu1   N5    S    
C50   H19   S    
C4    H8    S    
C2    O2    A    
C71   C72   A    
Cu2   O8    S    
C4    C48   A    
C7    C9    A    
C54   H23   S    
C16   C22   A    
C31   C41   A    
C29   C41   S    
C56   H24   S    
C31   H1    S    
C3    C5    A    
C10   C13   A    
Cu2   O6    S    
C51   H20   S    
C1    C48   S    
C39   C44   S    
C2    C47   S    
C61   C62   A    
C30   O7    A    
C72   H38   S    
C2    O3    A    
C68   C69   A    
C17   H13   S    
C11   C13   A    
C18   H14   S    
C20   C26   A    
C55   C60   A    
C31   C35   A    
C3    C47   A    
C71   H37   S    
Cu1   O3    S    
C60   H28   S    
C22   C24   A    
C69   H35   S    
C55   C56   A    
C19   C25   A    
C27   H17   S    
C13   F1    S    
C36   C55   S    
C29   O8    A    
C45   H5    S    
C53   C54   A    
C8    C10   A    
Cu1   Cu2   S    
C46   H6    S    
C32   C42   A    
C30   C42   S    
N2    N4    A    
C65   C66   A    
C66   H33   S    
