data_mof_unit_51840.cif
_audit_creation_date              2012-12-11T14:50:44-0500
_audit_creation_method            fapswitch 2.2
_symmetry_space_group_name_H-M    P1
_symmetry_Int_Tables_number       1
_space_group_crystal_system       triclinic
_cell_length_a                    20.6869
_cell_length_b                    7.220787
_cell_length_c                    20.34832
_cell_angle_alpha                 90.000017
_cell_angle_beta                  101.79075
_cell_angle_gamma                 90.000029
_cell_volume                      2975.41131267

loop_
_atom_site_label
_atom_site_type_symbol
_atom_type_description
_atom_site_fract_x
_atom_site_fract_y
_atom_site_fract_z
_atom_type_partial_charge
O1    O     O_R   0.423690 0.494470 0.435930 -0.525152
O2    O     O_R   0.576310 0.994470 0.564070 -0.525153
O3    O     O_R   0.556070 0.822310 0.435760 -0.542956
O4    O     O_R   0.443930 0.322310 0.564240 -0.542955
C1    C     C_R   0.575869 0.655109 0.421445 0.730310
C2    C     C_R   0.424131 0.155109 0.578555 0.730310
O5    O     O_R   0.422940 0.824080 0.428040 -0.542809
O6    O     O_R   0.577060 0.324080 0.571960 -0.542808
O7    O     O_R   0.442240 0.995960 0.556300 -0.522633
O8    O     O_R   0.557760 0.495960 0.443700 -0.522632
C3    C     C_R   0.399209 0.655989 0.410778 0.756891
C4    C     C_R   0.600791 0.155989 0.589222 0.756892
O9    O     O_3   0.506490 0.661310 0.542090 -0.366001
O10   O     O_3   0.493510 0.161310 0.457910 -0.366001
V1    V     V_3+5 0.498800 0.935560 0.492190 1.519671
V2    V     V_3+5 0.501200 0.435560 0.507810 1.519673
C5    C     C_R   0.838912 0.084017 0.856957 -0.090934
C6    C     C_R   0.161088 0.584017 0.143043 -0.090935
C7    C     C_R   0.662781 0.150333 0.641139 -0.106621
C8    C     C_R   0.337219 0.650334 0.358860 -0.106621
C9    C     C_R   0.778196 0.238457 0.679033 -0.137770
C10   C     C_R   0.221805 0.738467 0.320965 -0.137770
C11   C     C_R   0.721142 0.231675 0.628011 0.050296
C12   C     C_R   0.278859 0.731681 0.371988 0.050296
C13   C     C_R   0.663434 0.070409 0.704764 0.171779
C14   C     C_R   0.336566 0.570406 0.295237 0.171780
C15   C     C_R   0.722025 0.074023 0.755471 0.062639
C16   C     C_R   0.277975 0.574021 0.244529 0.062639
C17   C     C_R   0.779755 0.161792 0.742879 0.029525
C18   C     C_R   0.220245 0.661797 0.257120 0.029526
C19   C     C_R   0.838097 0.168520 0.794155 0.217753
C20   C     C_R   0.161904 0.668527 0.205843 0.217753
C21   C     C_R   0.782089 0.994888 0.868085 -0.235600
C22   C     C_R   0.217910 0.494881 0.131916 -0.235599
C23   C     C_R   0.724417 0.991438 0.818638 -0.104541
C24   C     C_R   0.275582 0.491431 0.181363 -0.104543
H1    H     H_    0.782252 0.928024 0.915815 0.122149
H2    H     H_    0.217746 0.428012 0.084187 0.122151
H3    H     H_    0.821869 0.302393 0.667704 0.189756
H4    H     H_    0.178134 0.802407 0.332293 0.189756
H5    H     H_    0.682117 0.921357 0.830570 0.178674
H6    H     H_    0.317881 0.421343 0.169433 0.178674
C25   C     C_3   0.257051 0.275155 0.810013 -0.070477
C26   C     C_3   0.742949 0.775155 0.189987 -0.070477
C27   C     C_3   0.252276 0.934676 0.798456 -0.082136
C28   C     C_3   0.747724 0.434676 0.201544 -0.082135
C29   C     C_3   0.286350 0.921884 0.736663 0.065624
C30   C     C_3   0.713650 0.421884 0.263337 0.065623
H7    H     H_    0.293529 0.952654 0.842045 0.183972
H8    H     H_    0.706471 0.452653 0.157955 0.183972
H9    H     H_    0.255951 0.830887 0.698678 0.173809
H10   H     H_    0.744049 0.330887 0.301322 0.173809
C31   C     C_1   0.377830 0.143274 0.623175 -0.102157
C32   C     C_1   0.622170 0.643274 0.376824 -0.102158
C33   C     C_3   0.207781 0.110697 0.792708 0.074421
C34   C     C_3   0.792219 0.610697 0.207292 0.074422
C35   C     C_3   0.313954 0.263713 0.767772 -0.113470
C36   C     C_3   0.686046 0.763713 0.232228 -0.113470
C37   C     C_3   0.291359 0.122696 0.707019 0.006947
C38   C     C_3   0.708641 0.622696 0.292981 0.006947
C39   C     C_3   0.218986 0.174431 0.667662 0.248030
C40   C     C_3   0.781014 0.674432 0.332338 0.248030
C41   C     C_3   0.169967 0.132787 0.716869 0.047306
C42   C     C_3   0.830033 0.632788 0.283131 0.047306
C43   C     C_1   0.338857 0.131175 0.660324 0.088256
C44   C     C_1   0.661142 0.631175 0.339676 0.088255
C45   C     C_1   0.159821 0.103057 0.838873 0.069641
C46   C     C_1   0.840179 0.603057 0.161127 0.069640
C47   C     C_1   0.121134 0.092068 0.876288 -0.145000
C48   C     C_1   0.878866 0.592068 0.123712 -0.145001
H11   H     H_    0.146516 0.998281 0.701363 0.182072
H12   H     H_    0.853484 0.498281 0.298637 0.182072
H13   H     H_    0.226098 0.389350 0.786882 0.129755
H14   H     H_    0.773902 0.889350 0.213118 0.129755
H15   H     H_    0.317900 0.402830 0.745634 0.175787
H16   H     H_    0.682100 0.902830 0.254365 0.175787
O11   O     O_R   0.942280 0.741210 0.056360 -0.527952
O12   O     O_R   0.057720 0.241210 0.943640 -0.527952
O13   O     O_R   0.077070 0.409690 0.071960 -0.536439
O14   O     O_R   0.922930 0.909690 0.928040 -0.536439
C49   C     C_R   0.100688 0.578137 0.089349 0.735724
C50   C     C_R   0.899312 0.078136 0.910651 0.735724
O15   O     O_R   0.943940 0.411580 0.064250 -0.540812
O16   O     O_R   0.056060 0.911580 0.935750 -0.540812
O17   O     O_R   0.923670 0.239840 0.935920 -0.524985
O18   O     O_R   0.076330 0.739840 0.064080 -0.524984
C51   C     C_R   0.924464 0.580393 0.078554 0.735610
C52   C     C_R   0.075536 0.080393 0.921446 0.735611
O19   O     O_3   0.993540 0.572620 0.957940 -0.366825
O20   O     O_3   0.006460 0.072620 0.042060 -0.366824
V3    V     V_3+5 0.001200 0.298330 0.007800 1.512325
V4    V     V_3+5 0.998800 0.798330 0.992200 1.512326
Br1   Br    Br    0.918081 0.283938 0.778798 -0.483052
Br2   Br    Br    0.081922 0.783954 0.221199 -0.483054
Br3   Br    Br    0.370010 0.788985 0.757886 -0.664290
Br4   Br    Br    0.629990 0.288985 0.242114 -0.664291
Br5   Br    Br    0.091195 0.289635 0.705855 -0.515874
Br6   Br    Br    0.908805 0.789635 0.294145 -0.515876
C53   C     C_3   0.216616 0.379993 0.641366 -0.315209
C54   C     C_3   0.162528 0.426269 0.579722 -0.525691
H17   H     H_    0.113860 0.368421 0.583034 0.289593
H18   H     H_    0.157664 0.578884 0.574234 0.226449
H19   H     H_    0.175998 0.370932 0.533492 0.228236
H20   H     H_    0.211988 0.476822 0.681806 0.172774
H21   H     H_    0.263990 0.416824 0.627087 0.171470
C55   C     C_3   0.783384 0.879993 0.358634 -0.315209
C56   C     C_3   0.837471 0.926269 0.420279 -0.525690
H22   H     H_    0.886140 0.868424 0.416966 0.289593
H23   H     H_    0.842335 0.078884 0.425767 0.226450
H24   H     H_    0.824002 0.870931 0.466508 0.228237
H25   H     H_    0.788012 0.976823 0.318194 0.172774
H26   H     H_    0.736010 0.916824 0.372913 0.171470
Br7   Br    Br    0.194197 0.010102 0.588403 -0.629742
Br8   Br    Br    0.805802 0.510102 0.411597 -0.629743
C57   C     C_3   0.724765 0.307703 0.559233 -0.328263
C58   C     C_3   0.722568 0.151878 0.508036 -0.695287
H27   H     H_    0.762074 0.049808 0.526845 0.231372
H28   H     H_    0.674231 0.080038 0.498327 0.206718
H29   H     H_    0.730188 0.209228 0.459654 0.256024
H30   H     H_    0.684265 0.407790 0.541635 0.187189
H31   H     H_    0.771450 0.385866 0.561340 0.220621
C59   C     C_3   0.275235 0.807704 0.440766 -0.328264
C60   C     C_3   0.277425 0.651872 0.491959 -0.695284
H32   H     H_    0.237916 0.549814 0.473145 0.231374
H33   H     H_    0.325760 0.580017 0.501668 0.206717
H34   H     H_    0.269804 0.709216 0.540341 0.256025
H35   H     H_    0.315738 0.907780 0.458368 0.187189
H36   H     H_    0.228552 0.885877 0.438658 0.220619
Br9   Br    Br    0.582701 0.963998 0.722224 -0.542674
Br10  Br    Br    0.417298 0.463987 0.277777 -0.542672
C61   C     C_3   0.385068 0.218647 0.808578 -0.260417
C62   C     C_3   0.427697 0.386893 0.834050 -0.682290
H37   H     H_    0.444041 0.455096 0.791357 0.273896
H38   H     H_    0.401879 0.489084 0.859654 0.245875
H39   H     H_    0.472616 0.340536 0.870025 0.218535
H40   H     H_    0.384154 0.122552 0.850198 0.209039
H41   H     H_    0.414003 0.146066 0.776316 0.242118
C63   C     C_3   0.614932 0.718648 0.191421 -0.260416
C64   C     C_3   0.572303 0.886893 0.165948 -0.682292
H42   H     H_    0.555958 0.955094 0.208641 0.273895
H43   H     H_    0.598123 0.989085 0.140346 0.245876
H44   H     H_    0.527385 0.840537 0.129972 0.218534
H45   H     H_    0.615846 0.622551 0.149802 0.209039
H46   H     H_    0.585996 0.646068 0.223684 0.242117
C65   C     C_3   0.275327 0.336274 0.885808 -0.311179
C66   C     C_3   0.298403 0.189724 0.940257 -0.737711
H47   H     H_    0.263965 0.071171 0.936490 0.211673
H48   H     H_    0.348823 0.139453 0.940584 0.224851
H49   H     H_    0.300102 0.254346 0.990122 0.211628
H50   H     H_    0.311873 0.449252 0.892799 0.186765
H51   H     H_    0.230440 0.400367 0.898353 0.170969
C67   C     C_3   0.724673 0.836273 0.114192 -0.311179
C68   C     C_3   0.701597 0.689723 0.059743 -0.737711
H52   H     H_    0.736035 0.571170 0.063510 0.211673
H53   H     H_    0.651177 0.639453 0.059416 0.224851
H54   H     H_    0.699898 0.754345 0.009878 0.211628
H55   H     H_    0.688128 0.949252 0.107201 0.186765
H56   H     H_    0.769560 0.900366 0.101647 0.170969
C69   C     C_3   0.221241 0.754955 0.817163 -0.453946
C70   C     C_3   0.153423 0.702508 0.775661 -0.646144
H57   H     H_    0.114769 0.804366 0.780331 0.244754
H58   H     H_    0.154762 0.686483 0.721968 0.241695
H59   H     H_    0.137670 0.571487 0.795801 0.250481
H60   H     H_    0.258180 0.649398 0.813621 0.211592
H61   H     H_    0.217137 0.760678 0.870803 0.183997
C71   C     C_3   0.778759 0.254954 0.182838 -0.453946
C72   C     C_3   0.846577 0.202508 0.224339 -0.646145
H62   H     H_    0.885231 0.304367 0.219669 0.244754
H63   H     H_    0.845238 0.186483 0.278032 0.241695
H64   H     H_    0.862331 0.071487 0.204200 0.250481
H65   H     H_    0.741820 0.149398 0.186379 0.211591
H66   H     H_    0.782863 0.260677 0.129197 0.183997

loop_
_geom_bond_atom_site_label_1
_geom_bond_atom_site_label_2
_ccdc_geom_bond_type
C25   H13   S    
O15   C51   A    
O11   V4    S    
C71   H66   S    
C57   H31   S    
C27   C33   S    
C15   C17   A    
C20   Br2   S    
O1    C3    A    
C13   Br9   S    
C2    O7    A    
C65   C66   S    
O17   V3    S    
C36   H16   S    
C60   H32   S    
C72   H63   S    
C55   H26   S    
O5    C3    A    
C26   C67   S    
C25   C65   S    
C40   Br8   S    
C63   H45   S    
O10   V1    S    
C64   H44   S    
C60   H33   S    
C55   C56   S    
O2    C4    A    
C36   C38   S    
C57   C58   S    
C30   Br4   S    
C6    C49   S    
C58   H27   S    
C38   C40   S    
C5    C50   S    
C59   H35   S    
C39   C41   S    
C40   C42   S    
C24   H6    S    
C8    C12   A    
C26   C36   S    
C62   H37   S    
C27   C69   S    
C56   H22   S    
C34   C42   S    
O19   V3    S    
C31   C43   T    
O13   V3    S    
C49   O18   A    
C14   Br10  S    
C36   C63   S    
O5    V1    S    
C53   H20   S    
C38   C44   S    
C71   H65   S    
O6    V2    S    
C17   C19   A    
C56   H23   S    
C39   C53   S    
C5    C21   A    
C23   H5    S    
C48   C51   S    
C12   C59   S    
O4    V2    S    
C30   C38   S    
C72   H64   S    
C66   H48   S    
C55   H25   S    
C27   C29   S    
C53   H21   S    
C28   C30   S    
C3    C8    S    
C37   C39   S    
C70   H59   S    
O16   C52   A    
C1    C32   S    
O14   C50   A    
C61   H40   S    
C72   H62   S    
O13   C49   A    
C60   H34   S    
C29   H9    S    
C15   C23   A    
C34   C46   S    
C9    C17   A    
C54   H19   S    
C21   H1    S    
C69   H61   S    
C33   C41   S    
O19   V4    S    
C70   H58   S    
O14   V4    S    
C7    C11   A    
C61   H41   S    
C10   C18   A    
C66   H49   S    
C26   C34   S    
O20   V4    S    
C69   C70   S    
C9    H3    S    
C27   H7    S    
O6    C4    A    
C10   H4    S    
C54   H18   S    
O1    V2    S    
C68   H54   S    
C26   H14   S    
O2    V1    S    
C6    C22   A    
C16   C24   A    
C65   H51   S    
C47   C52   S    
C67   H56   S    
C32   C44   T    
C25   C33   S    
C41   H11   S    
C9    C11   A    
C39   Br7   S    
C71   C72   S    
C5    C19   A    
C56   H24   S    
C10   C12   A    
O4    C2    A    
C68   H53   S    
C2    C31   S    
C61   C62   S    
O3    V1    S    
C66   H47   S    
O12   C52   A    
C67   H55   S    
C28   C71   S    
C22   H2    S    
C35   C61   S    
C65   H50   S    
O3    C1    A    
C33   C45   S    
C64   H42   S    
C58   H29   S    
C40   C55   S    
O12   V3    S    
C13   C15   A    
C50   O17   A    
O15   V3    S    
C28   H8    S    
C14   C16   A    
C53   C54   S    
C70   H57   S    
C35   H15   S    
C16   C18   A    
C59   C60   S    
C1    O8    A    
C41   Br5   S    
C19   Br1   S    
C37   C43   S    
C18   C20   A    
C64   H43   S    
O20   V3    S    
O8    V2    S    
C8    C14   A    
C63   H46   S    
C62   H39   S    
C4    C7    S    
C42   Br6   S    
C54   H17   S    
C21   C23   A    
C11   C57   S    
C58   H28   S    
C22   C24   A    
C42   H12   S    
C59   H36   S    
C7    C13   A    
C35   C37   S    
C63   C64   S    
C25   C35   S    
C29   C37   S    
C30   H10   S    
C6    C20   A    
C67   C68   S    
O11   C51   A    
C62   H38   S    
C57   H30   S    
O9    V2    S    
C28   C34   S    
C46   C48   T    
C29   Br3   S    
C69   H60   S    
O18   V4    S    
O16   V4    S    
C45   C47   T    
C68   H52   S    
O7    V1    S    
