data_mof_unit_27010.cif
_audit_creation_date              2012-12-10T16:57:45-0500
_audit_creation_method            fapswitch 2.2
_symmetry_space_group_name_H-M    P1
_symmetry_Int_Tables_number       1
_space_group_crystal_system       triclinic
_cell_length_a                    7.75704
_cell_length_b                    8.579835
_cell_length_c                    19.015022
_cell_angle_alpha                 91.016666
_cell_angle_beta                  85.337318
_cell_angle_gamma                 93.696741
_cell_volume                      1258.61598137

loop_
_atom_site_label
_atom_site_type_symbol
_atom_type_description
_atom_site_fract_x
_atom_site_fract_y
_atom_site_fract_z
_atom_type_partial_charge
C1    C     C_R   0.545890 0.794834 0.498185 0.975131
C2    C     C_R   0.639514 0.406413 0.176931 -0.161426
C3    C     C_R   0.484356 0.392426 0.852785 0.089138
C4    C     C_R   0.480304 0.393528 0.146618 0.089312
C5    C     C_R   0.643340 0.399680 0.811667 -0.160147
C6    C     C_R   0.326764 0.419534 0.188310 -0.159861
C7    C     C_R   0.649931 0.438660 0.740904 -0.195912
C8    C     C_R   0.332693 0.458410 0.259319 -0.196821
C9    C     C_R   0.497609 0.470500 0.710440 -0.030178
C10   C     C_R   0.492148 0.471372 0.289408 -0.029939
C11   C     C_R   0.476881 0.367087 0.070655 0.290104
C12   C     C_R   0.454109 0.205165 0.501816 0.972072
C13   C     C_R   0.479123 0.366471 0.928642 0.290084
C14   C     C_2   0.570082 0.958281 0.497150 -0.381996
C15   C     C_2   0.429917 0.041728 0.502863 -0.379401
C16   C     C_R   0.500617 0.496594 0.634819 0.857589
C17   C     C_R   0.498161 0.496611 0.365176 0.858783
C18   C     C_R   0.338833 0.463168 0.751536 -0.190567
C19   C     C_R   0.645442 0.445574 0.247693 -0.191103
C20   C     C_R   0.332161 0.423881 0.822088 -0.162509
H1    H     H_    0.219026 0.485753 0.729106 0.156070
H2    H     H_    0.297576 0.990595 0.508312 0.179988
H3    H     H_    0.013932 0.382039 0.447272 0.188334
H4    H     H_    0.986070 0.617973 0.552719 0.189635
H5    H     H_    0.770162 0.453777 0.269776 0.155063
H6    H     H_    0.207896 0.420110 0.852615 0.151377
H7    H     H_    0.760160 0.388260 0.145954 0.151795
H8    H     H_    0.762979 0.377009 0.834178 0.148038
H9    H     H_    0.202242 0.411247 0.166101 0.147002
H10   H     H_    0.773753 0.442215 0.710028 0.154206
H11   H     H_    0.212479 0.476130 0.290710 0.152518
H12   H     H_    0.702423 0.009418 0.491702 0.180114
N1    N     N_R   0.627846 0.352140 0.960033 -0.175146
N2    N     N_R   0.327095 0.375013 0.039260 -0.175236
N3    N     N_R   0.626695 0.352416 0.029819 -0.173390
N4    N     N_R   0.328239 0.374688 0.969460 -0.173504
N5    N     N_2   0.950330 0.457950 0.481240 -0.175700
N6    N     N_2   0.049670 0.542050 0.518760 -0.175518
O1    O     O_R   0.389250 0.738570 0.504600 -0.608934
O2    O     O_R   0.610750 0.261430 0.495400 -0.610571
O3    O     O_R   0.678400 0.711620 0.492580 -0.626832
O4    O     O_R   0.321600 0.288380 0.507420 -0.628770
O5    O     O_R   0.355380 0.513500 0.607880 -0.620649
O6    O     O_R   0.644620 0.486500 0.392120 -0.620583
O7    O     O_R   0.644530 0.486550 0.595850 -0.627186
O8    O     O_R   0.355470 0.513450 0.404150 -0.626375
Zn1   Zn    Zn3+2 0.306930 0.517990 0.508030 0.941122
Zn2   Zn    Zn3+2 0.693070 0.482010 0.491970 0.940779

loop_
_geom_bond_atom_site_label_1
_geom_bond_atom_site_label_2
_ccdc_geom_bond_type
C16   O7    A    
C12   O2    A    
C18   C20   A    
H4    N6    S    
C13   N1    A    
C2    H7    S    
C18   H1    S    
C5    C7    A    
C2    C4    A    
C3    C13   S    
C12   C15   S    
C10   C19   A    
C11   N3    A    
C17   O6    A    
C3    C20   A    
C7    H10   S    
H3    N5    S    
C4    C11   S    
N5    Zn2   S    
C8    H11   S    
C16   O5    A    
N6    Zn1   S    
N5    N6    D    
C20   H6    S    
C1    O3    A    
N1    N3    A    
C9    C16   S    
N2    N4    A    
O4    Zn1   S    
C15   H2    S    
C19   H5    S    
C4    C6    A    
C1    O1    A    
C10   C17   S    
C12   O4    A    
C5    H8    S    
C9    C18   A    
C6    H9    S    
C17   O8    A    
C13   N4    A    
C8    C10   A    
O7    Zn2   S    
C7    C9    A    
O2    Zn2   S    
O8    Zn1   S    
C6    C8    A    
C1    C14   S    
C2    C19   A    
C14   C15   D    
O1    Zn1   S    
O5    Zn1   S    
O3    Zn2   S    
C11   N2    A    
O6    Zn2   S    
C14   H12   S    
C3    C5    A    
