data_mof_unit_9709.cif
_audit_creation_date              2012-12-11T15:20:38-0500
_audit_creation_method            fapswitch 2.2
_symmetry_space_group_name_H-M    P1
_symmetry_Int_Tables_number       1
_space_group_crystal_system       triclinic
_cell_length_a                    12.926533
_cell_length_b                    13.065238
_cell_length_c                    15.305249
_cell_angle_alpha                 116.978601
_cell_angle_beta                  63.430329
_cell_angle_gamma                 97.169698
_cell_volume                      2050.3854413

loop_
_atom_site_label
_atom_site_type_symbol
_atom_type_description
_atom_site_fract_x
_atom_site_fract_y
_atom_site_fract_z
_atom_type_partial_charge
C1    C     C_R   0.025615 0.834489 0.028029 -0.059442
C2    C     C_R   0.322047 0.523381 0.779183 0.650919
C3    C     C_R   0.241928 0.485654 0.111326 0.823085
C4    C     C_R   0.701747 0.402958 0.208505 -0.136615
C5    C     C_R   0.980804 0.300781 0.698491 -0.039980
C6    C     C_R   0.333293 0.548654 0.082451 -0.137231
C7    C     C_R   0.921725 0.205597 0.698652 0.000677
C8    C     C_R   0.333727 0.448376 0.674367 -0.307949
C9    C     C_R   0.080531 0.142334 0.971023 -0.025846
C10   C     C_R   0.931628 0.042965 0.425097 -0.152918
C11   C     C_R   0.921492 0.138522 0.519751 -0.179506
C12   C     C_R   0.707817 0.426661 0.303632 0.045137
C13   C     C_R   0.884969 0.127179 0.615829 0.146076
C14   C     C_R   0.834450 0.027894 0.621884 -0.154845
C15   C     C_R   0.843685 0.932547 0.527168 -0.164373
C16   C     C_R   0.738629 0.580902 0.951447 -0.130296
C17   C     C_R   0.904089 0.936731 0.426747 0.144716
C18   C     C_R   0.643744 0.427883 0.482441 -0.240726
C19   C     C_R   0.550080 0.431532 0.575544 -0.110886
C20   C     C_R   0.443080 0.400019 0.573427 0.186636
C21   C     C_R   0.441658 0.334972 0.471632 -0.114082
C22   C     C_R   0.535098 0.331687 0.378261 -0.212594
C23   C     C_R   0.635815 0.565840 0.027364 0.140972
C24   C     C_R   0.631312 0.390055 0.386495 0.136746
C25   C     C_2   0.427021 0.571897 0.114146 -0.108158
C26   C     C_2   0.521543 0.612102 0.059885 -0.202936
C27   C     C_2   0.892919 0.964917 0.025052 -0.338627
C28   C     C_R   0.941620 0.719943 0.316188 -0.097333
C29   C     C_2   0.871883 0.060925 0.118068 0.509466
C30   C     C_R   0.660399 0.485076 0.051639 -0.108126
C31   C     C_R   0.029083 0.821203 0.222510 -0.110847
C32   C     C_R   0.803165 0.487518 0.303440 -0.146315
C33   C     C_R   0.927664 0.748375 0.929999 -0.193045
C34   C     C_R   0.953243 0.830463 0.325513 0.034554
C35   C     C_R   0.950250 0.854885 0.994030 0.204706
C36   C     C_3   0.145155 0.493460 0.599345 -0.261846
C37   C     C_3   0.870491 0.182405 0.278418 -0.200626
C38   C     C_R   0.320119 0.584131 0.016199 -0.121738
C39   C     C_R   0.902484 0.200703 0.792773 -0.119972
C40   C     C_R   0.220946 0.442371 0.683354 0.519428
C41   C     C_R   0.094581 0.248493 0.044744 0.720662
C42   C     C_R   0.996403 0.166335 0.947858 -0.325215
F1    F     F_    0.166467 0.263616 0.091134 -0.669566
F2    F     F_    0.408096 0.568547 0.808150 -0.745494
F3    F     F_    0.204846 0.465539 0.199657 -0.671699
H1    H     H_    0.072762 0.898173 0.066329 0.136738
H2    H     H_    0.720960 0.464460 0.489513 0.121897
H3    H     H_    0.561052 0.467850 0.649194 0.198693
H4    H     H_    0.366629 0.294063 0.463487 0.187337
H5    H     H_    0.526733 0.292273 0.302845 0.125858
H6    H     H_    0.429240 0.529716 0.160180 0.159848
H7    H     H_    0.518578 0.657927 0.017046 0.146954
H8    H     H_    0.855451 0.965429 0.974387 0.095672
H9    H     H_    0.746277 0.629696 0.908476 0.097495
H10   H     H_    0.892209 0.693421 0.379438 0.096800
H11   H     H_    0.601235 0.448829 0.104242 0.100463
H12   H     H_    0.845317 0.147297 0.827178 0.089579
H13   H     H_    0.066327 0.890377 0.202673 0.108668
H14   H     H_    0.843640 0.505728 0.356577 0.103894
H15   H     H_    0.884172 0.732992 0.879984 0.100816
H16   H     H_    0.362111 0.652348 0.995956 0.192583
H17   H     H_    0.209434 0.557805 0.591199 0.155153
H18   H     H_    0.062551 0.535737 0.674424 0.129388
H19   H     H_    0.125385 0.459952 0.528221 0.185669
H20   H     H_    0.898620 0.249910 0.249153 0.135314
H21   H     H_    0.908575 0.197975 0.334854 0.166456
H22   H     H_    0.774296 0.191736 0.325786 0.141173
H23   H     H_    0.964153 0.103976 0.892278 0.158715
H24   H     H_    0.991507 0.341332 0.647902 0.128718
H25   H     H_    0.971992 0.050444 0.349737 0.145695
H26   H     H_    0.954646 0.216179 0.513367 0.116392
H27   H     H_    0.799088 0.018625 0.696352 0.110682
H28   H     H_    0.648281 0.343731 0.174778 0.093050
H29   H     H_    0.813873 0.853606 0.532414 0.113170
N1    N     N_R   0.037310 0.720000 0.995790 -0.059006
N2    N     N_R   0.824890 0.517960 0.936420 -0.044669
N3    N     N_R   0.003210 0.648190 0.211380 -0.045820
N4    N     N_R   0.774330 0.457010 0.995840 -0.045029
N5    N     N_R   0.053760 0.709140 0.151960 -0.051644
N6    N     N_R   0.853860 0.498840 0.211410 -0.039478
N7    N     N_R   0.974240 0.667310 0.936390 -0.046591
N8    N     N_R   0.225670 0.542990 0.004160 -0.093611
N9    N     N_R   0.946240 0.290860 0.848040 -0.037959
N10   N     N_R   0.146140 0.501160 0.788590 -0.138305
N11   N     N_R   0.025760 0.332690 0.063610 -0.119961
N12   N     N_R   0.962690 0.280000 0.004210 -0.075441
N13   N     N_R   0.209210 0.553840 0.847990 -0.130527
N14   N     N_R   0.175110 0.482040 0.063580 -0.132466
N15   N     N_R   0.996790 0.351810 0.788620 -0.046934
N16   N     N_R   0.790790 0.446160 0.152010 -0.038414
Ni1   Ni    Ni4+2 0.130310 0.630310 0.999970 0.217983
Ni2   Ni    Ni4+2 0.869690 0.369690 0.000030 0.195199
Ni3   Ni    Ni4+2 0.985640 0.509470 0.863740 0.196843
Ni4   Ni    Ni4+2 0.014360 0.490530 0.136260 0.267859
O1    O     O_3   0.190906 0.400100 0.598222 -0.634512
O2    O     O_3   0.909927 0.070338 0.192060 -0.615334

loop_
_geom_bond_atom_site_label_1
_geom_bond_atom_site_label_2
_ccdc_geom_bond_type
N13   Ni1   S    
C27   C29   D    
C40   N10   A    
C19   C20   A    
N10   N13   A    
C3    C6    A    
C18   H2    S    
C21   H4    S    
N11   N12   A    
N9    Ni2   S    
C9    C42   A    
C8    C20   S    
C18   C24   A    
C31   H13   S    
C21   C22   A    
N2    N4    A    
C11   H26   S    
C1    H1    S    
C6    C25   S    
C10   C17   A    
C39   H12   S    
N3    Ni4   S    
C18   C19   A    
C23   C26   S    
C5    H24   S    
C2    F2    S    
C37   H20   S    
C6    C38   A    
C42   N12   A    
C4    C12   A    
C36   H18   S    
N5    Ni1   S    
N1    Ni1   S    
C22   H5    S    
C38   H16   S    
C28   C34   A    
C13   C14   A    
C12   C32   A    
C42   H23   S    
C41   F1    S    
C36   H17   S    
C28   H10   S    
C4    N16   A    
N3    N5    A    
C5    N15   A    
N9    N15   A    
N14   Ni4   S    
C1    N1    A    
C23   C30   A    
C5    C7    A    
C19   H3    S    
N1    N7    A    
C27   C35   S    
C25   C26   D    
C30   H11   S    
C3    F3    S    
N8    Ni1   S    
C37   O2    S    
C25   H6    S    
C26   H7    S    
N2    Ni3   S    
C32   N6    A    
N7    Ni3   S    
N11   Ni4   S    
N16   Ni2   S    
C37   H21   S    
C31   C34   A    
C2    N13   A    
C28   N3    A    
C4    H28   S    
C10   H25   S    
C33   H15   S    
C22   C24   A    
C17   C34   S    
C40   O1    S    
N6    Ni4   S    
C1    C35   A    
C15   C17   A    
C3    N14   A    
C16   N2    A    
C14   H27   S    
C2    C8    A    
C29   O2    S    
C27   H8    S    
C31   N5    A    
C16   C23   A    
C41   N11   A    
C12   C24   S    
C9    C41   A    
N4    Ni2   S    
C39   N9    A    
N12   Ni2   S    
C11   C13   A    
C36   O1    S    
N8    N14   A    
C37   H22   S    
C33   C35   A    
N10   Ni3   S    
N15   Ni3   S    
C16   H9    S    
C10   C11   A    
C30   N4    A    
C7    C13   S    
C15   H29   S    
C20   C21   A    
C7    C39   A    
C14   C15   A    
C8    C40   A    
C32   H14   S    
C36   H19   S    
C33   N7    A    
N6    N16   A    
C38   N8    A    
