data_mof_unit_42230.cif
_audit_creation_date              2012-12-10T17:50:41-0500
_audit_creation_method            fapswitch 2.2
_symmetry_space_group_name_H-M    P1
_symmetry_Int_Tables_number       1
_space_group_crystal_system       triclinic
_cell_length_a                    14.700945
_cell_length_b                    14.815466
_cell_length_c                    15.848748
_cell_angle_alpha                 76.896505
_cell_angle_beta                  102.676809
_cell_angle_gamma                 114.558353
_cell_volume                      3027.16059994

loop_
_atom_site_label
_atom_site_type_symbol
_atom_type_description
_atom_site_fract_x
_atom_site_fract_y
_atom_site_fract_z
_atom_type_partial_charge
C1    C     C_R   0.880358 0.312873 0.512841 0.818477
C2    C     C_R   0.119640 0.687137 0.487136 0.823283
C3    C     C_R   0.768575 0.060726 0.639273 -0.161423
C4    C     C_R   0.230854 0.939670 0.360897 -0.162128
C5    C     C_R   0.840956 0.145832 0.600677 -0.215617
C6    C     C_R   0.158701 0.854258 0.399414 -0.218305
C7    C     C_R   0.711632 0.172721 0.484097 -0.069855
C8    C     C_R   0.288336 0.827397 0.515604 -0.069133
C9    C     C_R   0.638973 0.079107 0.518177 0.021797
C10   C     C_R   0.360674 0.921427 0.481770 0.016772
C11   C     C_R   0.666235 0.030657 0.602567 0.064824
C12   C     C_R   0.333217 0.969999 0.397540 0.068487
C13   C     C_R   0.537770 0.036168 0.475461 0.063400
C14   C     C_R   0.461776 0.964616 0.524528 0.056811
C15   C     C_R   0.488866 0.939874 0.614935 -0.208986
C16   C     C_R   0.510503 0.061003 0.385077 -0.214871
C17   C     C_R   0.589461 0.961048 0.651498 -0.014161
C18   C     C_R   0.409873 0.039935 0.348665 -0.014966
C19   C     C_R   0.712695 0.663701 0.351964 -0.300513
C20   C     C_R   0.287073 0.335916 0.647710 -0.298981
C21   C     C_R   0.795363 0.635925 0.376091 0.092378
C22   C     C_R   0.204595 0.363997 0.623844 0.085641
C23   C     C_R   0.999645 0.500069 0.660042 0.842004
C24   C     C_R   0.000393 0.499986 0.339952 0.840138
C25   C     C_R   0.715467 0.510269 0.488811 0.046889
C26   C     C_R   0.284392 0.489505 0.510998 0.064675
C27   C     C_R   0.628411 0.534535 0.467309 -0.020446
C28   C     C_R   0.371244 0.464904 0.532215 -0.011400
C29   C     C_R   0.629205 0.613600 0.397383 0.154211
C30   C     C_R   0.370419 0.385785 0.602095 0.154953
C31   C     C_R   0.541740 0.484216 0.512426 0.079089
C32   C     C_R   0.457792 0.515026 0.486926 0.081710
C33   C     C_R   0.463315 0.594869 0.417174 -0.190318
C34   C     C_R   0.536101 0.404190 0.582018 -0.188916
C35   C     C_R   0.547110 0.642624 0.373372 -0.178738
C36   C     C_R   0.452342 0.356489 0.625871 -0.176999
C37   C     C_3   0.982894 0.407053 0.044032 -0.145601
C38   C     C_3   0.017396 0.593280 0.955945 -0.147247
C39   C     C_3   0.909685 0.436329 0.967354 -0.151662
C40   C     C_3   0.090607 0.564004 0.032626 -0.155206
C41   C     C_1   0.999075 0.500345 0.749678 -0.155510
C42   C     C_1   0.001062 0.499835 0.250306 -0.149659
C43   C     C_3   0.072775 0.471060 0.992322 -0.153707
C44   C     C_3   0.927515 0.529273 0.007655 -0.149455
C45   C     C_3   0.999567 0.500335 0.917182 0.175660
C46   C     C_3   0.000722 0.499997 0.082797 0.175541
C47   C     C_1   0.999099 0.500420 0.825308 -0.057510
C48   C     C_1   0.001127 0.499852 0.174673 -0.054710
C49   C     C_R   0.812011 0.206771 0.528376 -0.104952
C50   C     C_R   0.187917 0.793269 0.471529 -0.099825
Cu1   Cu    Cu3+1 0.081740 0.475690 0.522610 0.967169
Cu2   Cu    Cu3+1 0.918260 0.524310 0.477390 0.974027
H1    H     H_    0.835412 0.383952 0.939192 0.144219
H2    H     H_    0.164879 0.616381 0.060790 0.143376
H3    H     H_    0.277677 0.547699 0.458449 0.125842
H4    H     H_    0.722225 0.452156 0.541430 0.131129
H5    H     H_    0.139961 0.325320 0.658681 0.123196
H6    H     H_    0.860078 0.674729 0.341363 0.122317
H7    H     H_    0.714157 0.724233 0.298281 0.144933
H8    H     H_    0.285576 0.275326 0.701344 0.144941
H9    H     H_    0.403869 0.622758 0.394513 0.139145
H10   H     H_    0.595410 0.376087 0.604482 0.142112
H11   H     H_    0.968762 0.330623 0.081555 0.146236
H12   H     H_    0.031530 0.669710 0.918419 0.146585
H13   H     H_    0.867891 0.553160 0.015323 0.144651
H14   H     H_    0.132399 0.447175 0.984650 0.142434
H15   H     H_    0.081929 0.829100 0.365643 0.154935
H16   H     H_    0.917688 0.170891 0.634542 0.154913
H17   H     H_    0.793339 0.023969 0.701464 0.181484
H18   H     H_    0.205921 0.976497 0.298818 0.182032
H19   H     H_    0.431912 0.900356 0.657738 0.175259
H20   H     H_    0.567235 0.100226 0.342084 0.177386
H21   H     H_    0.547735 0.703412 0.320100 0.148903
H22   H     H_    0.451645 0.295589 0.679044 0.149283
N1    N     N_R   0.795440 0.560790 0.443380 -0.183473
N2    N     N_R   0.204560 0.439210 0.556620 -0.185347
O1    O     O_R   0.977900 0.338120 0.529810 -0.592016
O2    O     O_R   0.022100 0.661880 0.470190 -0.592491
O3    O     O_R   0.839850 0.379180 0.491620 -0.570880
O4    O     O_R   0.160150 0.620820 0.508380 -0.572650
O5    O     O_R   0.069010 0.479460 0.640020 -0.574800
O6    O     O_R   0.930990 0.520540 0.359980 -0.566639
O7    O     O_R   0.930960 0.520530 0.601820 -0.583956
O8    O     O_R   0.069040 0.479470 0.398180 -0.587327
C51   C     C_2   0.610271 0.912959 0.742505 0.841464
O9    O     O_2   0.565316 0.912510 0.799125 -0.587606
O10   O     O_R   0.677283 0.863836 0.762614 -0.763046
H23   H     H_    0.683869 0.832845 0.826478 0.336302
C52   C     C_2   0.388895 0.088336 0.257819 0.834219
O11   O     O_2   0.433882 0.089279 0.201016 -0.583158
O12   O     O_R   0.321667 0.137188 0.238086 -0.768167
H24   H     H_    0.314981 0.168451 0.174307 0.336178
C53   C     C_2   0.318908 0.756620 0.587210 0.837447
O13   O     O_2   0.387791 0.733257 0.581654 -0.584386
O14   O     O_R   0.266653 0.714828 0.659513 -0.760142
H25   H     H_    0.293206 0.666693 0.703096 0.341962
C54   C     C_2   0.680863 0.243347 0.412486 0.839135
O15   O     O_2   0.725433 0.279212 0.348527 -0.588743
O16   O     O_R   0.602308 0.269989 0.419490 -0.755271
H26   H     H_    0.589014 0.319196 0.367310 0.340943

loop_
_geom_bond_atom_site_label_1
_geom_bond_atom_site_label_2
_ccdc_geom_bond_type
O10   H23   S    
C53   O13   D    
C27   C29   A    
C1    O1    A    
O14   H25   S    
C16   H20   S    
C25   H4    S    
C22   N2    A    
Cu2   N1    S    
C33   H9    S    
C26   H3    S    
C22   H5    S    
C4    H18   S    
C54   O15   D    
C20   C30   A    
C51   O9    D    
C36   H22   S    
C40   C46   S    
C23   O7    A    
C17   C51   S    
C3    H17   S    
C34   H10   S    
C24   C42   S    
C7    C9    A    
C24   O6    A    
Cu1   O4    S    
C38   C45   S    
C9    C13   A    
C2    C50   S    
C54   O16   S    
C40   C43   S    
C35   H21   S    
O16   H26   S    
C26   N2    A    
C4    C12   A    
Cu2   O3    S    
C23   O5    A    
Cu1   O5    S    
C37   C46   S    
C39   C45   S    
C45   C47   S    
C53   O14   S    
C13   C14   A    
C5    C49   A    
C44   H13   S    
C5    H16   S    
Cu2   O2    S    
C37   H11   S    
C44   C46   S    
C38   H12   S    
C51   O10   S    
C46   C48   S    
C27   C31   A    
Cu1   Cu2   S    
C28   C32   A    
C3    C11   A    
Cu1   N2    S    
C7    C49   A    
C4    C6    A    
C10   C14   A    
O12   H24   S    
C19   H7    S    
C25   N1    A    
C37   C43   S    
Cu2   O7    S    
Cu1   O1    S    
C38   C44   S    
C2    O2    A    
C9    C11   A    
C31   C32   A    
C41   C47   T    
C31   C34   A    
C42   C48   T    
C6    C50   A    
Cu2   O6    S    
C43   C45   S    
C10   C12   A    
C8    C10   A    
C6    H15   S    
C20   C22   A    
C40   H2    S    
C1    O3    A    
C20   H8    S    
C19   C29   A    
C8    C50   A    
C15   C17   A    
C21   N1    A    
C11   C17   A    
C7    C54   S    
C19   C21   A    
C18   C52   S    
C8    C53   S    
C3    C5    A    
C39   C44   S    
C25   C27   A    
C15   H19   S    
C29   C35   A    
C26   C28   A    
C23   C41   S    
C30   C36   A    
C32   C33   A    
C28   C30   A    
C24   O8    A    
C21   H6    S    
C37   C39   S    
C38   C40   S    
C39   H1    S    
C43   H14   S    
C33   C35   A    
C34   C36   A    
C2    O4    A    
C16   C18   A    
C52   O12   S    
C13   C16   A    
C12   C18   A    
C14   C15   A    
C52   O11   D    
C1    C49   S    
Cu1   O8    S    
