data_mof_unit_22342.cif
_audit_creation_date              2013-03-05T16:06:55-0500
_audit_creation_method            fapswitch 2.2
_symmetry_space_group_name_H-M    P1
_symmetry_Int_Tables_number       1
_space_group_crystal_system       triclinic
_cell_length_a                    14.489941
_cell_length_b                    16.283924
_cell_length_c                    6.929875
_cell_angle_alpha                 90.0
_cell_angle_beta                  98.732994
_cell_angle_gamma                 89.997481
_cell_volume                      1616.16884049

loop_
_atom_site_label
_atom_site_type_symbol
_atom_site_description
_atom_site_fract_x
_atom_site_fract_y
_atom_site_fract_z
_atom_type_partial_charge
O1    O     O_R   0.584990 0.413650 0.534420 -0.598332
O2    O     O_R   0.584990 0.586350 0.534420 -0.598311
O3    O     O_R   0.596190 0.585230 0.208380 -0.580684
O4    O     O_R   0.596190 0.414770 0.208380 -0.580685
O5    O     O_R   0.415010 0.586420 0.976930 -0.600127
O6    O     O_R   0.415010 0.413580 0.976930 -0.600126
C1    C     C_R   0.619312 0.613908 0.384258 0.972452
C2    C     C_R   0.619312 0.386091 0.384257 0.972492
O7    O     O_3   0.440560 0.500000 0.319140 -0.285567
V1    V     V_3+5 0.511030 0.500000 0.068070 1.207458
O8    O     O_R   0.403810 0.414840 0.643540 -0.600979
O9    O     O_R   0.403810 0.585160 0.643540 -0.600920
C3    C     C_R   0.381334 0.386804 0.805668 1.092553
C4    C     C_R   0.381316 0.613192 0.805664 1.092545
V2    V     V_3+5 0.488970 0.500000 0.560620 1.197108
O10   O     O_3   0.559440 0.500000 0.859420 -0.292664
H1    H     H_    0.320267 0.696896 0.097117 0.162510
H2    H     H_    0.320222 0.303142 0.097138 0.162517
C5    C     C_2   0.309878 0.677814 0.793029 -0.429345
C6    C     C_2   0.309999 0.322114 0.793028 -0.429337
C7    C     C_2   0.285066 0.714081 0.952957 -0.125725
C8    C     C_2   0.285185 0.285834 0.952936 -0.126089
H3    H     H_    0.230363 0.798881 0.245695 0.151378
H4    H     H_    0.229985 0.201431 0.245741 0.151197
C9    C     C_2   0.192182 0.816408 0.104437 -0.541860
C10   C     C_2   0.192175 0.183595 0.104373 -0.541901
C11   C     C_2   0.210241 0.777308 0.939921 0.292778
C12   C     C_2   0.210566 0.222424 0.939754 0.292854
H5    H     H_    0.276748 0.694512 0.647544 0.146648
H6    H     H_    0.276977 0.305345 0.647513 0.146777
C13   C     C_R   0.682055 0.742821 0.558940 0.124523
C14   C     C_R   0.682049 0.257176 0.558931 0.124525
C15   C     C_R   0.686272 0.684128 0.413032 -0.219442
C16   C     C_R   0.686270 0.315871 0.413030 -0.219465
C17   C     C_R   0.753333 0.697755 0.288143 -0.114391
C18   C     C_R   0.753333 0.302244 0.288144 -0.114560
H7    H     H_    0.758634 0.655492 0.169947 0.105441
H8    H     H_    0.758633 0.344509 0.169949 0.105458
C19   C     C_R   0.818167 0.763389 0.321758 -0.091301
C20   C     C_R   0.818169 0.236610 0.321762 -0.091068
H9    H     H_    0.871220 0.769324 0.228301 0.106256
H10   H     H_    0.871225 0.230673 0.228310 0.106234
C21   C     C_R   0.817940 0.817826 0.480775 -0.219701
C22   C     C_R   0.817940 0.182173 0.480776 -0.219729
C23   C     C_R   0.745551 0.807546 0.591879 0.082057
C24   C     C_R   0.745548 0.192450 0.591871 0.081976
C25   C     C_3   0.745661 0.804299 0.807608 0.007339
C26   C     C_3   0.745653 0.195694 0.807601 0.007381
C27   C     C_3   0.675676 0.732996 0.770865 0.046197
C28   C     C_3   0.675664 0.266998 0.770855 0.046230
H11   H     H_    0.814522 0.786243 0.890022 0.047807
H12   H     H_    0.814511 0.213747 0.890023 0.047667
H13   H     H_    0.703222 0.672984 0.830431 0.036668
H14   H     H_    0.703204 0.327009 0.830426 0.036653
O11   O     O_R   0.921430 0.915960 0.371040 -0.566147
O12   O     O_R   0.921430 0.084040 0.371040 -0.566154
O13   O     O_R   0.910450 0.087500 0.697310 -0.598721
O14   O     O_R   0.910450 0.912500 0.697310 -0.598548
O15   O     O_R   0.091710 0.087460 0.928430 -0.583162
O16   O     O_R   0.091710 0.912540 0.928430 -0.583240
C29   C     C_R   0.888146 0.114583 0.519570 0.983134
C30   C     C_R   0.888148 0.885415 0.519570 0.983300
O17   O     O_3   0.065970 0.000000 0.586140 -0.278527
V3    V     V_3+5 0.995640 0.000000 0.837400 1.233622
O18   O     O_R   0.103020 0.915700 0.261710 -0.609701
O19   O     O_R   0.103020 0.084300 0.261710 -0.609665
C31   C     C_R   0.123813 0.884815 0.099095 1.032942
C32   C     C_R   0.123844 0.115161 0.099085 1.032670
V4    V     V_3+5 0.017940 0.000000 0.344880 1.209351
O20   O     O_3   0.947330 0.000000 0.046180 -0.235371
N1    N     N_2   0.158005 0.796578 0.753462 -0.069363
H15   H     H_    0.197468 0.809491 0.645402 0.183986
C33   C     C_3   0.079679 0.742763 0.691712 -0.919826
H16   H     H_    0.041485 0.764346 0.549749 0.227350
H17   H     H_    0.030782 0.743405 0.800737 0.239437
H18   H     H_    0.104150 0.679001 0.673312 0.235699
N2    N     N_2   0.158995 0.202614 0.752978 -0.069123
H19   H     H_    0.198935 0.189693 0.645742 0.184243
C34   C     C_3   0.080433 0.255974 0.689561 -0.918467
H20   H     H_    0.042974 0.234127 0.547154 0.227540
H21   H     H_    0.104536 0.319871 0.671417 0.235182
H22   H     H_    0.031003 0.255102 0.797483 0.239267
N3    N     N_R   0.707596 0.879346 0.880990 0.299369
O21   O     O_R   0.747590 0.911246 0.044414 -0.309758
O22   O     O_R   0.635072 0.915549 0.783238 -0.247650
N4    N     N_R   0.707592 0.120647 0.880977 0.299380
O23   O     O_R   0.747575 0.088753 0.044421 -0.309753
O24   O     O_R   0.635077 0.084443 0.783210 -0.247657
N5    N     N_R   0.582464 0.751422 0.817338 0.287723
O25   O     O_R   0.569365 0.754294 0.998721 -0.351916
O26   O     O_R   0.511339 0.760935 0.679857 -0.364288
N6    N     N_R   0.582452 0.248572 0.817318 0.287718
O27   O     O_R   0.569348 0.245708 0.998697 -0.351906
O28   O     O_R   0.511334 0.239046 0.679830 -0.364340

loop_
_geom_bond_atom_site_label_1
_geom_bond_atom_site_label_2
_geom_bond_distance
_ccdc_geom_bond_type
O14   C30   1.302009 A    
O19   C32   1.310315 A    
C27   H13   1.111134 S    
O1    C2    1.299503 A    
C33   H17   1.111516 S    
C33   H16   1.110087 S    
O2    C1    1.299518 A    
C9    C31   1.487426 S    
O4    C2    1.300698 A    
C25   C27   1.537210 S    
C6    H6    1.083452 S    
N2    H19   1.030548 S    
O15   V3    2.024248 S    
C28   H14   1.111131 S    
C5    C7    1.351774 D    
H4    C10   1.086867 S    
O3    C1    1.300713 A    
N4    O24   1.301740 A    
O19   V4    1.988039 S    
V2    O10   2.165222 S    
O11   C30   1.300064 A    
C23   C25   1.495673 S    
O8    V2    1.997843 S    
O17   V4    1.710636 S    
O16   C31   1.285251 A    
O18   C31   1.310227 A    
C13   C15   1.399404 A    
O1    V2    2.005605 S    
V3    O20   1.700248 S    
N5    O26   1.302167 A    
O7    V1    2.146937 S    
C20   H10   1.082097 S    
C7    C11   1.487911 S    
C8    C12   1.487845 S    
C1    C15   1.493303 S    
C13   C27   1.494049 S    
C22   C24   1.402232 A    
N2    C34   1.446376 S    
O14   V3    2.032891 S    
C24   C26   1.495681 S    
C18   C20   1.418675 A    
C19   H9    1.082096 S    
N1    C33   1.446299 S    
N4    O23   1.299606 A    
C19   C21   1.414648 A    
H1    C7    1.087080 S    
C34   H20   1.110144 S    
C14   C16   1.399397 A    
C17   C19   1.418700 A    
C12   N2    1.429711 S    
O15   C32   1.285172 A    
N3    O21   1.299604 A    
O9    V2    1.997766 S    
C20   C22   1.414635 A    
N6    O28   1.302167 A    
C2    C16   1.493241 S    
O2    V2    2.005690 S    
C21   C23   1.402243 A    
C14   C28   1.494053 S    
O5    C4    1.288818 A    
O11   V4    1.984540 S    
C28   N6    1.466289 S    
N3    O22   1.301738 A    
C6    C8    1.351770 D    
C25   N3    1.463341 S    
C33   H18   1.110741 S    
C26   N4    1.463340 S    
O4    V1    2.007440 S    
C5    H5    1.083447 S    
C11   N1    1.429677 S    
O13   V3    2.032815 S    
C34   H21   1.110755 S    
C3    C6    1.469140 S    
C17   H7    1.081458 S    
H2    C8    1.087082 S    
C14   C24   1.394889 A    
C4    C5    1.469322 S    
C27   N5    1.466289 S    
O6    V1    2.012063 S    
C34   H22   1.111397 S    
C25   H11   1.111362 S    
O13   C29   1.301992 A    
C22   C29   1.495119 S    
C9    C11   1.365357 D    
C10   C12   1.365474 D    
O16   V3    2.024163 S    
C10   C32   1.487480 S    
C18   H8    1.081460 S    
O9    C4    1.299245 A    
O5    V1    2.011976 S    
O3    V1    2.007514 S    
V1    O10   1.700209 S    
O6    C3    1.288772 A    
O8    C3    1.299199 A    
O18   V4    1.987966 S    
C26   C28   1.537203 S    
N6    O27   1.300230 A    
C15   C17   1.413469 A    
C16   C18   1.413456 A    
H3    C9    1.086884 S    
O7    V2    1.713463 S    
V4    O20   2.165274 S    
O17   V3    2.146886 S    
C26   H12   1.111365 S    
N1    H15   1.030527 S    
O12   V4    1.984454 S    
C13   C23   1.394911 A    
O12   C29   1.300046 A    
N5    O25   1.300230 A    
C21   C30   1.495191 S    
