data_mof_unit_58044.cif
_audit_creation_date              2012-12-10T20:36:33-0500
_audit_creation_method            fapswitch 2.2
_symmetry_space_group_name_H-M    P1
_symmetry_Int_Tables_number       1
_space_group_crystal_system       triclinic
_cell_length_a                    10.497024
_cell_length_b                    10.741232
_cell_length_c                    9.869682
_cell_angle_alpha                 90.066474
_cell_angle_beta                  89.442587
_cell_angle_gamma                 89.980747
_cell_volume                      1112.76274179

loop_
_atom_site_label
_atom_site_type_symbol
_atom_type_description
_atom_site_fract_x
_atom_site_fract_y
_atom_site_fract_z
_atom_type_partial_charge
C1    C     C_R   0.500855 0.260518 0.499881 0.900724
C2    C     C_3   0.961417 0.498873 0.370214 -0.131841
C3    C     C_3   0.043325 0.397091 0.437027 -0.190041
C4    C     C_3   0.122251 0.500202 0.501804 0.015703
C5    C     C_R   0.520070 0.062062 0.615955 0.058188
C6    C     C_R   0.500248 0.129293 0.498466 -0.107043
C7    C     C_R   0.477726 0.064681 0.376814 -0.194463
C8    C     C_R   0.476222 0.935449 0.376803 -0.212032
C9    C     C_R   0.496283 0.870754 0.498620 -0.067753
C10   C     C_R   0.515607 0.937828 0.616144 0.051589
C11   C     C_3   0.542859 0.926327 0.763370 -0.536393
C12   C     C_R   0.257289 0.500081 0.500651 0.856763
C13   C     C_3   0.548191 0.069760 0.764035 0.350875
C14   C     C_R   0.445060 0.404317 0.071669 0.243785
C15   C     C_R   0.564741 0.587934 0.071393 -0.130888
C16   C     C_R   0.564891 0.587823 0.927436 -0.105374
C17   C     C_R   0.444897 0.404442 0.929205 0.288577
C18   C     C_3   0.308528 0.366168 0.925125 -0.541694
C19   C     C_3   0.308848 0.365562 0.079024 -0.523838
C20   C     C_R   0.498880 0.739496 0.499905 0.878780
C21   C     C_R   0.742698 0.499929 0.499306 0.891464
C22   C     C_3   0.038473 0.501308 0.629358 -0.137376
C23   C     C_3   0.956906 0.398177 0.564484 -0.140947
C24   C     C_3   0.877714 0.499944 0.497878 0.016988
C25   C     C_3   0.956626 0.603082 0.562534 -0.176739
C26   C     C_3   0.043081 0.602001 0.435089 -0.176859
H1    H     H_    0.917143 0.315304 0.616797 0.190321
H2    H     H_    0.635438 0.879250 0.781658 0.239044
H3    H     H_    0.470955 0.114627 0.824422 0.048843
H4    H     H_    0.615016 0.660331 0.125204 0.155873
H5    H     H_    0.615566 0.659857 0.872768 0.146353
H6    H     H_    0.246330 0.439555 0.882135 0.214314
H7    H     H_    0.296186 0.272068 0.880246 0.199686
H8    H     H_    0.246188 0.438119 0.124731 0.225159
H9    H     H_    0.297476 0.270948 0.123015 0.201287
H10   H     H_    0.073027 0.502690 0.735188 0.144665
H11   H     H_    0.916418 0.686829 0.613316 0.150354
H12   H     H_    0.083083 0.684885 0.382748 0.141931
H13   H     H_    0.925982 0.497855 0.264584 0.157872
H14   H     H_    0.083580 0.313394 0.386189 0.144192
H15   H     H_    0.461079 0.113088 0.282363 0.173318
H16   H     H_    0.459421 0.887106 0.282242 0.170448
H17   H     H_    0.460458 0.887834 0.821141 0.168987
N1    N     N_R   0.499140 0.499140 0.142800 -0.114319
N2    N     N_R   0.499140 0.499180 0.857150 -0.104267
O1    O     O_R   0.500020 0.316790 0.614690 -0.594976
O2    O     O_R   0.500000 0.316760 0.385350 -0.624224
O3    O     O_R   0.313960 0.499990 0.614650 -0.636108
O4    O     O_R   0.313940 0.499950 0.385310 -0.627338
O5    O     O_R   0.500000 0.683240 0.614650 -0.626714
O6    O     O_R   0.499980 0.683210 0.385310 -0.634351
O7    O     O_R   0.686060 0.500050 0.614690 -0.585592
O8    O     O_R   0.686040 0.500010 0.385350 -0.624679
Zn1   Zn    Zn3+2 0.500010 0.500020 0.653130 0.984739
Zn2   Zn    Zn3+2 0.499990 0.499980 0.346870 0.953316
S1    S     S_3+6 0.704597 0.127990 0.797743 0.000661
O9    O     O_2   0.704122 0.267751 0.793801 -0.298399
O10   O     O_2   0.744114 0.085507 0.936170 -0.311940
O11   O     O_3   0.808076 0.073022 0.680982 -0.575261
H18   H     H_    0.893398 0.094246 0.716208 0.366647

loop_
_geom_bond_atom_site_label_1
_geom_bond_atom_site_label_2
_ccdc_geom_bond_type
C16   N2    A    
C15   N1    A    
C8    H16   S    
C4    C26   S    
C23   C24   S    
C11   H17   S    
C6    C7    A    
C23   H1    S    
C2    C3    S    
C4    C12   S    
C4    C22   S    
C9    C10   A    
C2    H13   S    
C9    C20   S    
C3    C23   S    
C14   C17   A    
S1    O11   S    
C12   O3    A    
C13   S1    S    
O1    Zn1   S    
C7    H15   S    
C12   O4    A    
O2    Zn2   S    
C7    C8    A    
C2    C26   S    
C19   H9    S    
C24   C25   S    
C16   H5    S    
O3    Zn1   S    
C11   C13   S    
N1    Zn2   S    
O5    Zn1   S    
C11   H2    S    
C21   O8    A    
C13   H3    S    
O7    Zn1   S    
N2    Zn1   S    
C17   C18   S    
C20   O6    A    
O6    Zn2   S    
O8    Zn2   S    
C2    C24   S    
C5    C6    A    
C18   H7    S    
C1    O1    A    
C18   H6    S    
C10   C11   S    
C17   N2    A    
C5    C10   A    
C15   C16   A    
O11   H18   S    
C22   H10   S    
S1    O9    D    
C15   H4    S    
C14   N1    A    
C18   C19   S    
C21   C24   S    
C22   C23   S    
C26   H12   S    
C20   O5    A    
C3    H14   S    
C25   H11   S    
C25   C26   S    
O4    Zn2   S    
C5    C13   S    
C14   C19   S    
C19   H8    S    
C21   O7    A    
C1    O2    A    
C3    C4    S    
C1    C6    S    
S1    O10   D    
C8    C9    A    
C22   C25   S    
