data_mof_unit_17803.cif
_audit_creation_date              2012-12-10T16:59:14-0500
_audit_creation_method            fapswitch 2.2
_symmetry_space_group_name_H-M    P1
_symmetry_Int_Tables_number       1
_space_group_crystal_system       triclinic
_cell_length_a                    7.740602
_cell_length_b                    8.556973
_cell_length_c                    27.721148
_cell_angle_alpha                 90.962633
_cell_angle_beta                  86.174481
_cell_angle_gamma                 93.695808
_cell_volume                      1828.09603992

loop_
_atom_site_label
_atom_site_type_symbol
_atom_type_description
_atom_site_fract_x
_atom_site_fract_y
_atom_site_fract_z
_atom_type_partial_charge
C1    C     C_R   0.545896 0.794834 0.498734 0.972612
C2    C     C_R   0.515009 0.642430 0.128052 -0.040623
C3    C     C_R   0.510157 0.499742 0.646425 -0.112296
C4    C     C_R   0.489844 0.500287 0.353575 -0.112290
C5    C     C_R   0.534379 0.643164 0.025812 0.047540
C6    C     C_R   0.465636 0.356975 0.974191 0.047558
C7    C     C_R   0.453945 0.358308 0.025459 0.047452
C8    C     C_R   0.545951 0.641851 0.974543 0.047467
C9    C     C_R   0.489228 0.501246 0.050909 0.080556
C10   C     C_R   0.510731 0.498901 0.949094 0.080550
C11   C     C_R   0.566004 0.782194 0.053166 -0.218227
C12   C     C_R   0.454104 0.205165 0.501266 0.972614
C13   C     C_R   0.434204 0.217913 0.946838 -0.218194
C14   C     C_R   0.556700 0.781364 0.103213 -0.126976
C15   C     C_R   0.443533 0.218734 0.896791 -0.126965
C16   C     C_R   0.502927 0.499941 0.593915 0.927685
C17   C     C_R   0.497073 0.500061 0.406085 0.927688
C18   C     C_R   0.592426 0.779030 0.947530 -0.218500
C19   C     C_R   0.407280 0.221162 0.052471 -0.218537
C20   C     C_2   0.570158 0.958306 0.498003 -0.368646
C21   C     C_2   0.429842 0.041694 0.501997 -0.368648
C22   C     C_R   0.567806 0.634669 0.821792 0.603492
C23   C     C_R   0.520156 0.497963 0.897835 -0.046677
C24   C     C_R   0.432033 0.365485 0.178209 0.603495
C25   C     C_R   0.490628 0.360176 0.821461 0.606458
C26   C     C_R   0.509498 0.639926 0.178541 0.606466
C27   C     C_R   0.669243 0.458435 0.717294 0.441418
C28   C     C_R   0.330740 0.541592 0.282709 0.441385
C29   C     C_R   0.661671 0.459541 0.667024 -0.339551
C30   C     C_R   0.338311 0.540442 0.332979 -0.339547
C31   C     C_R   0.365831 0.540019 0.676173 -0.332726
C32   C     C_R   0.634187 0.460089 0.323823 -0.332718
C33   C     C_R   0.372256 0.540627 0.726464 0.437706
C34   C     C_R   0.479811 0.502178 0.102167 -0.046671
C35   C     C_R   0.627757 0.459508 0.273532 0.437669
C36   C     C_R   0.524091 0.499228 0.746558 0.246250
C37   C     C_R   0.475907 0.500872 0.253442 0.246339
C38   C     C_R   0.563666 0.637473 0.872293 -0.037650
C39   C     C_R   0.436173 0.362688 0.127708 -0.037660
C40   C     C_R   0.600528 0.776550 0.897477 -0.128065
C41   C     C_R   0.399169 0.223640 0.102523 -0.128083
C42   C     C_R   0.485094 0.357686 0.871950 -0.040622
H1    H     H_    0.248778 0.571703 0.660408 0.170275
H2    H     H_    0.416887 0.109349 0.877609 0.196180
H3    H     H_    0.598856 0.894925 0.037350 0.140352
H4    H     H_    0.401545 0.105155 0.962657 0.140260
H5    H     H_    0.624097 0.891504 0.963624 0.140983
H6    H     H_    0.375410 0.108724 0.036376 0.141078
H7    H     H_    0.702635 0.009470 0.494189 0.180934
H8    H     H_    0.297365 0.990530 0.505811 0.180934
H9    H     H_    0.138121 0.609702 0.737101 0.356963
H10   H     H_    0.861900 0.390469 0.262887 0.356992
H11   H     H_    0.094797 0.608444 0.286741 0.338617
H12   H     H_    0.751256 0.428444 0.339584 0.170275
H13   H     H_    0.905171 0.391519 0.713268 0.338623
H14   H     H_    0.014077 0.383182 0.463432 0.193418
H15   H     H_    0.985923 0.616818 0.536567 0.193418
H16   H     H_    0.635723 0.884958 0.878562 0.194221
H17   H     H_    0.363850 0.115252 0.121437 0.194277
H18   H     H_    0.226583 0.571937 0.355852 0.172020
H19   H     H_    0.773379 0.427975 0.644154 0.172018
H20   H     H_    0.583471 0.890728 0.122396 0.196234
N1    N     N_R   0.529827 0.497639 0.797765 -0.318960
N2    N     N_R   0.470162 0.502482 0.202236 -0.318940
N3    N     N_2   0.950320 0.457960 0.486880 -0.176163
N4    N     N_2   0.049680 0.542040 0.513120 -0.176162
O1    O     O_R   0.389250 0.738570 0.503220 -0.613768
O2    O     O_2   0.391693 0.232600 0.203217 -0.519200
O3    O     O_2   0.544830 0.773020 0.203860 -0.514987
O4    O     O_2   0.455454 0.227050 0.796142 -0.514922
O5    O     O_3   0.232922 0.580538 0.756877 -0.720891
O6    O     O_3   0.767096 0.419646 0.243115 -0.720905
O7    O     O_3   0.184369 0.581914 0.261182 -0.727685
O8    O     O_3   0.815597 0.418079 0.738825 -0.727653
O9    O     O_R   0.610750 0.261430 0.496780 -0.613767
O10   O     O_R   0.678390 0.711630 0.494810 -0.629986
O11   O     O_R   0.321610 0.288370 0.505190 -0.629985
O12   O     O_R   0.355440 0.513440 0.575450 -0.621689
O13   O     O_R   0.644560 0.486560 0.424550 -0.621688
O14   O     O_R   0.644590 0.486500 0.567040 -0.631605
O15   O     O_R   0.355410 0.513500 0.432960 -0.631607
O16   O     O_2   0.607998 0.767577 0.796783 -0.519139
Zn1   Zn    Zn3+2 0.306940 0.517990 0.505620 0.949551
Zn2   Zn    Zn3+2 0.693060 0.482010 0.494380 0.949552

loop_
_geom_bond_atom_site_label_1
_geom_bond_atom_site_label_2
_ccdc_geom_bond_type
O1    Zn1   S    
C27   C29   A    
H15   N4    S    
O14   Zn2   S    
C18   H5    S    
O10   Zn2   S    
C39   C41   A    
C23   C42   A    
C31   H1    S    
C22   O16   S    
C35   C37   A    
C15   H2    S    
C5    C11   A    
O13   Zn2   S    
C11   C14   A    
O9    Zn2   S    
O11   Zn1   S    
H14   N3    S    
C14   H20   S    
C17   O13   A    
C33   C36   A    
C25   N1    A    
C3    C29   A    
C26   N2    A    
C18   C40   A    
N4    Zn1   S    
H13   O8    S    
O12   Zn1   S    
C30   H18   S    
C31   C33   A    
C36   N1    S    
C16   O12   A    
C2    C34   A    
C22   N1    A    
C24   N2    A    
H9    O5    S    
C28   O7    S    
C32   H12   S    
C21   H8    S    
O15   Zn1   S    
C29   H19   S    
C40   H16   S    
C34   C39   A    
C32   C35   A    
C41   H17   S    
C24   O2    S    
C19   H6    S    
N3    Zn2   S    
C12   C21   S    
C8    C18   A    
C16   O14   A    
C5    C9    A    
C20   H7    S    
H10   O6    S    
C12   O11   A    
C2    C26   A    
C3    C31   A    
C4    C32   A    
C4    C17   S    
C35   O6    S    
C7    C19   A    
C13   C15   A    
C9    C34   A    
C10   C23   A    
C11   H3    S    
C27   O8    S    
C37   N2    S    
C7    C9    A    
C1    C20   S    
C1    O10   A    
H11   O7    S    
C15   C42   A    
C25   C42   A    
C6    C10   A    
C5    C8    A    
C6    C7    A    
C27   C36   A    
C23   C38   A    
C28   C30   A    
C6    C13   A    
C38   C40   A    
C13   H4    S    
C28   C37   A    
C1    O1    A    
C17   O15   A    
C2    C14   A    
C33   O5    S    
C20   C21   D    
C8    C10   A    
N3    N4    D    
C12   O9    A    
C26   O3    S    
C25   O4    S    
C24   C39   A    
C4    C30   A    
C3    C16   S    
C19   C41   A    
C22   C38   A    
