data_mof_unit_18782.cif
_audit_creation_date              2012-12-11T16:20:23-0500
_audit_creation_method            fapswitch 2.2
_symmetry_space_group_name_H-M    P1
_symmetry_Int_Tables_number       1
_space_group_crystal_system       triclinic
_cell_length_a                    6.932581
_cell_length_b                    34.149751
_cell_length_c                    38.404029
_cell_angle_alpha                 99.542195
_cell_angle_beta                  89.73273
_cell_angle_gamma                 90.41603
_cell_volume                      8965.90658375

loop_
_atom_site_label
_atom_site_type_symbol
_atom_type_description
_atom_site_fract_x
_atom_site_fract_y
_atom_site_fract_z
_atom_type_partial_charge
O1    O     O_R   0.494320 0.461440 0.460990 -0.538095
O2    O     O_R   0.821450 0.462560 0.532500 -0.536383
O3    O     O_R   0.994330 0.538560 0.539010 -0.541794
C1    C     C_R   0.652144 0.454393 0.544019 0.732722
O4    O     O_R   0.823870 0.456770 0.460860 -0.541167
O5    O     O_R   0.996760 0.532730 0.466860 -0.541167
C2    C     C_R   0.655012 0.446299 0.447766 0.713828
O6    O     O_R   0.491880 0.467270 0.533140 -0.531181
O7    O     O_3   0.661650 0.524930 0.502050 -0.371354
V1    V     V_3+5 0.935500 0.495380 0.499620 1.397346
O8    O     O_R   0.326630 0.537440 0.467500 -0.533582
C3    C     C_R   0.159100 0.545100 0.455610 0.718113
O9    O     O_R   0.324210 0.543230 0.539140 -0.543184
C4    C     C_R   0.154906 0.554649 0.551608 0.686743
V2    V     V_3+5 0.435810 0.504620 0.500380 1.390660
O10   O     O_3   0.159790 0.475070 0.497950 -0.361505
C5    C     C_R   0.195342 0.817171 0.809058 0.564893
N1    N     N_R   0.030368 0.818238 0.829447 -0.525532
C6    C     C_R   0.926728 0.783179 0.826112 0.564882
C7    C     C_R   0.922219 0.756701 0.793605 -0.059406
C8    C     C_R   0.074956 0.759145 0.769720 -0.036098
C9    C     C_R   0.217482 0.788673 0.778193 -0.034572
C10   C     C_R   0.777821 0.726835 0.784887 0.074732
C11   C     C_R   0.795856 0.699222 0.753560 -0.166339
C12   C     C_R   0.952708 0.700542 0.730539 -0.051380
C13   C     C_R   0.092723 0.730558 0.738615 -0.028635
C14   C     C_R   0.252544 0.731598 0.715959 -0.025313
C15   C     C_R   0.394995 0.761035 0.724904 -0.149431
C16   C     C_R   0.378012 0.789138 0.755690 -0.196055
C17   C     C_R   0.972049 0.672507 0.699394 0.584875
N2    N     N_R   0.125734 0.674330 0.676983 -0.550573
C18   C     C_R   0.265877 0.703044 0.684937 0.571576
O11   O     O_2   0.342222 0.842279 0.819308 -0.558032
O12   O     O_2   0.855274 0.770496 0.854843 -0.540589
H1    H     H_    0.684135 0.676871 0.747005 0.164186
O13   O     O_2   0.838718 0.643389 0.691764 -0.534274
O14   O     O_2   0.416295 0.704381 0.662743 -0.534935
H2    H     H_    0.520520 0.762373 0.708236 0.167688
H3    H     H_    0.490877 0.811288 0.761728 0.159959
C19   C     C_R   0.987758 0.643483 0.619629 -0.094483
H4    H     H_    0.870693 0.664280 0.625358 0.138812
C20   C     C_R   0.988485 0.614674 0.588544 0.029120
C21   C     C_R   0.145370 0.587426 0.582686 -0.090426
C22   C     C_R   0.297503 0.591308 0.607245 -0.238433
H5    H     H_    0.419397 0.571405 0.603224 0.143605
C23   C     C_R   0.292918 0.619982 0.637769 -0.107692
H6    H     H_    0.409636 0.621466 0.656593 0.162353
C24   C     C_R   0.136981 0.645978 0.644456 0.336605
C25   C     C_R   0.864365 0.853280 0.885916 0.170170
C26   C     C_R   0.893827 0.881389 0.916288 -0.270446
H7    H     H_    0.811280 0.878835 0.939846 0.141742
C27   C     C_R   0.002097 0.915799 0.915354 -0.098800
C28   C     C_R   0.069986 0.923350 0.882133 0.111038
C29   C     C_R   0.052943 0.892899 0.851674 0.107059
C30   C     C_R   0.985141 0.854066 0.855884 0.238570
C31   C     C_R   0.129422 0.863729 0.181127 0.574167
O15   O     O_2   0.190690 0.901726 0.189131 -0.529753
N3    N     N_R   0.052537 0.849822 0.148520 -0.540807
C32   C     C_R   0.985247 0.811447 0.140742 0.535756
C33   C     C_R   0.863552 0.877460 0.103850 -0.117423
C34   C     C_R   0.845252 0.900571 0.076900 0.037750
C35   C     C_R   0.175440 0.923671 0.088777 -0.236415
C36   C     C_R   0.193921 0.898616 0.113870 -0.107368
C37   C     C_R   0.037203 0.875637 0.122123 0.350764
C38   C     C_R   0.058637 0.800568 0.200019 -0.068411
C39   C     C_R   0.143882 0.838657 0.206601 -0.024426
C40   C     C_R   0.242027 0.850882 0.238407 -0.137202
C41   C     C_R   0.964357 0.787739 0.167556 -0.055434
C42   C     C_R   0.003180 0.925262 0.069701 -0.075565
H8    H     H_    0.297540 0.942169 0.084450 0.136644
H9    H     H_    0.331116 0.897338 0.126968 0.142062
H10   H     H_    0.314875 0.879409 0.243614 0.167421
C43   C     C_R   0.157454 0.568704 0.426618 -0.073847
C44   C     C_R   0.148001 0.765180 0.286111 -0.035375
C45   C     C_R   0.030865 0.709499 0.242388 0.062447
C46   C     C_R   0.105639 0.724310 0.276515 0.042262
C47   C     C_R   0.180232 0.780346 0.322367 0.067902
C48   C     C_R   0.243130 0.754212 0.345083 0.136094
C49   C     C_R   0.207148 0.712612 0.335486 -0.078274
C50   C     C_R   0.132319 0.698281 0.301426 -0.084451
C51   C     C_R   0.087491 0.657601 0.291832 -0.003033
C52   C     C_R   0.110298 0.631941 0.316427 0.529477
N4    N     N_R   0.179320 0.645765 0.349506 -0.548762
C53   C     C_R   0.231520 0.684869 0.359162 0.581990
C54   C     C_R   0.052556 0.627268 0.404275 -0.139122
C55   C     C_R   0.043193 0.602630 0.429743 -0.264562
C56   C     C_R   0.278366 0.558494 0.396620 0.085261
C57   C     C_R   0.301015 0.585471 0.372167 0.107427
C58   C     C_R   0.181001 0.619532 0.375619 0.317092
O16   O     O_2   0.302537 0.696613 0.391838 -0.534524
C59   C     C_R   0.153104 0.789379 0.259219 0.044126
C60   C     C_R   0.068535 0.775366 0.225946 0.067209
C61   C     C_R   0.996766 0.736133 0.218254 0.005274
C62   C     C_R   0.250123 0.826317 0.263907 -0.209131
H11   H     H_    0.947718 0.610319 0.452219 0.135820
H12   H     H_    0.959573 0.652947 0.406930 0.142781
H13   H     H_    0.334640 0.836429 0.287328 0.131689
O17   O     O_2   0.951391 0.795624 0.106767 -0.546647
C63   C     C_R   0.858059 0.751473 0.163211 0.095395
H14   H     H_    0.742186 0.859776 0.110298 0.123168
C64   C     C_R   0.993456 0.668412 0.233488 -0.190145
C65   C     C_R   0.019942 0.643108 0.257823 -0.138232
O18   O     O_2   0.063622 0.593242 0.307256 -0.552149
C66   C     C_R   0.888005 0.725225 0.187183 -0.204496
H15   H     H_    0.948158 0.654701 0.207454 0.120275
H16   H     H_    0.987912 0.611841 0.249666 0.165032
H17   H     H_    0.814566 0.696964 0.182024 0.122180
C67   C     C_R   0.436919 0.326466 0.647591 0.597534
O19   O     O_2   0.291095 0.328719 0.624889 -0.517018
N5    N     N_R   0.596386 0.350270 0.646948 -0.556336
C68   C     C_R   0.748585 0.347530 0.668943 0.566656
C69   C     C_R   0.549561 0.417937 0.631397 0.103396
C70   C     C_R   0.569155 0.444036 0.606014 0.113960
C71   C     C_R   0.699978 0.389550 0.563569 -0.247760
C72   C     C_R   0.684355 0.364285 0.588449 -0.093302
C73   C     C_R   0.608213 0.377739 0.622080 0.321373
C74   C     C_R   0.575038 0.297948 0.695921 -0.051715
C75   C     C_R   0.425098 0.299422 0.671700 -0.085442
C76   C     C_R   0.274079 0.271991 0.670270 -0.143019
C77   C     C_R   0.740640 0.321540 0.693772 -0.020911
C78   C     C_R   0.640324 0.429041 0.571717 -0.073619
H18   H     H_    0.756773 0.378079 0.537575 0.137485
H19   H     H_    0.730861 0.333774 0.581491 0.141828
H20   H     H_    0.166456 0.270630 0.649687 0.176753
C79   C     C_R   0.511148 0.070567 0.928002 -0.095561
C80   C     C_R   0.382349 0.223813 0.750018 0.042554
C81   C     C_R   0.697241 0.249558 0.774342 0.004896
C82   C     C_R   0.536149 0.223495 0.774440 0.027948
C83   C     C_R   0.210212 0.203695 0.756529 -0.192723
C84   C     C_R   0.201456 0.178187 0.781265 -0.142090
C85   C     C_R   0.359784 0.174117 0.802659 -0.021169
C86   C     C_R   0.524686 0.197824 0.800184 -0.050115
C87   C     C_R   0.676297 0.196398 0.824040 -0.077970
C88   C     C_R   0.667411 0.169285 0.847938 0.562627
N6    N     N_R   0.508419 0.145589 0.849271 -0.552011
C89   C     C_R   0.353872 0.148287 0.827771 0.556285
C90   C     C_R   0.564631 0.079398 0.866534 0.093612
C91   C     C_R   0.578933 0.055487 0.893598 0.101394
C92   C     C_R   0.441491 0.109261 0.935730 -0.273760
C93   C     C_R   0.437844 0.134049 0.910113 0.101550
C94   C     C_R   0.500200 0.119298 0.875268 0.310871
O20   O     O_2   0.195531 0.126016 0.830653 -0.541484
C95   C     C_R   0.399772 0.246497 0.721900 0.004318
C96   C     C_R   0.561714 0.272389 0.721746 0.029594
C97   C     C_R   0.715074 0.272027 0.746233 0.042886
C98   C     C_R   0.268411 0.243512 0.692726 0.148650
H21   H     H_    0.067894 0.162318 0.784083 0.163734
H22   H     H_    0.076803 0.208320 0.743697 0.149889
O21   O     O_2   0.907294 0.369960 0.666854 -0.534733
C99   C     C_R   0.898209 0.317339 0.715267 -0.142726
H23   H     H_    0.032332 0.333092 0.712636 0.163918
C100  C     C_R   0.828637 0.252834 0.803476 0.151863
C101  C     C_R   0.825953 0.224110 0.825571 -0.149796
O22   O     O_2   0.815513 0.167035 0.870048 -0.538348
C102  C     C_R   0.888124 0.291805 0.739847 -0.195002
H24   H     H_    0.392389 0.120449 0.962336 0.129112
H25   H     H_    0.934194 0.225600 0.846057 0.168095
H26   H     H_    0.020995 0.286972 0.752791 0.150807
C103  C     C_R   0.527059 0.164559 0.208565 0.549599
N7    N     N_R   0.533608 0.175521 0.175793 -0.545517
C104  C     C_R   0.543763 0.214567 0.172004 0.566083
C105  C     C_R   0.551756 0.244530 0.201791 -0.018605
C106  C     C_R   0.556586 0.234011 0.235846 -0.028887
C107  C     C_R   0.546626 0.193420 0.239891 -0.066373
C108  C     C_R   0.556716 0.284806 0.198109 -0.145719
C109  C     C_R   0.566570 0.314533 0.227680 -0.148988
C110  C     C_R   0.575059 0.304765 0.261700 -0.019363
C111  C     C_R   0.571289 0.264431 0.265779 -0.016703
C112  C     C_R   0.581909 0.254693 0.299768 -0.060536
C113  C     C_R   0.575110 0.214737 0.303908 -0.146031
C114  C     C_R   0.557630 0.183620 0.274797 0.063919
C115  C     C_R   0.587495 0.334459 0.291847 0.563180
N8    N     N_R   0.604132 0.324378 0.324784 -0.550901
C116  C     C_R   0.600490 0.285357 0.329178 0.571869
O23   O     O_2   0.499669 0.125865 0.210372 -0.543872
O24   O     O_2   0.546930 0.224378 0.139381 -0.526489
H27   H     H_    0.552392 0.293565 0.172279 0.169925
H28   H     H_    0.569478 0.345209 0.223734 0.169163
O25   O     O_2   0.582189 0.373076 0.288258 -0.530520
O26   O     O_2   0.615431 0.276208 0.361915 -0.525911
H29   H     H_    0.583396 0.208237 0.330398 0.164049
C117  C     C_R   0.462271 0.363326 0.378248 -0.139555
H30   H     H_    0.330228 0.346366 0.372928 0.135003
C118  C     C_R   0.472791 0.393047 0.407958 -0.207377
H31   H     H_    0.346988 0.398693 0.424825 0.143023
C119  C     C_R   0.644420 0.414694 0.416140 -0.089696
C120  C     C_R   0.804900 0.406162 0.393657 -0.192988
H32   H     H_    0.937999 0.422715 0.399597 0.127464
C121  C     C_R   0.794237 0.376821 0.363223 0.184241
C122  C     C_R   0.620619 0.355196 0.355420 0.385846
C123  C     C_R   0.361391 0.140078 0.123799 -0.132589
H33   H     H_    0.238807 0.159178 0.130923 0.134847
C124  C     C_R   0.350920 0.110418 0.093970 -0.214004
H34   H     H_    0.218857 0.107058 0.078780 0.142635
C125  C     C_R   0.509597 0.085719 0.083711 -0.089897
C126  C     C_R   0.679098 0.091481 0.104027 -0.186828
H35   H     H_    0.802929 0.072754 0.096477 0.133217
C127  C     C_R   0.689587 0.120782 0.134436 0.181863
C128  C     C_R   0.528401 0.145217 0.144571 0.393089
O27   O     O_R   0.662230 0.032770 0.966890 -0.532195
O28   O     O_R   0.330090 0.043230 0.039150 -0.540139
O29   O     O_R   0.157350 0.967260 0.033130 -0.539809
C129  C     C_R   0.498972 0.053910 0.052157 0.712599
O30   O     O_R   0.332650 0.037450 0.967510 -0.541162
O31   O     O_R   0.159930 0.961430 0.960980 -0.535390
C130  C     C_R   0.501888 0.045502 0.955915 0.739445
O32   O     O_R   0.659640 0.038600 0.039040 -0.538223
O33   O     O_3   0.492510 0.975090 0.997960 -0.371081
V3    V     V_3+5 0.218600 0.004620 0.000380 1.393229
O34   O     O_R   0.830050 0.956730 0.960830 -0.538161
C131  C     C_R   0.998236 0.946770 0.947495 0.719346
O35   O     O_R   0.827490 0.962520 0.032470 -0.541620
C132  C     C_R   0.995248 0.953127 0.043389 0.698344
V4    V     V_3+5 0.718310 0.995320 0.999580 1.393671
O36   O     O_3   0.994270 0.024900 0.002040 -0.363914
C133  C     C_3   0.591870 0.725807 0.805664 -0.314657
C134  C     C_3   0.596012 0.693559 0.829018 -0.290655
C135  C     C_3   0.410470 0.693815 0.850606 -0.727662
H36   H     H_    0.393814 0.722837 0.868290 0.244731
H37   H     H_    0.283520 0.688484 0.832844 0.229327
H38   H     H_    0.415810 0.669992 0.867043 0.216689
H39   H     H_    0.611763 0.663937 0.812218 0.185390
H40   H     H_    0.720808 0.698369 0.847299 0.237141
H41   H     H_    0.559864 0.755191 0.821636 0.204913
H42   H     H_    0.469471 0.719497 0.786921 0.171511
C136  C     C_3   0.145820 0.964175 0.878413 -0.795315
H43   H     H_    0.144579 0.985810 0.903254 0.206483
H44   H     H_    0.297221 0.961718 0.869181 0.205763
H45   H     H_    0.056663 0.977218 0.859409 0.202965
C137  C     C_3   0.052860 0.904026 0.814589 -0.294349
C138  C     C_3   0.244932 0.921125 0.802739 -0.259038
C139  C     C_3   0.282003 0.908180 0.763300 -0.752266
H46   H     H_    0.162365 0.918075 0.747754 0.222653
H47   H     H_    0.418840 0.921713 0.755745 0.211352
H48   H     H_    0.294471 0.875401 0.756867 0.244252
H49   H     H_    0.239237 0.954078 0.807641 0.173619
H50   H     H_    0.369458 0.912448 0.817749 0.236166
H51   H     H_    0.005163 0.878293 0.794856 0.172520
H52   H     H_    0.938098 0.926410 0.813721 0.134851
C140  C     C_3   0.348845 0.771316 0.378715 -0.693821
H53   H     H_    0.389317 0.802907 0.379850 0.180217
H54   H     H_    0.258859 0.768922 0.402245 0.230603
H55   H     H_    0.487290 0.755470 0.379972 0.226408
C141  C     C_3   0.102580 0.821296 0.338391 -0.363741
C142  C     C_3   0.938169 0.818029 0.364851 -0.294382
C143  C     C_3   0.844959 0.858259 0.377505 -0.771705
H56   H     H_    0.953860 0.879760 0.390560 0.234587
H57   H     H_    0.780569 0.870005 0.354918 0.228839
H58   H     H_    0.728708 0.854889 0.396802 0.218964
H59   H     H_    0.825793 0.797097 0.352079 0.199479
H60   H     H_    0.992802 0.806526 0.388263 0.206685
H61   H     H_    0.219721 0.840939 0.350951 0.167948
H62   H     H_    0.038422 0.836365 0.317834 0.193072
C144  C     C_3   0.658129 0.896213 0.056163 -0.344593
C145  C     C_3   0.688213 0.873136 0.018737 -0.280133
C146  C     C_3   0.498496 0.867814 0.998391 -0.743187
H63   H     H_    0.392681 0.851098 0.012165 0.229486
H64   H     H_    0.436906 0.897116 0.995883 0.242272
H65   H     H_    0.524330 0.850915 0.971513 0.209538
H66   H     H_    0.793003 0.888847 0.003947 0.182076
H67   H     H_    0.747654 0.843336 0.020344 0.204068
H68   H     H_    0.549729 0.879549 0.069469 0.164663
H69   H     H_    0.591677 0.925484 0.055765 0.190715
C147  C     C_3   0.702469 0.740381 0.135293 -0.324402
C148  C     C_3   0.504633 0.733607 0.151807 -0.358201
C149  C     C_3   0.349070 0.725073 0.123513 -0.719849
H70   H     H_    0.326830 0.751499 0.110627 0.248171
H71   H     H_    0.390659 0.699387 0.103244 0.227527
H72   H     H_    0.211364 0.717702 0.135787 0.228714
H73   H     H_    0.509342 0.707987 0.166176 0.202017
H74   H     H_    0.463437 0.760449 0.170881 0.212230
H75   H     H_    0.678778 0.763968 0.119350 0.226766
H76   H     H_    0.747113 0.713043 0.117240 0.179526
C150  C     C_3   0.375265 0.518189 0.390205 -0.730269
H77   H     H_    0.378657 0.505467 0.361756 0.207008
H78   H     H_    0.523483 0.520546 0.401133 0.209139
H79   H     H_    0.293740 0.496041 0.402664 0.187764
C151  C     C_3   0.452489 0.577982 0.342945 -0.309323
C152  C     C_3   0.659802 0.578706 0.357607 -0.320234
C153  C     C_3   0.776146 0.542817 0.340194 -0.652840
H80   H     H_    0.711054 0.514779 0.345822 0.209738
H81   H     H_    0.781566 0.541713 0.311147 0.255799
H82   H     H_    0.925267 0.544932 0.350710 0.236893
H83   H     H_    0.734346 0.606197 0.352654 0.208132
H84   H     H_    0.661138 0.579676 0.386662 0.202242
H85   H     H_    0.418604 0.549508 0.325467 0.194062
H86   H     H_    0.447592 0.600625 0.325387 0.175312
C154  C     C_3   0.667457 0.014360 0.887057 -0.780212
H87   H     H_    0.707739 0.003220 0.859367 0.203388
H88   H     H_    0.801175 0.014826 0.902869 0.217117
H89   H     H_    0.566410 0.992446 0.895506 0.197047
C155  C     C_3   0.613540 0.062571 0.828384 -0.374250
C156  C     C_3   0.830962 0.064536 0.821556 -0.256327
C157  C     C_3   0.886431 0.039757 0.786210 -0.781052
H90   H     H_    0.852327 0.007921 0.786247 0.221137
H91   H     H_    0.807499 0.050119 0.764365 0.232012
H92   H     H_    0.043789 0.042799 0.781696 0.235924
H93   H     H_    0.871152 0.095912 0.821173 0.256598
H94   H     H_    0.913972 0.053945 0.842833 0.215007
H95   H     H_    0.556372 0.031823 0.821456 0.176392
H96   H     H_    0.538872 0.078985 0.809836 0.184641
C158  C     C_3   0.142532 0.207664 0.680103 -0.790378
H97   H     H_    0.145026 0.200546 0.650792 0.212349
H98   H     H_    0.196786 0.180571 0.689109 0.218806
H99   H     H_    0.990548 0.213821 0.688371 0.213124
C159  C     C_3   0.521365 0.487892 0.614653 -0.791021
H100  H     H_    0.643936 0.505799 0.606935 0.193626
H101  H     H_    0.391044 0.494037 0.599819 0.208536
H102  H     H_    0.494901 0.498898 0.642934 0.211701
C160  C     C_3   0.461929 0.431943 0.667694 -0.368878
C161  C     C_3   0.244101 0.438589 0.664994 -0.275353
C162  C     C_3   0.150013 0.447439 0.701425 -0.699230
H103  H     H_    0.168751 0.421987 0.715725 0.235255
H104  H     H_    0.215163 0.474531 0.717089 0.214619
H105  H     H_    0.993215 0.452468 0.698520 0.230689
H106  H     H_    0.214454 0.463651 0.650813 0.194389
H107  H     H_    0.176853 0.411600 0.649667 0.266707
H108  H     H_    0.484154 0.409897 0.685469 0.185290
H109  H     H_    0.536190 0.459195 0.681030 0.170896
C163  C     C_3   0.950809 0.289153 0.816461 -0.799979
H110  H     H_    0.104167 0.283411 0.808947 0.212745
H111  H     H_    0.896671 0.315978 0.806982 0.220317
H112  H     H_    0.943779 0.296449 0.845743 0.208657
C164  C     C_3   0.365976 0.176167 0.920822 -0.342757
C165  C     C_3   0.153689 0.176487 0.932408 -0.283258
C166  C     C_3   0.067546 0.217944 0.935728 -0.698696
H113  H     H_    0.148545 0.239106 0.955569 0.217112
H114  H     H_    0.072614 0.228465 0.909874 0.232412
H115  H     H_    0.914614 0.217103 0.944328 0.224582
H116  H     H_    0.069273 0.155642 0.912928 0.261161
H117  H     H_    0.140966 0.166376 0.958376 0.179926
H118  H     H_    0.455535 0.191489 0.942980 0.169481
H119  H     H_    0.381106 0.193505 0.898956 0.188967
C167  C     C_3   0.554944 0.140441 0.280911 -0.295541
C168  C     C_3   0.581564 0.133293 0.319123 -0.377891
C169  C     C_3   0.582034 0.088968 0.320953 -0.722578
H120  H     H_    0.443348 0.075010 0.310997 0.234362
H121  H     H_    0.702763 0.074075 0.304962 0.234413
H122  H     H_    0.600698 0.084699 0.348777 0.220737
H123  H     H_    0.721228 0.146283 0.329680 0.209530
H124  H     H_    0.461313 0.147181 0.335940 0.208019
H125  H     H_    0.413994 0.126988 0.271626 0.218426
H126  H     H_    0.673664 0.124535 0.265031 0.212682
C170  C     C_3   0.968581 0.368381 0.339757 -0.749434
H127  H     H_    0.010866 0.336831 0.338143 0.207326
H128  H     H_    0.936619 0.374296 0.312865 0.242411
H129  H     H_    0.092858 0.387523 0.349907 0.200642
C171  C     C_3   0.873096 0.126108 0.155515 -0.750811
H130  H     H_    0.923198 0.157400 0.158131 0.203876
H131  H     H_    0.848383 0.118653 0.182205 0.238926
H132  H     H_    0.989174 0.106499 0.142725 0.203650
C172  C     C_3   0.825735 0.612826 0.561631 -0.335149
C173  C     C_3   0.688365 0.648507 0.566302 -0.338597
C174  C     C_3   0.545314 0.645167 0.535815 -0.717613
H133  H     H_    0.622892 0.645147 0.510435 0.221295
H134  H     H_    0.458719 0.617461 0.534104 0.231310
H135  H     H_    0.445754 0.670852 0.540229 0.224224
H136  H     H_    0.604818 0.649765 0.591222 0.226839
H137  H     H_    0.772607 0.676489 0.567256 0.205656
H138  H     H_    0.891818 0.610409 0.534912 0.172414
H139  H     H_    0.737904 0.585710 0.562748 0.197852
C175  C     C_3   0.665392 0.834733 0.883417 -0.639463
H140  H     H_    0.624663 0.823360 0.855738 0.238380
H141  H     H_    0.655335 0.811068 0.900000 0.227689
H142  H     H_    0.555481 0.857510 0.893276 0.190921

loop_
_geom_bond_atom_site_label_1
_geom_bond_atom_site_label_2
_ccdc_geom_bond_type
C8    C13   A    
C9    C16   A    
C47   C141  S    
C2    C119  S    
C6    C7    A    
C142  H59   S    
C71   C72   A    
C54   H12   S    
C125  C129  S    
O31   C131  A    
C95   C96   A    
C146  H65   S    
C80   C95   A    
C12   C17   A    
C67   O19   S    
C35   H8    S    
C150  H77   S    
N5    C68   A    
C164  H119  S    
C160  C161  S    
O8    V2    S    
C164  C165  S    
C40   C62   A    
C26   C27   A    
C112  C116  A    
C166  H113  S    
O1    V2    S    
C56   C150  S    
C76   H20   S    
C8    C9    A    
C102  H26   S    
C93   C164  S    
C68   O21   S    
C22   C23   A    
C104  C105  A    
C23   C24   A    
C72   H19   S    
C151  H86   S    
C123  H33   S    
C163  H112  S    
C93   C94   A    
C126  H35   S    
C62   H13   S    
C45   C46   A    
C133  H41   S    
C48   C140  S    
C105  C108  A    
C38   C41   A    
C172  C173  S    
C166  H115  S    
C139  H47   S    
C159  H100  S    
C133  C134  S    
C81   C97   A    
C115  O25   S    
C111  C112  A    
C36   H9    S    
N2    C24   S    
C21   C22   A    
N5    C73   S    
C45   C61   A    
C19   C24   A    
C48   C49   A    
C147  H76   S    
C96   C97   A    
C33   H14   S    
C92   C93   A    
C79   C91   A    
C17   O13   S    
C33   C37   A    
C84   C85   A    
C134  C135  S    
V1    O10   S    
C59   C62   A    
C157  H90   S    
C31   C39   A    
C171  H130  S    
C165  H117  S    
O32   V4    S    
O7    V2    S    
C55   H11   S    
C125  C126  A    
O35   C132  A    
C154  H89   S    
C165  C166  S    
C45   C64   A    
C117  C122  A    
C119  C120  A    
C66   H17   S    
C154  H88   S    
C4    C21   S    
C134  H40   S    
C108  H27   S    
C28   C29   A    
C141  C142  S    
C76   C98   A    
V3    O36   S    
C44   C46   A    
C49   C53   A    
C32   C41   A    
C160  H109  S    
C72   C73   A    
C118  H31   S    
C40   H10   S    
C156  H93   S    
C60   C61   A    
C117  H30   S    
C145  H67   S    
C118  C119  A    
C147  C148  S    
C44   C47   A    
C146  H64   S    
O27   V4    S    
C10   C11   A    
C15   H2    S    
O7    V1    S    
C167  H125  S    
C19   C20   A    
C39   C40   A    
O9    C4    A    
O28   C129  A    
C137  H52   S    
C121  C122  A    
C53   O16   S    
C169  H122  S    
O28   V3    S    
C70   C159  S    
N7    C128  S    
N3    C37   S    
N4    C58   S    
C158  H98   S    
C74   C96   A    
C153  H80   S    
C85   C89   A    
C59   C60   A    
C104  O24   S    
C167  C168  S    
C12   C13   A    
C25   C30   A    
C171  H132  S    
C168  C169  S    
C163  H111  S    
C90   C155  S    
O2    C1    A    
C156  C157  S    
C135  H37   S    
N4    C53   A    
C7    C10   A    
C5    N1    A    
C155  H96   S    
C173  H137  S    
C18   O14   S    
C7    C8    A    
C138  H49   S    
C149  H71   S    
N1    C30   S    
C124  H34   S    
C99   C102  A    
C172  H138  S    
O29   V3    S    
C116  O26   S    
C168  H124  S    
C27   C28   A    
C135  H38   S    
C83   C84   A    
C145  H66   S    
C80   C82   A    
C84   H21   S    
C46   C50   A    
C142  C143  S    
C149  H72   S    
C88   N6    A    
C133  H42   S    
C136  H44   S    
C162  H105  S    
C106  C111  A    
C74   C75   A    
C140  H53   S    
C67   N5    A    
C150  H78   S    
C117  C118  A    
C36   C37   A    
N6    C94   S    
C70   C78   A    
C100  C101  A    
C144  H68   S    
C174  H133  S    
C32   O17   S    
C103  C107  A    
C166  H114  S    
C3    C43   S    
C57   C151  S    
C29   C137  S    
C127  C171  S    
C143  H58   S    
C95   C98   A    
C56   C57   A    
C64   C65   A    
C150  H79   S    
C153  H82   S    
C69   C73   A    
C169  H120  S    
C173  C174  S    
N6    C89   A    
C47   C48   A    
C13   C14   A    
C34   C144  S    
C152  H84   S    
C15   C16   A    
O5    C3    A    
C168  H123  S    
N8    C122  S    
N1    C6    A    
C43   C56   A    
C89   O20   S    
C143  H56   S    
C71   C78   A    
C113  C114  A    
O33   V3    S    
O30   V3    S    
C159  H101  S    
C152  C153  S    
C109  H28   S    
C1    O6    A    
C63   C66   A    
C142  H60   S    
C147  H75   S    
C114  C167  S    
O33   V4    S    
C5    O11   S    
C10   C133  S    
C159  H102  S    
C42   C132  S    
C157  H92   S    
C169  H121  S    
C74   C77   A    
C110  C111  A    
O4    C2    A    
C54   C58   A    
N3    C32   A    
C54   C55   A    
C140  H55   S    
C35   C42   A    
C33   C34   A    
C44   C59   A    
C123  C124  A    
C35   C36   A    
C28   C136  S    
C103  N7    A    
C170  H129  S    
C171  H131  S    
C26   H7    S    
C165  H116  S    
C100  C163  S    
C152  H83   S    
O3    C4    A    
C98   C158  S    
C126  C127  A    
O35   V4    S    
C63   C147  S    
O6    V2    S    
C141  H62   S    
C87   C88   A    
C155  H95   S    
C20   C21   A    
C81   C82   A    
C174  H135  S    
C22   H5    S    
C105  C106  A    
C134  H39   S    
C31   O15   S    
C90   C94   A    
C23   H6    S    
C69   C160  S    
C151  H85   S    
C14   C18   A    
O1    C2    A    
C123  C128  A    
O5    V1    S    
C110  C115  A    
C121  C170  S    
C77   C99   A    
C5    C9    A    
C80   C83   A    
C148  H74   S    
C120  H32   S    
C163  H110  S    
C88   O22   S    
C175  H141  S    
C161  H107  S    
C139  H46   S    
C162  H104  S    
C1    C78   S    
O29   C132  A    
C101  H25   S    
C137  C138  S    
C52   N4    A    
C175  H140  S    
C175  H142  S    
C167  H126  S    
C38   C60   A    
C172  H139  S    
C108  C109  A    
C112  C113  A    
C29   C30   A    
C106  C107  A    
C148  H73   S    
C51   C52   A    
N8    C116  A    
C79   C92   A    
C158  H99   S    
C144  C145  S    
C87   C101  A    
C155  C156  S    
C153  H81   S    
V2    O10   S    
C91   C154  S    
C79   C130  S    
C25   C26   A    
C75   C76   A    
C83   H22   S    
C31   N3    A    
C86   C87   A    
C124  C125  A    
C27   C131  S    
C52   O18   S    
C127  C128  A    
C148  C149  S    
C173  H136  S    
C57   C58   A    
C103  O23   S    
C161  H106  S    
C82   C86   A    
C61   C66   A    
C69   C70   A    
C51   C65   A    
C64   H15   S    
C143  H57   S    
C11   H1    S    
C67   C75   A    
C11   C12   A    
V4    O36   S    
C160  H108  S    
C161  C162  S    
O34   V4    S    
C129  O32   A    
C139  H48   S    
C68   C77   A    
C97   C102  A    
C156  H94   S    
C81   C100  A    
C162  H103  S    
O31   V3    S    
C17   N2    A    
C146  H63   S    
C16   H3    S    
C140  H54   S    
C170  H127  S    
C25   C175  S    
C20   C172  S    
C19   H4    S    
O30   C130  A    
C144  H69   S    
C136  H43   S    
C174  H134  S    
O9    V2    S    
C113  H29   S    
C109  C110  A    
C137  H51   S    
C145  C146  S    
O2    V1    S    
C14   C15   A    
C115  N8    A    
C34   C42   A    
C158  H97   S    
O27   C130  A    
C141  H61   S    
C151  C152  S    
N2    C18   A    
C50   C51   A    
C6    O12   S    
O8    C3    A    
C164  H118  S    
C136  H45   S    
C90   C91   A    
C99   H23   S    
C138  H50   S    
C154  H87   S    
C41   C63   A    
O4    V1    S    
O3    V1    S    
C157  H91   S    
C135  H36   S    
C92   H24   S    
C65   H16   S    
O34   C131  A    
N7    C104  A    
C43   C55   A    
C120  C121  A    
C149  H70   S    
C49   C50   A    
C71   H18   S    
C38   C39   A    
C170  H128  S    
C138  C139  S    
C107  C114  A    
C85   C86   A    
