data_mof_unit_5539.cif
_audit_creation_date              2013-03-05T15:53:36-0500
_audit_creation_method            fapswitch 2.2
_symmetry_space_group_name_H-M    P1
_symmetry_Int_Tables_number       1
_space_group_crystal_system       triclinic
_cell_length_a                    9.94892
_cell_length_b                    10.546408
_cell_length_c                    13.604776
_cell_angle_alpha                 92.981923
_cell_angle_beta                  82.944973
_cell_angle_gamma                 89.535768
_cell_volume                      1414.60871793

loop_
_atom_site_label
_atom_site_type_symbol
_atom_site_description
_atom_site_fract_x
_atom_site_fract_y
_atom_site_fract_z
_atom_type_partial_charge
O1    O     O_R   0.385310 0.683220 0.500000 -0.587619
O2    O     O_R   0.614640 0.683250 0.500010 -0.589451
C1    C     C_R   0.502348 0.734125 0.477241 0.978965
O3    O     O_R   0.368830 0.499960 0.640340 -0.593826
O4    O     O_R   0.598160 0.499980 0.640350 -0.660178
C2    C     C_R   0.475914 0.496283 0.685264 0.939335
Zn1   Zn    Zn3+2 0.346870 0.499980 0.499990 0.994965
Zn2   Zn    Zn3+2 0.653130 0.500020 0.500010 1.043727
O5    O     O_R   0.385360 0.316750 0.499990 -0.639587
O6    O     O_R   0.614690 0.316780 0.500000 -0.566239
O7    O     O_R   0.401840 0.500020 0.359650 -0.623862
O8    O     O_R   0.631170 0.500040 0.359660 -0.567508
C3    C     C_R   0.500171 0.257479 0.498304 0.901103
C4    C     C_R   0.524345 0.498393 0.314384 0.890300
C5    C     C_1   0.542356 0.491810 0.210380 -0.034155
C6    C     C_2   0.550628 0.474137 0.018548 -0.293914
C7    C     C_2   0.434655 0.460006 0.978898 0.329177
C8    C     C_1   0.443259 0.472037 0.875177 -0.026789
C9    C     C_1   0.551314 0.483899 0.122439 0.141962
C10   C     C_1   0.457504 0.483732 0.788211 -0.101921
C11   C     C_R   0.255248 0.872866 0.426758 -0.137631
H1    H     H_    0.257785 0.782288 0.385179 0.185044
C12   C     C_R   0.130075 0.927412 0.466362 0.418533
C13   C     C_R   0.129131 0.041047 0.524534 -0.140913
C14   C     C_R   0.250241 0.102596 0.536579 -0.154235
C15   C     C_R   0.376008 0.052768 0.489078 0.075418
C16   C     C_R   0.377265 0.928965 0.448306 0.031241
C17   C     C_R   0.500634 0.861400 0.438400 -0.286019
C18   C     C_R   0.620496 0.925620 0.409068 0.220177
C19   C     C_R   0.619942 0.057939 0.429798 0.241213
C20   C     C_R   0.500538 0.119753 0.479352 -0.282365
C21   C     C_R   0.829159 0.634586 0.649685 -0.056648
C22   C     C_R   0.871410 0.664451 0.740668 -0.263208
C23   C     C_R   0.006198 0.650029 0.751709 -0.166802
C24   C     C_R   0.101444 0.622849 0.668086 0.334633
C25   C     C_R   0.057222 0.562958 0.579158 0.025032
C26   C     C_R   0.913218 0.564845 0.575544 0.171523
N1    N     N_R   0.857120 0.501200 0.500900 -0.117222
C27   C     C_R   0.941769 0.439525 0.426565 0.041093
C28   C     C_R   0.084479 0.440266 0.426173 -0.049211
N2    N     N_R   0.142720 0.501280 0.500940 -0.133535
N3    N     N_R   0.304498 0.440690 0.035562 0.235377
O9    O     O_R   0.194146 0.463524 0.996722 -0.344680
O10   O     O_R   0.294780 0.385788 0.119582 -0.374075
H2    H     H_    0.730711 0.668126 0.639063 0.213988
H3    H     H_    0.801673 0.708227 0.800433 0.189339
H4    H     H_    0.038576 0.687773 0.820452 0.217481
N4    N     N_R   0.218361 0.700602 0.668616 0.242480
O11   O     O_R   0.212931 0.808057 0.627356 -0.403350
O12   O     O_R   0.283325 0.700834 0.746085 -0.407781
H5    H     H_    0.148282 0.390853 0.365869 0.180896
H6    H     H_    0.645804 0.488686 0.972155 0.161443
N5    N     N_R   0.731289 0.859954 0.347104 0.267085
O13   O     O_R   0.836285 0.920927 0.308520 -0.259648
O14   O     O_R   0.715652 0.744609 0.312215 -0.374859
N6    N     N_R   0.007312 0.858247 0.459982 0.232320
O15   O     O_R   0.007253 0.756722 0.401343 -0.361828
O16   O     O_R   0.898396 0.888323 0.520120 -0.380782
H7    H     H_    0.035097 0.081420 0.562102 0.201361
H8    H     H_    0.242971 0.185944 0.586550 0.178501
N7    N     N_R   0.736109 0.130084 0.395518 0.254333
O17   O     O_R   0.737253 0.192031 0.315185 -0.376610
O18   O     O_R   0.838720 0.137294 0.446136 -0.376815
H9    H     H_    0.899154 0.389991 0.366349 0.195217

loop_
_geom_bond_atom_site_label_1
_geom_bond_atom_site_label_2
_geom_bond_distance
_ccdc_geom_bond_type
C7    C8    1.415546 S    
O4    Zn2   1.920440 S    
Zn1   O7    1.920440 S    
C12   C13   1.400718 A    
C13   H7    1.082222 S    
C28   N2    1.366455 A    
C18   C19   1.409079 A    
C27   H9    1.080821 S    
C14   H8    1.079263 S    
C28   H5    1.081587 S    
C2    C10   1.403339 S    
C21   H2    1.067615 S    
N5    O14   1.300173 A    
C24   C25   1.453282 A    
C19   C20   1.426781 A    
Zn2   O8    1.948376 S    
C21   C22   1.377474 A    
C23   H4    1.083620 S    
N4    O12   1.302157 A    
O2    C1    1.313219 A    
C11   C16   1.410902 A    
C15   C20   1.426599 A    
O1    Zn1   1.973036 S    
N5    O13   1.300598 A    
N6    O15   1.301594 A    
C5    C9    1.187266 T    
C22   H3    1.082958 S    
C25   N2    1.405600 A    
O4    C2    1.294124 A    
N3    O10   1.301478 A    
O3    Zn1   1.948376 S    
N4    O11   1.294201 A    
C24   N4    1.429121 S    
C18   N5    1.450482 S    
O3    C2    1.292985 A    
C17   C18   1.401548 A    
C26   N1    1.366631 A    
O8    C4    1.291996 A    
C22   C23   1.375694 A    
C8    C10   1.187189 T    
Zn2   N1    2.031138 S    
C11   C12   1.401219 A    
C15   C16   1.391159 A    
N7    O17   1.301059 A    
O7    C4    1.295837 A    
C1    C17   1.468642 S    
N3    O9    1.301544 A    
C7    N3    1.444995 S    
C12   N6    1.437091 S    
N1    C27   1.366950 A    
C13   C14   1.396464 A    
Zn2   O6    1.973034 S    
C23   C24   1.404006 A    
C19   N7    1.432097 S    
C27   C28   1.419260 A    
Zn1   O5    1.966948 S    
O5    C3    1.294802 A    
C4    C5    1.402252 S    
C25   C26   1.439561 A    
C21   C26   1.401229 A    
O1    C1    1.295681 A    
C14   C15   1.419431 A    
C11   H1    1.083071 S    
C3    C20   1.461848 S    
N7    O18   1.300273 A    
O2    Zn2   1.966950 S    
C6    H6    1.088184 S    
Zn1   N2    2.029457 S    
N6    O16   1.301484 A    
C6    C7    1.338565 D    
C16   C17   1.402710 A    
O6    C3    1.306242 A    
C6    C9    1.412674 S    
