data_mof_unit_63673.cif
_audit_creation_date              2013-03-05T16:31:45-0500
_audit_creation_method            fapswitch 2.2
_symmetry_space_group_name_H-M    P1
_symmetry_Int_Tables_number       1
_space_group_crystal_system       monoclinic
_cell_length_a                    41.321886
_cell_length_b                    35.627944
_cell_length_c                    21.594967
_cell_angle_alpha                 90.0
_cell_angle_beta                  59.577407
_cell_angle_gamma                 90.0
_cell_volume                      27415.0415976

loop_
_atom_site_label
_atom_site_type_symbol
_atom_site_description
_atom_site_fract_x
_atom_site_fract_y
_atom_site_fract_z
_atom_type_partial_charge
O1    O     O_R   0.945620 0.531450 0.554380 -0.539854
O2    O     O_R   0.054380 0.531450 0.445620 -0.539652
O3    O     O_R   0.445620 0.031450 0.554380 -0.539651
O4    O     O_R   0.554380 0.031450 0.445620 -0.539855
O5    O     O_R   0.945570 0.468490 0.554430 -0.539273
O6    O     O_R   0.054430 0.468490 0.445570 -0.539725
O7    O     O_R   0.445570 0.968490 0.554430 -0.539724
O8    O     O_R   0.554430 0.968490 0.445570 -0.539274
C1    C     C_R   0.927600 0.499966 0.572046 0.868330
C2    C     C_R   0.072398 0.499970 0.428039 0.868453
C3    C     C_R   0.427602 0.999970 0.571961 0.868453
C4    C     C_R   0.572400 0.999966 0.427954 0.868330
O9    O     O_R   0.999990 0.531450 0.408860 -0.527047
O10   O     O_R   0.000010 0.531450 0.591140 -0.527014
O11   O     O_R   0.499990 0.031450 0.408860 -0.527015
O12   O     O_R   0.500010 0.031450 0.591140 -0.527047
O13   O     O_R   0.999940 0.468490 0.408900 -0.590132
O14   O     O_R   0.000060 0.468490 0.591100 -0.590171
O15   O     O_R   0.499940 0.968490 0.408900 -0.590172
O16   O     O_R   0.500060 0.968490 0.591100 -0.590132
C5    C     C_R   0.998453 0.500137 0.381248 0.781127
C6    C     C_R   0.001545 0.500137 0.618755 0.781091
C7    C     C_R   0.498455 0.000137 0.381245 0.781092
C8    C     C_R   0.501547 0.000137 0.618752 0.781126
Cu1   Cu    Cu3+1 1.000000 0.537250 0.500000 1.205519
Cu2   Cu    Cu3+1 0.500000 0.037250 0.500000 1.205519
Cu3   Cu    Cu3+1 1.000000 0.462700 0.500000 1.086588
Cu4   Cu    Cu3+1 0.500000 0.962700 0.500000 1.086588
C9    C     C_3   0.976710 0.535297 0.306061 0.202457
C10   C     C_3   0.023171 0.535364 0.694072 0.202749
C11   C     C_3   0.476829 0.035364 0.305928 0.202749
C12   C     C_3   0.523290 0.035297 0.693939 0.202454
H1    H     H_    0.946558 0.530725 0.346640 0.146170
H2    H     H_    0.053337 0.530887 0.653499 0.146454
H3    H     H_    0.446663 0.030887 0.346501 0.146454
H4    H     H_    0.553442 0.030725 0.653360 0.146170
C13   C     C_3   0.979947 0.535832 0.231649 -0.405210
C14   C     C_3   0.019928 0.535886 0.768487 -0.405550
C15   C     C_3   0.480072 0.035886 0.231513 -0.405550
C16   C     C_3   0.520052 0.035833 0.768351 -0.405207
H5    H     H_    0.951119 0.536663 0.239696 0.168256
H6    H     H_    0.048751 0.536812 0.760453 0.168101
H7    H     H_    0.451249 0.036812 0.239546 0.168100
H8    H     H_    0.548881 0.036663 0.760304 0.168255
H9    H     H_    0.993889 0.561721 0.201270 0.232065
H10   H     H_    0.005898 0.561727 0.798951 0.232104
H11   H     H_    0.494102 0.061727 0.201049 0.232104
H12   H     H_    0.506111 0.061721 0.798730 0.232065
H13   H     H_    0.055230 0.526442 0.252023 0.241021
H14   H     H_    0.944681 0.526252 0.748059 0.240637
H15   H     H_    0.555319 0.026252 0.251941 0.240637
H16   H     H_    0.444770 0.026442 0.747977 0.241020
C17   C     C_3   0.040287 0.501239 0.249167 -0.395201
C18   C     C_3   0.959705 0.501097 0.750838 -0.395935
C19   C     C_3   0.540295 0.001097 0.249162 -0.395937
C20   C     C_3   0.459713 0.001239 0.750833 -0.395201
C21   C     C_3   0.980167 0.464625 0.304017 -0.426159
C22   C     C_3   0.019946 0.464683 0.695866 -0.426526
C23   C     C_3   0.480054 0.964683 0.304134 -0.426525
C24   C     C_3   0.519833 0.964625 0.695983 -0.426160
C25   C     C_3   0.998994 0.500833 0.311757 -0.039817
C26   C     C_3   0.001000 0.500831 0.688250 -0.039285
C27   C     C_3   0.499000 0.000831 0.311750 -0.039284
C28   C     C_3   0.501006 0.000833 0.688243 -0.039816
H17   H     H_    0.995846 0.439264 0.304241 0.225517
H18   H     H_    0.004351 0.439271 0.695552 0.225520
H19   H     H_    0.495649 0.939271 0.304448 0.225520
H20   H     H_    0.504154 0.939264 0.695759 0.225517
H21   H     H_    0.950997 0.462023 0.350239 0.190612
H22   H     H_    0.049124 0.462179 0.649635 0.190338
H23   H     H_    0.450876 0.962179 0.350364 0.190338
H24   H     H_    0.549003 0.962023 0.649760 0.190612
C29   C     C_3   0.000960 0.500422 0.188060 -0.027722
C30   C     C_3   0.999034 0.500406 0.811948 -0.027379
C31   C     C_3   0.500966 0.000406 0.188052 -0.027380
C32   C     C_3   0.499040 0.000422 0.811940 -0.027722
C33   C     C_3   0.041794 0.498681 0.176233 0.211092
C34   C     C_3   0.958205 0.498534 0.823766 0.211386
C35   C     C_3   0.541795 0.998534 0.176234 0.211388
C36   C     C_3   0.458206 0.998681 0.823767 0.211093
C37   C     C_3   0.979445 0.465488 0.233265 -0.460175
C38   C     C_3   0.020662 0.465542 0.766624 -0.460237
C39   C     C_3   0.479338 0.965542 0.233376 -0.460236
C40   C     C_3   0.520555 0.965488 0.766735 -0.460175
H25   H     H_    0.949764 0.466053 0.245940 0.217807
H26   H     H_    0.050341 0.466202 0.753950 0.217753
H27   H     H_    0.449659 0.966202 0.246050 0.217753
H28   H     H_    0.550236 0.966053 0.754060 0.217806
H29   H     H_    0.992311 0.439313 0.202286 0.181748
H30   H     H_    0.007880 0.439325 0.797514 0.181697
H31   H     H_    0.492120 0.939325 0.202486 0.181697
H32   H     H_    0.507689 0.939313 0.797714 0.181748
H33   H     H_    0.055583 0.476812 0.254342 0.175790
H34   H     H_    0.944491 0.476621 0.745582 0.175884
H35   H     H_    0.555509 0.976620 0.254418 0.175884
H36   H     H_    0.444417 0.976812 0.745658 0.175790
H37   H     H_    0.053390 0.470484 0.153227 0.122484
H38   H     H_    0.946700 0.470300 0.846683 0.122231
H39   H     H_    0.553300 0.970300 0.153316 0.122231
H40   H     H_    0.446610 0.970484 0.846773 0.122484
C41   C     C_R   0.672133 0.476870 0.877286 0.267384
C42   C     C_R   0.327772 0.478529 0.121139 0.268193
C43   C     C_R   0.172228 0.978529 0.878861 0.268194
C44   C     C_R   0.827867 0.976870 0.122714 0.267384
C45   C     C_R   0.632703 0.478972 0.914970 0.520981
C46   C     C_R   0.367230 0.479423 0.084809 0.522053
C47   C     C_R   0.132770 0.979423 0.915191 0.522052
C48   C     C_R   0.867297 0.978972 0.085030 0.520982
C49   C     C_R   0.613651 0.500525 0.888584 -0.307337
C50   C     C_R   0.386360 0.500848 0.111209 -0.309477
C51   C     C_R   0.113640 0.000848 0.888790 -0.309477
C52   C     C_R   0.886349 0.000525 0.111416 -0.307337
C53   C     C_R   0.634597 0.520728 0.823621 0.283189
C54   C     C_R   0.365475 0.521767 0.175285 0.284109
C55   C     C_R   0.134525 0.021767 0.824715 0.284110
C56   C     C_R   0.865403 0.020728 0.176379 0.283189
C57   C     C_R   0.673840 0.518185 0.785940 -0.238650
C58   C     C_R   0.326190 0.520181 0.211950 -0.236712
C59   C     C_R   0.173810 0.020182 0.788050 -0.236713
C60   C     C_R   0.826160 0.018185 0.214060 -0.238649
H41   H     H_    0.689961 0.533987 0.736644 0.211250
H42   H     H_    0.310125 0.536225 0.260952 0.211223
H43   H     H_    0.189875 0.036225 0.739048 0.211223
H44   H     H_    0.810039 0.033987 0.263356 0.211250
C61   C     C_R   0.692633 0.496790 0.812251 -0.139035
C62   C     C_R   0.307325 0.499131 0.185341 -0.140145
C63   C     C_R   0.192675 0.999131 0.814659 -0.140145
C64   C     C_R   0.807367 0.996790 0.187748 -0.139035
C65   C     C_1   0.733065 0.497277 0.772986 0.133661
C66   C     C_1   0.266906 0.498753 0.225817 0.129697
C67   C     C_1   0.233094 0.998753 0.774183 0.129697
C68   C     C_1   0.766935 0.997277 0.227014 0.133661
C69   C     C_1   0.766860 0.497969 0.739524 0.077213
C70   C     C_1   0.233117 0.498856 0.260053 0.077249
C71   C     C_1   0.266883 0.998856 0.739947 0.077249
C72   C     C_1   0.733140 0.997969 0.260476 0.077213
C73   C     C_R   0.828172 0.471131 0.707479 -0.161599
C74   C     C_R   0.171937 0.471431 0.292660 -0.163933
C75   C     C_R   0.328063 0.971431 0.707340 -0.163933
C76   C     C_R   0.671828 0.971131 0.292521 -0.161599
H45   H     H_    0.814257 0.449056 0.746744 0.208902
H46   H     H_    0.185942 0.449465 0.253190 0.203193
H47   H     H_    0.314058 0.949465 0.746810 0.203193
H48   H     H_    0.685743 0.949056 0.253256 0.208902
C77   C     C_R   0.867302 0.471487 0.665875 0.578164
C78   C     C_R   0.132804 0.471594 0.334342 0.579684
C79   C     C_R   0.367196 0.971593 0.665657 0.579685
C80   C     C_R   0.632698 0.971487 0.334125 0.578164
C81   C     C_R   0.886035 0.499797 0.614089 -0.284691
C82   C     C_R   0.113962 0.499847 0.386194 -0.284814
C83   C     C_R   0.386038 0.999847 0.613806 -0.284815
C84   C     C_R   0.613965 0.999798 0.385911 -0.284691
C85   C     C_R   0.864531 0.527930 0.604793 0.264434
C86   C     C_R   0.135352 0.528054 0.395629 0.263743
C87   C     C_R   0.364648 0.028054 0.604371 0.263744
C88   C     C_R   0.635468 0.027930 0.395206 0.264434
C89   C     C_R   0.825271 0.527410 0.647922 -0.193025
C90   C     C_R   0.174604 0.527721 0.352450 -0.191368
C91   C     C_R   0.325396 0.027721 0.647551 -0.191368
C92   C     C_R   0.674729 0.027410 0.352078 -0.193025
H49   H     H_    0.808720 0.548547 0.640330 0.197110
H50   H     H_    0.191067 0.548969 0.360023 0.197161
H51   H     H_    0.308933 0.048969 0.639976 0.197161
H52   H     H_    0.691280 0.048546 0.359670 0.197110
C93   C     C_R   0.807161 0.499011 0.698509 -0.047496
C94   C     C_R   0.192825 0.499433 0.301675 -0.044650
C95   C     C_R   0.307175 0.999433 0.698324 -0.044650
C96   C     C_R   0.692839 0.999010 0.301491 -0.047496
O17   O     O_R   0.968510 0.554330 0.031500 -0.572659
O18   O     O_R   0.031490 0.554330 0.968500 -0.572572
O19   O     O_R   0.468510 0.054330 0.031500 -0.572571
O20   O     O_R   0.531490 0.054330 0.968500 -0.572659
C97   C     C_R   1.000000 0.572332 0.000000 0.796888
C98   C     C_R   0.500000 0.072332 1.000000 0.796888
O21   O     O_R   0.968510 0.499950 0.122650 -0.591737
O22   O     O_R   0.031490 0.499950 0.877350 -0.591787
O23   O     O_R   0.468510 0.999950 0.122650 -0.591785
O24   O     O_R   0.531490 0.999950 0.877350 -0.591739
O25   O     O_R   0.031450 0.499990 0.059700 -0.543104
O26   O     O_R   0.968550 0.499990 0.940300 -0.542967
O27   O     O_R   0.531450 0.999990 0.059700 -0.542968
O28   O     O_R   0.468550 0.999990 0.940300 -0.543104
C99   C     C_R   0.000396 0.499960 0.119823 0.786427
C100  C     C_R   0.999602 0.499945 0.880179 0.786276
C101  C     C_R   0.500398 0.999945 0.119821 0.786274
C102  C     C_R   0.499604 0.999960 0.880177 0.786428
Cu5   Cu    Cu3+1 0.962700 0.499940 0.037300 1.054576
Cu6   Cu    Cu3+1 0.037300 0.499940 0.962700 1.054665
Cu7   Cu    Cu3+1 0.462700 0.999940 0.037300 1.054666
Cu8   Cu    Cu3+1 0.537300 0.999940 0.962700 1.054576
O29   O     O_R   0.968500 0.445560 0.031500 -0.583010
O30   O     O_R   0.031500 0.445560 0.968500 -0.583013
O31   O     O_R   0.468500 0.945560 0.031500 -0.583014
O32   O     O_R   0.531500 0.945560 0.968500 -0.583010
C103  C     C_R   1.000000 0.427580 0.999999 0.840557
C104  C     C_R   0.500000 0.927580 0.000001 0.840557
O33   O     O_R   0.499920 0.445680 0.947340 -0.584805
O34   O     O_R   0.500080 0.445680 0.052660 -0.584794
O35   O     O_R   0.999920 0.945680 0.947340 -0.584795
O36   O     O_R   0.000080 0.945680 0.052660 -0.584804
C105  C     C_R   0.500000 0.427826 1.000000 0.768488
C106  C     C_R   1.000000 0.927825 0.000000 0.768488
O37   O     O_R   0.554340 0.500070 0.892900 -0.570052
O38   O     O_R   0.445660 0.500070 0.107100 -0.570177
O39   O     O_R   0.054340 0.000070 0.892900 -0.570178
O40   O     O_R   0.945660 0.000070 0.107100 -0.570051
O41   O     O_R   0.554350 0.500090 0.998410 -0.509820
O42   O     O_R   0.445650 0.500090 0.001590 -0.509490
O43   O     O_R   0.054350 0.000090 0.998410 -0.509490
O44   O     O_R   0.945650 0.000090 0.001590 -0.509820
C107  C     C_R   0.572129 0.500470 0.928425 0.915566
C108  C     C_R   0.427874 0.500480 0.071555 0.914903
C109  C     C_R   0.072126 0.000480 0.928445 0.914905
C110  C     C_R   0.927871 0.000469 0.071575 0.915564
Cu9   Cu    Cu3+1 0.499970 0.500070 0.937560 1.157200
Cu10  Cu    Cu3+1 0.500030 0.500070 0.062440 1.156926
Cu11  Cu    Cu3+1 0.999970 0.000070 0.937560 1.156926
Cu12  Cu    Cu3+1 0.000030 0.000070 0.062440 1.157200
O45   O     O_R   0.500010 0.554450 0.947200 -0.541076
O46   O     O_R   0.499990 0.554450 0.052800 -0.540604
O47   O     O_R   0.000010 0.054450 0.947200 -0.540604
O48   O     O_R   0.999990 0.054450 0.052800 -0.541076
C111  C     C_R   0.500000 0.572195 0.999999 0.979510
C112  C     C_R   0.000000 0.072195 0.000001 0.979510
C113  C     C_R   0.499609 0.326987 0.944314 -0.124081
C114  C     C_R   0.500392 0.326986 0.055683 -0.124695
C115  C     C_R   0.999608 0.826986 0.944317 -0.124695
C116  C     C_R   0.000391 0.826987 0.055685 -0.124081
H53   H     H_    0.499302 0.312005 0.900950 0.159216
H54   H     H_    0.500699 0.312004 0.099047 0.159069
H55   H     H_    0.999301 0.812004 0.900953 0.159069
H56   H     H_    0.000698 0.812005 0.099050 0.159216
C117  C     C_R   0.499610 0.366218 0.944242 -0.142068
C118  C     C_R   0.500391 0.366217 0.055755 -0.142682
C119  C     C_R   0.999609 0.866217 0.944244 -0.142682
C120  C     C_R   0.000390 0.866218 0.055757 -0.142068
H57   H     H_    0.499295 0.380784 0.900545 0.179153
H58   H     H_    0.500706 0.380784 0.099453 0.179048
H59   H     H_    0.999294 0.880784 0.900546 0.179048
H60   H     H_    0.000705 0.880784 0.099455 0.179153
C121  C     C_R   0.500000 0.386283 0.999999 -0.033954
C122  C     C_R   1.000000 0.886283 0.000001 -0.033954
C123  C     C_R   0.500000 0.307317 0.999999 0.120601
C124  C     C_R   1.000000 0.807317 0.000001 0.120601
C125  C     C_1   0.500000 0.266962 0.999998 -0.016194
C126  C     C_1   0.000000 0.766962 0.000001 -0.016194
C127  C     C_1   0.000000 0.733147 0.000002 -0.016761
C128  C     C_1   0.500000 0.233147 0.999998 -0.016761
C129  C     C_R   0.033981 0.673123 0.966538 -0.117687
C130  C     C_R   0.966019 0.673123 0.033466 -0.117650
C131  C     C_R   0.533981 0.173123 0.966532 -0.117650
C132  C     C_R   0.466019 0.173123 0.033465 -0.117688
H61   H     H_    0.060443 0.688104 0.940482 0.157210
H62   H     H_    0.939557 0.688104 0.059522 0.157279
H63   H     H_    0.560443 0.188104 0.940474 0.157279
H64   H     H_    0.439556 0.188104 0.059522 0.157210
C133  C     C_R   0.034022 0.633893 0.966494 -0.143777
C134  C     C_R   0.965978 0.633893 0.033508 -0.143931
C135  C     C_R   0.534022 0.133893 0.966489 -0.143931
C136  C     C_R   0.465978 0.133893 0.033508 -0.143777
H65   H     H_    0.060679 0.619302 0.940257 0.177293
H66   H     H_    0.939321 0.619303 0.059745 0.177242
H67   H     H_    0.560679 0.119303 0.940250 0.177241
H68   H     H_    0.439320 0.119302 0.059747 0.177291
C137  C     C_R   0.000000 0.613847 0.000001 -0.052475
C138  C     C_R   0.500000 0.113847 0.999999 -0.052474
C139  C     C_R   0.000000 0.692793 0.000002 0.122115
C140  C     C_R   0.500000 0.192793 0.999998 0.122116
C141  C     C_R   0.522818 0.673167 0.019478 0.555377
C142  C     C_R   0.477188 0.673174 0.980529 0.555438
C143  C     C_R   0.022812 0.173174 0.019472 0.555437
C144  C     C_R   0.977182 0.173167 0.980521 0.555377
C145  C     C_R   0.523393 0.633769 0.018986 0.196255
C146  C     C_R   0.476618 0.633776 0.980989 0.196254
C147  C     C_R   0.023382 0.133776 0.019011 0.196254
C148  C     C_R   0.976607 0.133769 0.981014 0.196255
C149  C     C_R   0.500002 0.613703 0.999993 -0.393758
C150  C     C_R   0.999998 0.113703 0.000007 -0.393758
C151  C     C_R   0.500000 0.692697 0.000015 -0.280915
C152  C     C_R   0.000000 0.192697 0.999985 -0.280912
C153  C     C_1   0.500000 0.733061 0.000021 0.267060
C154  C     C_1   1.000000 0.233061 0.999979 0.267061
C155  C     C_1   1.000000 0.266845 0.999978 0.198236
C156  C     C_1   0.500000 0.766845 0.000022 0.198236
C157  C     C_R   0.034027 0.326876 0.966169 0.611080
C158  C     C_R   0.965973 0.326876 0.033799 0.611118
C159  C     C_R   0.534027 0.826876 0.966204 0.611117
C160  C     C_R   0.465973 0.826876 0.033829 0.611080
C161  C     C_R   0.034016 0.366092 0.966177 -0.247362
C162  C     C_R   0.965984 0.366092 0.033803 -0.247305
C163  C     C_R   0.534016 0.866092 0.966199 -0.247304
C164  C     C_R   0.465984 0.866092 0.033820 -0.247361
H69   H     H_    0.060644 0.380737 0.939715 0.209294
H70   H     H_    0.939356 0.380737 0.060270 0.209292
H71   H     H_    0.560644 0.880737 0.939735 0.209293
H72   H     H_    0.439356 0.880737 0.060280 0.209294
C165  C     C_R   1.000000 0.386103 0.999994 -0.227354
C166  C     C_R   0.500000 0.886103 0.000006 -0.227354
C167  C     C_R   1.000000 0.307187 0.999980 -0.178054
C168  C     C_R   0.500000 0.807187 0.000020 -0.178057
N1    N     N_R   0.987624 0.571954 0.321190 0.156191
O49   O     O_R   0.962499 0.592852 0.372402 -0.249690
O50   O     O_R   0.021248 0.585353 0.280969 -0.287702
N2    N     N_R   0.012147 0.571989 0.679051 0.156206
O51   O     O_R   0.037212 0.592967 0.627912 -0.249801
O52   O     O_R   0.978477 0.585278 0.719290 -0.288137
N3    N     N_R   0.487853 0.071989 0.320949 0.156206
O53   O     O_R   0.462788 0.092967 0.372088 -0.249801
O54   O     O_R   0.521523 0.085278 0.280710 -0.288136
N4    N     N_R   0.512376 0.071954 0.678810 0.156191
O55   O     O_R   0.537501 0.092852 0.627598 -0.249690
O56   O     O_R   0.478752 0.085353 0.719031 -0.287701
N5    N     N_R   0.690819 0.454434 0.905354 0.164962
O57   O     O_R   0.720700 0.435201 0.862491 -0.329375
O58   O     O_R   0.676849 0.451431 0.974347 -0.218643
N6    N     N_R   0.308988 0.456587 0.092631 0.164360
O59   O     O_R   0.278556 0.468922 0.095744 -0.311121
O60   O     O_R   0.323359 0.425035 0.059752 -0.234263
N7    N     N_R   0.191012 0.956586 0.907369 0.164359
O61   O     O_R   0.221444 0.968922 0.904256 -0.311121
O62   O     O_R   0.176641 0.925034 0.940247 -0.234263
N8    N     N_R   0.809181 0.954434 0.094646 0.164962
O63   O     O_R   0.779300 0.935200 0.137508 -0.329374
O64   O     O_R   0.823150 0.951431 0.025653 -0.218643
F1    F     F_    0.612749 0.458395 0.975839 -0.589081
F2    F     F_    0.387102 0.459322 0.023288 -0.586441
F3    F     F_    0.112898 0.959321 0.976712 -0.586441
F4    F     F_    0.887251 0.958395 0.024160 -0.589081
N9    N     N_R   0.616813 0.545119 0.796636 0.162700
O65   O     O_R   0.590157 0.567745 0.839865 -0.305097
O66   O     O_R   0.631076 0.549060 0.727721 -0.300174
N10   N     N_R   0.383397 0.545864 0.202410 0.162637
O67   O     O_R   0.410502 0.568066 0.159155 -0.305140
O68   O     O_R   0.368828 0.550098 0.271343 -0.301112
N11   N     N_R   0.116603 0.045865 0.797590 0.162638
O69   O     O_R   0.089498 0.068066 0.840845 -0.305141
O70   O     O_R   0.131172 0.050098 0.728657 -0.301112
N12   N     N_R   0.883187 0.045119 0.203364 0.162701
O71   O     O_R   0.909843 0.067745 0.160135 -0.305098
O72   O     O_R   0.868924 0.049059 0.272279 -0.300174
F5    F     F_    0.886866 0.444475 0.677341 -0.627448
F6    F     F_    0.113344 0.444506 0.322780 -0.627853
F7    F     F_    0.386656 0.944506 0.677219 -0.627853
F8    F     F_    0.613133 0.944475 0.322659 -0.627448
N13   N     N_R   0.881740 0.555764 0.549377 0.160826
O73   O     O_R   0.867932 0.589545 0.560291 -0.281792
O74   O     O_R   0.906631 0.545749 0.484468 -0.360710
N14   N     N_R   0.118032 0.555826 0.451143 0.160818
O75   O     O_R   0.131723 0.589653 0.440383 -0.281412
O76   O     O_R   0.093131 0.545727 0.515987 -0.361798
N15   N     N_R   0.381968 0.055826 0.548857 0.160818
O77   O     O_R   0.368277 0.089653 0.559618 -0.281412
O78   O     O_R   0.406869 0.045727 0.484013 -0.361797
N16   N     N_R   0.618260 0.055764 0.450622 0.160826
O79   O     O_R   0.632068 0.089545 0.439709 -0.281792
O80   O     O_R   0.593369 0.045749 0.515532 -0.360710
F9    F     F_    0.545527 0.692575 0.036622 -0.558153
F10   F     F_    0.454484 0.692587 0.963380 -0.558017
F11   F     F_    0.045516 0.192587 0.036620 -0.558018
F12   F     F_    0.954473 0.192575 0.963378 -0.558155
N17   N     N_R   0.548857 0.614614 0.035158 0.187835
O81   O     O_R   0.552958 0.625924 0.088077 -0.215772
O82   O     O_R   0.571199 0.588801 0.992125 -0.317886
N18   N     N_R   0.451183 0.614628 0.964727 0.188045
O83   O     O_R   0.447119 0.625956 0.911776 -0.215468
O84   O     O_R   0.428834 0.588801 0.007698 -0.316975
N19   N     N_R   0.048817 0.114628 0.035273 0.188044
O85   O     O_R   0.052880 0.125956 0.088225 -0.215469
O86   O     O_R   0.071166 0.088801 0.992302 -0.316974
N20   N     N_R   0.951143 0.114614 0.964841 0.187835
O87   O     O_R   0.947043 0.125924 0.911922 -0.215772
O88   O     O_R   0.928801 0.088801 0.007874 -0.317885
F13   F     F_    0.067215 0.308159 0.933194 -0.599080
F14   F     F_    0.932785 0.308159 0.066768 -0.599061
F15   F     F_    0.567216 0.808159 0.933237 -0.599059
F16   F     F_    0.432785 0.808159 0.066800 -0.599078
N21   N     N_R   0.067595 0.526923 0.125623 0.148126
O89   O     O_R   0.061848 0.562647 0.138964 -0.299475
O90   O     O_R   0.098217 0.516074 0.068422 -0.302115
N22   N     N_R   0.932310 0.526692 0.874459 0.147890
O91   O     O_R   0.937939 0.562435 0.861226 -0.299890
O92   O     O_R   0.901720 0.515744 0.931621 -0.303740
N23   N     N_R   0.567690 0.026692 0.125540 0.147889
O93   O     O_R   0.562061 0.062435 0.138774 -0.299889
O94   O     O_R   0.598280 0.015744 0.068379 -0.303740
N24   N     N_R   0.432405 0.026923 0.874377 0.148126
O95   O     O_R   0.438152 0.062647 0.861036 -0.299474
O96   O     O_R   0.401783 0.016074 0.931578 -0.302114

loop_
_geom_bond_atom_site_label_1
_geom_bond_atom_site_label_2
_geom_bond_distance
_ccdc_geom_bond_type
N8    O64   1.301333 A    
C22   C26   1.558503 S    
O36   Cu12  1.949170 S    
C142  C146  1.403825 A    
O32   C104  1.292527 A    
C116  H56   1.083540 S    
C136  H68   1.082843 S    
O34   Cu10  1.949170 S    
C132  C140  1.399064 A    
N1    O49   1.300956 A    
C153  C156  1.203640 T    
C129  H61   1.083532 S    
C1    C81   1.481574 S    
C154  C155  1.203640 T    
C133  H65   1.082840 S    
O37   Cu9   1.945065 S    
C130  C139  1.399059 A    
C86   C90   1.403114 A    
C135  H67   1.082841 S    
C22   C38   1.543508 S    
C80   C84   1.410851 A    
C24   H24   1.113247 S    
C9    H1    1.114014 S    
C10   C14   1.543569 S    
O22   C100  1.287793 A    
C81   C85   1.419537 A    
C78   C82   1.410797 A    
C42   N6    1.441042 S    
C84   C88   1.419537 A    
C11   N3    1.471414 S    
O43   C109  1.303301 A    
C116  C120  1.397710 A    
C83   C87   1.419555 A    
O4    C4    1.292497 A    
C79   F7    1.357827 S    
O40   C110  1.303927 A    
C66   C70   1.204417 T    
C162  C165  1.406340 A    
C160  F16   1.357766 S    
C77   F5    1.357843 S    
C29   C37   1.553550 S    
O22   Cu6   1.975583 S    
Cu8   O32   1.948443 S    
Cu11  O47   1.948686 S    
N4    O56   1.300212 A    
C159  C168  1.400885 A    
C86   N14   1.435081 S    
O30   C103  1.292529 A    
C51   C109  1.479362 S    
C133  C137  1.407095 A    
O17   Cu5   1.948838 S    
C21   H17   1.113306 S    
N11   O70   1.301355 A    
C22   H22   1.113249 S    
O25   Cu6   1.983286 S    
O16   Cu4   1.979335 S    
O20   Cu8   1.948839 S    
C157  F13   1.357764 S    
O13   C5    1.291829 A    
O7    Cu4   1.950755 S    
C16   C32   1.550436 S    
N6    O59   1.301284 A    
C142  C151  1.396849 A    
O15   C7    1.291847 A    
Cu9   Cu10  2.698034 S    
O26   Cu5   1.983290 S    
O27   Cu8   1.983286 S    
O4    Cu2   1.949021 S    
C44   C64   1.410248 A    
C164  H72   1.082910 S    
O42   C108  1.303301 A    
C112  C150  1.478834 S    
O38   C108  1.304189 A    
N15   O78   1.299947 A    
C160  C168  1.400888 A    
O9    C5    1.281618 A    
C52   C110  1.479538 S    
N21   O90   1.301324 A    
C75   C95   1.395860 A    
C65   C69   1.204536 T    
C59   H43   1.084324 S    
C61   C65   1.440804 S    
O8    Cu4   1.950755 S    
C13   H9    1.109161 S    
N23   O93   1.300037 A    
C160  C164  1.397175 A    
C39   H31   1.113381 S    
C132  C136  1.397678 A    
C15   H11   1.109161 S    
C35   H39   1.115603 S    
C16   H12   1.109161 S    
O3    Cu2   1.949021 S    
C40   H28   1.113360 S    
C21   C25   1.558543 S    
C55   N11   1.438049 S    
C34   N22   1.470887 S    
C23   C27   1.558503 S    
C24   C28   1.558543 S    
C161  C165  1.406340 A    
H13   C17   1.109028 S    
C12   N4    1.471426 S    
O41   Cu10  1.951136 S    
C91   C95   1.395998 A    
H15   C19   1.109033 S    
C151  C153  1.438086 S    
C97   C137  1.479069 S    
C54   N10   1.438048 S    
O3    C3    1.292338 A    
N11   O69   1.301188 A    
O24   C102  1.287757 A    
C155  C167  1.437306 S    
O36   C106  1.304478 A    
C125  C128  1.204773 T    
C29   C33   1.574733 S    
C43   C47   1.406935 A    
C49   C107  1.479538 S    
C31   C35   1.574778 S    
O26   C100  1.282545 A    
N22   O91   1.300037 A    
C115  H55   1.083536 S    
N7    O62   1.301313 A    
C4    C84   1.481574 S    
N15   O77   1.301297 A    
C31   C39   1.553598 S    
N20   O87   1.301189 A    
C114  C123  1.398960 A    
C103  C165  1.477740 S    
O39   Cu11  1.945065 S    
C12   H4    1.114011 S    
C118  H58   1.082789 S    
C29   C99   1.485602 S    
C142  F10   1.359252 S    
C30   C100  1.485586 S    
C106  C122  1.480081 S    
C157  C161  1.397175 A    
N18   O83   1.301188 A    
C58   H42   1.084327 S    
C44   N8    1.441017 S    
N14   O75   1.301298 A    
C117  H57   1.082788 S    
C23   H19   1.113306 S    
O5    Cu3   1.950755 S    
C75   H47   1.083666 S    
C19   C27   1.550114 S    
C48   F4    1.359235 S    
O35   C106  1.304477 A    
C41   C61   1.410249 A    
C20   C28   1.550135 S    
C33   H37   1.115603 S    
C15   C31   1.550349 S    
C43   C63   1.410155 A    
C50   C54   1.416171 A    
O8    C4    1.291356 A    
C127  C139  1.437719 S    
N2    O52   1.300214 A    
C144  C152  1.396851 A    
O41   C107  1.303665 A    
N9    O66   1.301367 A    
O37   C107  1.303924 A    
C134  H66   1.082838 S    
O20   C98   1.292620 A    
C63   C67   1.440570 S    
C141  F9    1.359253 S    
C9    C25   1.576532 S    
C10   H2    1.113944 S    
C87   C91   1.403114 A    
O13   Cu3   1.979339 S    
C11   C27   1.576575 S    
C88   C92   1.403370 A    
C147  C150  1.419577 A    
N10   O67   1.301191 A    
C12   C28   1.576533 S    
C89   C93   1.396168 A    
C115  C124  1.398960 A    
Cu11  Cu12  2.698034 S    
C114  H54   1.083536 S    
C56   C60   1.401281 A    
C161  H69   1.082911 S    
C79   C83   1.410799 A    
O5    C1    1.291358 A    
C145  N17   1.437735 S    
C68   C72   1.204536 T    
O31   C104  1.292526 A    
O48   C112  1.303550 A    
O15   Cu4   1.979339 S    
C53   C57   1.401281 A    
C3    C83   1.481412 S    
O42   Cu9   1.951142 S    
N12   O72   1.301366 A    
C158  C167  1.400887 A    
C52   C56   1.416194 A    
C14   C30   1.550349 S    
C10   N2    1.471414 S    
C45   C49   1.410120 A    
C126  C127  1.204777 T    
C162  H70   1.082912 S    
C47   C51   1.410297 A    
C50   C108  1.479362 S    
Cu10  O46   1.948686 S    
C42   C62   1.410155 A    
C111  C149  1.478834 S    
O38   Cu10  1.945065 S    
C55   C59   1.401297 A    
C20   C36   1.547089 S    
Cu6   O30   1.948443 S    
O10   C6    1.281611 A    
C135  C138  1.407094 A    
C74   C78   1.396761 A    
C124  C126  1.437737 S    
C21   C37   1.543504 S    
C13   H5    1.113765 S    
O29   C103  1.292524 A    
C14   H10   1.109162 S    
C36   N24   1.470881 S    
C74   C94   1.395859 A    
O21   Cu5   1.975578 S    
Cu7   O31   1.948443 S    
C16   H8    1.113770 S    
N16   O79   1.301294 A    
C88   N16   1.435049 S    
C71   C95   1.436935 S    
C40   H32   1.113386 S    
C143  F11   1.359253 S    
C57   C61   1.397780 A    
O46   C111  1.303606 A    
C37   H25   1.113356 S    
C59   C63   1.397835 A    
C130  H62   1.083532 S    
C39   H27   1.113359 S    
C146  C149  1.419577 A    
C164  C166  1.406343 A    
O35   Cu11  1.949170 S    
C32   C40   1.553547 S    
C73   C93   1.395800 A    
C92   C96   1.396170 A    
N17   O82   1.301088 A    
H14   C18   1.109035 S    
O44   Cu11  1.951142 S    
C80   F8    1.357843 S    
C73   C77   1.396657 A    
C23   C39   1.543506 S    
O47   C112  1.303604 A    
O24   Cu8   1.975583 S    
C62   C66   1.440569 S    
O23   C101  1.287797 A    
C141  C151  1.396849 A    
N6    O60   1.301315 A    
O28   C102  1.282589 A    
C163  C166  1.406343 A    
C131  C135  1.397678 A    
C85   N13   1.435051 S    
C144  F12   1.359251 S    
C70   C94   1.436935 S    
C91   H51   1.084100 S    
N13   O74   1.299975 A    
C5    C25   1.489644 S    
C37   H29   1.113387 S    
C7    C27   1.489660 S    
N8    O63   1.301318 A    
O39   C109  1.304186 A    
C8    C28   1.489644 S    
O14   C6    1.291847 A    
C78   F6    1.357829 S    
C30   C38   1.553599 S    
N1    O50   1.300212 A    
O12   Cu2   1.979187 S    
O19   C98   1.292617 A    
C43   N7    1.441039 S    
C158  C162  1.397171 A    
N3    O53   1.300964 A    
C32   C36   1.574733 S    
O1    C1    1.292499 A    
C74   H46   1.083666 S    
C158  F14   1.357764 S    
C38   H26   1.113355 S    
C156  C168  1.437306 S    
C145  C149  1.419551 A    
C48   C52   1.410120 A    
C143  C147  1.403822 A    
C69   C93   1.437143 S    
C19   C35   1.547095 S    
C131  H63   1.083533 S    
C144  C148  1.403820 A    
N14   O76   1.299947 A    
N19   O86   1.301077 A    
C143  C152  1.396853 A    
C10   C26   1.576575 S    
C11   H3    1.113944 S    
C89   H49   1.084086 S    
C44   C48   1.407023 A    
C90   C94   1.396000 A    
N22   O92   1.301325 A    
C20   H36   1.113947 S    
C73   H45   1.083683 S    
N4    O55   1.300958 A    
C119  H59   1.082789 S    
C76   H48   1.083684 S    
C129  C133  1.397678 A    
C114  C118  1.397714 A    
O6    C2    1.291437 A    
N20   O88   1.301089 A    
C60   C64   1.397782 A    
C147  N19   1.437743 S    
C113  C123  1.398962 A    
C18   C26   1.550114 S    
C67   C71   1.204417 T    
C38   H30   1.113382 S    
C141  C145  1.403820 A    
C113  C117  1.397710 A    
N24   O95   1.300034 A    
Cu5   Cu6   2.658651 S    
C2    C82   1.481412 S    
C129  C139  1.399061 A    
N5    O57   1.301316 A    
N18   O84   1.301074 A    
O2    Cu1   1.949021 S    
O10   Cu1   1.979187 S    
C85   C89   1.403370 A    
Cu7   Cu8   2.658651 S    
C146  N18   1.437747 S    
N5    O58   1.301335 A    
O45   C111  1.303548 A    
N7    O61   1.301286 A    
C24   H20   1.113304 S    
C30   C34   1.574779 S    
C9    C13   1.543627 S    
C163  H71   1.082911 S    
C131  C140  1.399063 A    
C77   C81   1.410851 A    
C9    N1    1.471425 S    
C18   C34   1.547095 S    
O18   C97   1.292617 A    
C76   C96   1.395797 A    
N9    O65   1.301244 A    
N24   O96   1.301324 A    
N19   O85   1.301190 A    
C76   C80   1.396657 A    
O40   Cu12  1.945065 S    
O7    C3    1.291439 A    
C75   C79   1.396761 A    
O43   Cu12  1.951136 S    
C152  C154  1.438083 S    
C14   H6    1.113777 S    
Cu9   O45   1.948686 S    
C92   H52   1.084086 S    
C105  C121  1.480081 S    
O19   Cu7   1.948838 S    
C120  C122  1.407396 A    
C35   N23   1.470884 S    
C57   H41   1.084336 S    
C104  C166  1.477740 S    
C22   H18   1.113306 S    
O16   C8    1.291829 A    
C123  C125  1.437737 S    
C116  C124  1.398962 A    
C34   H38   1.115600 S    
O33   C105  1.304477 A    
O28   Cu7   1.983290 S    
C87   N15   1.435080 S    
O33   Cu9   1.949170 S    
C49   C53   1.416194 A    
C132  H64   1.083533 S    
O11   C7    1.281610 A    
O12   C8    1.281619 A    
C36   H40   1.115605 S    
O1    Cu1   1.949021 S    
O9    Cu1   1.979194 S    
C31   C101  1.485586 S    
C17   C25   1.550135 S    
C64   C68   1.440804 S    
Cu12  O48   1.948686 S    
O25   C99   1.282587 A    
C41   C45   1.407023 A    
O23   Cu7   1.975578 S    
C17   H33   1.113947 S    
C19   H35   1.113945 S    
O27   C101  1.282543 A    
O11   Cu2   1.979194 S    
C15   H7    1.113777 S    
C72   C96   1.437143 S    
O44   C110  1.303666 A    
C120  H60   1.082788 S    
N3    O54   1.300214 A    
N23   O94   1.301325 A    
C119  C122  1.407394 A    
C53   N9    1.438189 S    
C6    C26   1.489660 S    
O6    Cu3   1.950755 S    
O34   C105  1.304479 A    
C45   F1    1.359235 S    
C47   F3    1.359190 S    
C159  F15   1.357768 S    
N21   O89   1.300034 A    
C54   C58   1.401297 A    
C41   N5    1.441017 S    
C117  C121  1.407396 A    
N2    O51   1.300965 A    
C148  C150  1.419550 A    
N16   O80   1.299974 A    
C17   C33   1.547089 S    
C159  C163  1.397175 A    
O18   Cu6   1.948839 S    
O2    C2    1.292337 A    
C32   C102  1.485602 S    
C46   C50   1.410296 A    
C13   C29   1.550435 S    
O17   C97   1.292620 A    
O21   C99   1.287761 A    
Cu5   O29   1.948443 S    
O14   Cu3   1.979335 S    
C51   C55   1.416171 A    
C128  C140  1.437723 S    
Cu1   Cu3   2.656060 S    
C115  C119  1.397714 A    
N17   O81   1.301187 A    
Cu2   Cu4   2.656060 S    
C98   C138  1.479069 S    
C148  N20   1.437734 S    
C24   C40   1.543506 S    
C11   C15   1.543569 S    
C42   C46   1.406935 A    
C12   C16   1.543625 S    
C46   F2    1.359189 S    
C18   H34   1.113945 S    
C90   H50   1.084097 S    
C118  C121  1.407394 A    
H16   C20   1.109030 S    
N10   O68   1.301355 A    
C113  H53   1.083540 S    
N12   O71   1.301242 A    
C82   C86   1.419553 A    
C56   N12   1.438192 S    
C58   C62   1.397833 A    
C21   H21   1.113248 S    
N13   O73   1.301294 A    
C134  C137  1.407094 A    
C136  C138  1.407095 A    
C130  C134  1.397678 A    
C157  C167  1.400889 A    
C60   H44   1.084336 S    
C23   H23   1.113249 S    
C33   N21   1.470882 S    
