data_mof_unit_49902.cif
_audit_creation_date              2012-12-10T18:51:36-0500
_audit_creation_method            fapswitch 2.2
_symmetry_space_group_name_H-M    P1
_symmetry_Int_Tables_number       1
_space_group_crystal_system       triclinic
_cell_length_a                    10.704154
_cell_length_b                    9.957426
_cell_length_c                    10.487776
_cell_angle_alpha                 89.657515
_cell_angle_beta                  92.682173
_cell_angle_gamma                 90.769023
_cell_volume                      1116.50700631

loop_
_atom_site_label
_atom_site_type_symbol
_atom_type_description
_atom_site_fract_x
_atom_site_fract_y
_atom_site_fract_z
_atom_type_partial_charge
C1    C     C_R   0.873931 0.503192 0.472419 -0.162411
C2    C     C_3   0.565360 0.394484 0.045393 -0.100311
C3    C     C_3   0.445285 0.384949 0.958220 -0.080415
C4    C     C_3   0.554479 0.615051 0.041716 -0.083323
C5    C     C_3   0.498090 0.498693 0.877496 -0.016615
C6    C     C_3   0.501689 0.501300 0.122458 -0.015892
C7    C     C_R   0.555810 0.072046 0.599497 -0.037249
C8    C     C_R   0.444356 0.927960 0.400378 -0.050937
C9    C     C_R   0.445559 0.071539 0.399691 -0.051556
C10   C     C_R   0.554462 0.928481 0.600285 -0.042510
C11   C     C_R   0.060315 0.373747 0.514521 -0.119161
C12   C     C_R   0.127114 0.495869 0.532480 -0.171597
C13   C     C_R   0.940973 0.625419 0.492373 -0.137708
C14   C     C_R   0.935914 0.378783 0.469865 -0.105765
C15   C     C_R   0.064953 0.619270 0.537866 -0.096949
C16   C     C_2   0.622988 0.144040 0.705023 0.981698
C17   C     C_2   0.377849 0.855972 0.294383 0.985322
C18   C     C_2   0.388889 0.143349 0.288354 1.000114
C19   C     C_2   0.611266 0.856733 0.711577 0.999121
C20   C     C_2   0.117948 0.243434 0.553120 1.048592
C21   C     C_2   0.885156 0.757345 0.454924 1.069636
C22   C     C_2   0.872178 0.257681 0.412666 1.029233
C23   C     C_R   0.261092 0.498746 0.514519 0.904249
C24   C     C_2   0.128623 0.737898 0.598657 1.019708
C25   C     C_R   0.739326 0.501124 0.486755 0.911065
C26   C     C_R   0.501222 0.500446 0.257636 0.896770
C27   C     C_R   0.498708 0.499551 0.742349 0.890048
C28   C     C_3   0.381836 0.491868 0.038029 -0.218200
C29   C     C_3   0.617928 0.508127 0.961922 -0.215944
C30   C     C_3   0.434395 0.605515 0.954534 -0.100886
H1    H     H_    0.399613 0.291831 0.920143 0.218477
H2    H     H_    0.749935 0.739658 0.783253 0.332078
H3    H     H_    0.220443 0.141656 0.687328 0.339660
H4    H     H_    0.783396 0.862472 0.322797 0.351672
H5    H     H_    0.769331 0.180836 0.263703 0.343755
H6    H     H_    0.199638 0.924232 0.578793 0.347948
H7    H     H_    0.600186 0.708156 0.079776 0.217282
H8    H     H_    0.285977 0.485728 0.073961 0.167015
H9    H     H_    0.713791 0.514252 0.925997 0.165458
H10   H     H_    0.380251 0.690237 0.911857 0.210818
H11   H     H_    0.619438 0.309646 0.087853 0.198868
H12   H     H_    0.638913 0.179696 0.893551 0.343015
H13   H     H_    0.362464 0.821379 0.105648 0.346226
H14   H     H_    0.250177 0.260219 0.216423 0.332482
N1    N     N_R   0.500000 0.857200 0.500000 -0.164173
N2    N     N_R   0.500000 0.142800 0.500000 -0.164465
O1    O     O_R   0.316770 0.614620 0.499990 -0.588365
O2    O     O_R   0.579742 0.134721 0.828314 -0.775056
O3    O     O_2   0.282217 0.792256 0.313165 -0.570299
O4    O     O_R   0.421226 0.866407 0.171219 -0.773799
O5    O     O_2   0.438248 0.138624 0.185733 -0.609031
O6    O     O_R   0.279190 0.215421 0.299473 -0.750900
O7    O     O_2   0.562275 0.861859 0.814381 -0.603126
O8    O     O_R   0.720758 0.784366 0.700215 -0.756267
O9    O     O_2   0.112981 0.147591 0.480826 -0.544069
O10   O     O_R   0.181838 0.233076 0.672145 -0.791297
O11   O     O_2   0.895597 0.854062 0.526018 -0.520781
O12   O     O_R   0.683230 0.385380 0.500010 -0.588867
O13   O     O_R   0.818849 0.769405 0.337354 -0.787806
O14   O     O_2   0.866666 0.152337 0.472717 -0.533429
O15   O     O_R   0.812586 0.267747 0.291553 -0.812780
O16   O     O_2   0.171029 0.729023 0.708665 -0.639230
O17   O     O_R   0.146800 0.855738 0.528801 -0.697601
O18   O     O_R   0.683230 0.614620 0.500010 -0.588360
O19   O     O_R   0.316770 0.385380 0.499990 -0.588524
O20   O     O_R   0.499970 0.614650 0.313950 -0.618242
O21   O     O_R   0.500030 0.385350 0.686050 -0.619891
O22   O     O_R   0.500030 0.614650 0.686050 -0.618940
O23   O     O_R   0.499970 0.385350 0.313950 -0.618583
O24   O     O_2   0.719177 0.206561 0.685761 -0.577376
Zn1   Zn    Zn3+2 0.500000 0.653120 0.500000 1.030727
Zn2   Zn    Zn3+2 0.500000 0.346880 0.500000 1.027646

loop_
_geom_bond_atom_site_label_1
_geom_bond_atom_site_label_2
_ccdc_geom_bond_type
C17   O4    S    
C8    C9    A    
O23   Zn2   S    
C1    C25   S    
C11   C12   A    
C7    N2    A    
H13   O4    S    
C21   O11   D    
H14   O6    S    
N1    Zn1   S    
H6    O17   S    
N2    Zn2   S    
O20   Zn1   S    
C12   C15   A    
C28   H8    S    
C10   C19   S    
C20   O10   S    
O1    Zn1   S    
C14   C22   S    
H3    O10   S    
C28   C30   S    
C19   O7    D    
C18   O6    S    
C9    N2    A    
H5    O15   S    
H12   O2    S    
C13   C21   S    
C22   O15   S    
C3    H1    S    
C12   C23   S    
O12   Zn2   S    
C6    C26   S    
C24   O16   D    
C10   N1    A    
C2    C6    S    
C19   O8    S    
H2    O8    S    
C7    C16   S    
C11   C14   A    
C18   O5    D    
C21   O13   S    
C24   O17   S    
C20   O9    D    
C2    C29   S    
C13   C15   A    
C22   O14   D    
H4    O13   S    
O22   Zn1   S    
C4    C30   S    
C11   C20   S    
O18   Zn1   S    
C1    C13   A    
C25   O12   A    
C23   O1    A    
C2    H11   S    
C30   H10   S    
O19   Zn2   S    
C5    C29   S    
C9    C18   S    
C27   O21   A    
C16   O2    S    
C4    C6    S    
O21   Zn2   S    
C5    C30   S    
C7    C10   A    
C17   O3    D    
C29   H9    S    
C8    C17   S    
C26   O23   A    
C8    N1    A    
C3    C28   S    
C2    C3    S    
C1    C14   A    
C16   O24   D    
C27   O22   A    
C5    C27   S    
C15   C24   S    
C6    C28   S    
C4    C29   S    
C23   O19   A    
C4    H7    S    
C3    C5    S    
C25   O18   A    
C26   O20   A    
