data_mof_unit_55591.cif
_audit_creation_date              2012-12-11T14:08:35-0500
_audit_creation_method            fapswitch 2.2
_symmetry_space_group_name_H-M    P1
_symmetry_Int_Tables_number       1
_space_group_crystal_system       triclinic
_cell_length_a                    11.061655
_cell_length_b                    11.2014
_cell_length_c                    18.686861
_cell_angle_alpha                 89.650778
_cell_angle_beta                  88.956834
_cell_angle_gamma                 59.72725
_cell_volume                      1999.32988377

loop_
_atom_site_label
_atom_site_type_symbol
_atom_type_description
_atom_site_fract_x
_atom_site_fract_y
_atom_site_fract_z
_atom_type_partial_charge
C1    C     C_R   0.228809 0.648940 0.605649 0.533430
C2    C     C_2   0.778293 0.151014 0.705807 -0.021340
C3    C     C_2   0.158802 0.672650 0.675126 0.464996
C4    C     C_R   0.652747 0.620108 0.602095 0.610345
C5    C     C_2   0.179686 0.672863 0.835403 0.415434
C6    C     C_2   0.169380 0.578141 0.795929 -0.073731
C7    C     C_2   0.191905 0.564530 0.718390 -0.057685
C8    C     C_2   0.650701 0.645865 0.317524 0.379008
C9    C     C_2   0.630116 0.664469 0.158037 -0.042690
C10   C     C_2   0.705016 0.548629 0.195251 -0.147761
C11   C     C_2   0.682865 0.541096 0.271699 -0.141220
C12   C     C_3   0.709422 0.528900 0.804739 0.196157
C13   C     C_2   0.675713 0.141891 0.333077 -0.136984
C14   C     C_2   0.650610 0.143483 0.179110 -0.109307
C15   C     C_2   0.621356 0.066297 0.223940 0.413533
C16   C     C_R   0.628562 0.225624 0.600955 0.551822
C17   C     C_2   0.602823 0.093594 0.300178 0.411575
C18   C     C_2   0.177820 0.668916 0.328656 0.302665
C19   C     C_2   0.182533 0.642744 0.171851 -0.064222
C20   C     C_2   0.236085 0.707036 0.207078 -0.146097
C21   C     C_2   0.268295 0.675731 0.281616 -0.099143
C22   C     C_R   0.701993 0.105362 0.899213 0.512585
C23   C     C_3   0.699942 0.668762 0.814825 -0.061286
C24   C     C_R   0.722796 0.687097 0.889792 0.624118
C25   C     C_R   0.115186 0.709115 0.906532 0.568587
C26   C     C_R   0.675226 0.103994 0.104911 0.572154
C27   C     C_R   0.691689 0.688878 0.094274 0.589941
C28   C     C_R   0.223668 0.649420 0.401878 0.516712
C29   C     C_R   0.097748 0.706137 0.110359 0.560630
C30   C     C_R   0.641634 0.620278 0.392771 0.557696
C31   C     C_R   0.621233 0.224644 0.397224 0.554994
C32   C     C_3   0.552046 0.783416 0.790856 -0.230231
C33   C     C_3   0.536381 0.776846 0.710219 0.046117
C34   C     C_3   0.669578 0.642830 0.678253 0.033487
C35   C     C_3   0.823224 0.660478 0.766895 0.109532
C36   C     C_3   0.961391 0.302075 0.738990 -0.091091
C37   C     C_3   0.465211 0.360096 0.866622 -0.070053
C38   C     C_3   0.298460 0.929464 0.693805 -0.003456
C39   C     C_3   0.956866 0.710152 0.364434 -0.077822
C40   C     C_3   0.815762 0.867469 0.783025 -0.057109
C41   C     C_3   0.505647 0.502562 0.701507 -0.009459
C42   C     C_3   0.788991 0.677917 0.686052 0.204321
C43   C     C_3   0.720343 0.498497 0.721962 0.506162
C44   C     C_2   0.671196 0.156394 0.670692 -0.129610
C45   C     C_2   0.682764 0.181768 0.831564 0.306174
C46   C     C_2   0.792502 0.136729 0.784692 0.310934
Cr1   Cr    Cr6+3 0.393010 0.398050 0.501480 1.068565
Cr2   Cr    Cr6+3 0.398820 0.707980 0.501630 1.066632
Cr3   Cr    Cr6+3 0.708140 0.393940 0.496850 1.068043
Cr4   Cr    Cr6+3 0.937950 0.938450 0.008940 1.087091
Cr5   Cr    Cr6+3 0.626180 0.937030 0.994750 1.067189
Cr6   Cr    Cr6+3 0.937790 0.625760 0.001410 1.038533
F1    F     F_    0.907935 0.592223 0.645390 -0.603138
F2    F     F_    0.926272 0.063315 0.808860 -0.641085
F3    F     F_    0.232681 0.749471 0.807182 -0.588387
F4    F     F_    0.080483 0.804647 0.699122 -0.603503
F5    F     F_    0.617205 0.774545 0.295535 -0.574659
F6    F     F_    0.599493 0.965080 0.198823 -0.540740
F7    F     F_    0.501726 0.079242 0.335038 -0.535091
F8    F     F_    0.598419 0.527636 0.838845 -0.681257
H1    H     H_    0.528032 0.889164 0.804963 0.106190
H2    H     H_    0.534287 0.749972 0.180386 0.197402
H3    H     H_    0.668924 0.224571 0.197752 -0.000307
H4    H     H_    0.765451 0.139242 0.306660 0.045467
H5    H     H_    0.242842 0.792898 0.184124 0.158319
H6    H     H_    0.363469 0.671372 0.299579 0.112280
H7    H     H_    0.185397 0.551357 0.194158 0.159297
H8    H     H_    0.538285 0.867671 0.686163 0.082398
H9    H     H_    0.755059 0.783605 0.666545 0.101447
H10   H     H_    0.800540 0.450935 0.834228 0.136355
H11   H     H_    0.915456 0.268111 0.780503 0.172753
H12   H     H_    0.910726 0.553767 0.771553 0.195390
H13   H     H_    0.032786 0.331340 0.764024 0.093180
H14   H     H_    0.028326 0.212313 0.703935 0.143377
H15   H     H_    0.381375 0.336686 0.880476 0.112647
H16   H     H_    0.418079 0.467286 0.848872 0.184236
H17   H     H_    0.522386 0.356586 0.915850 0.135537
H18   H     H_    0.313776 0.983825 0.647610 0.092515
H19   H     H_    0.292188 0.983314 0.744740 0.118356
H20   H     H_    0.196196 0.936375 0.686951 0.245167
H21   H     H_    0.938615 0.802031 0.395902 0.115404
H22   H     H_    0.994241 0.617639 0.399184 0.143588
H23   H     H_    0.856712 0.161721 0.675678 0.182871
H24   H     H_    0.854739 0.733800 0.342703 0.210676
H25   H     H_    0.702753 0.917445 0.794728 0.072991
H26   H     H_    0.837163 0.892100 0.728646 0.185784
H27   H     H_    0.862531 0.901823 0.822503 0.236601
H28   H     H_    0.454121 0.576755 0.745545 0.246303
H29   H     H_    0.466406 0.429778 0.704062 0.140049
H30   H     H_    0.477118 0.550265 0.648743 0.156839
H31   H     H_    0.598843 0.132600 0.698513 0.113390
H32   H     H_    0.138703 0.509258 0.820759 0.097756
H33   H     H_    0.243895 0.459842 0.697233 0.092641
H34   H     H_    0.470175 0.771519 0.820010 0.256426
H35   H     H_    0.795454 0.459432 0.171304 0.154433
H36   H     H_    0.708958 0.439790 0.291981 0.101235
O1    O     O_R   0.507110 0.256280 0.580300 -0.521068
O2    O     O_R   0.837080 0.593860 0.915300 -0.522475
O3    O     O_R   0.064770 0.636080 0.932550 -0.548795
O4    O     O_R   0.280830 0.527190 0.577940 -0.542601
O5    O     O_R   0.068250 0.829200 0.092940 -0.512324
O6    O     O_R   0.799650 0.057040 0.080330 -0.502973
O7    O     O_R   0.586130 0.079760 0.077080 -0.461934
O8    O     O_R   0.627700 0.809630 0.066580 -0.453505
O9    O     O_R   0.816140 0.597180 0.075920 -0.512732
O10   O     O_R   0.045360 0.639170 0.081440 -0.496879
O11   O     O_3   0.833980 0.833750 0.001700 -0.272353
O12   O     O_R   0.524640 0.695370 0.425100 -0.471194
O13   O     O_R   0.261360 0.738990 0.584270 -0.477126
O14   O     O_R   0.532590 0.694780 0.574370 -0.501299
O15   O     O_R   0.744470 0.503750 0.577000 -0.404666
O16   O     O_R   0.698520 0.277230 0.571620 -0.472641
O17   O     O_R   0.498530 0.256920 0.419280 -0.429530
O18   O     O_R   0.272880 0.527780 0.428680 -0.498275
O19   O     O_R   0.252780 0.739630 0.423250 -0.525874
O20   O     O_3   0.862461 0.410665 0.696113 -0.505234
O21   O     O_3   0.548453 0.274290 0.809290 -0.610014
O22   O     O_3   0.405553 0.788619 0.695033 -0.528170
O23   O     O_R   0.735890 0.504390 0.415980 -0.549963
O24   O     O_3   0.050873 0.683711 0.306605 -0.579341
O25   O     O_3   0.889022 0.727623 0.793948 -0.584597
O26   O     O_3   0.651137 0.425113 0.706016 -0.533505
O27   O     O_R   0.690560 0.277820 0.422350 -0.524182
O28   O     O_3   0.499990 0.499990 0.499980 -0.308179
O29   O     O_R   0.089190 0.825870 0.932320 -0.437558
O30   O     O_R   0.819070 0.053960 0.931440 -0.466747
O31   O     O_R   0.607070 0.076440 0.916460 -0.542264
O32   O     O_R   0.647110 0.806550 0.917690 -0.512000

loop_
_geom_bond_atom_site_label_1
_geom_bond_atom_site_label_2
_ccdc_geom_bond_type
C11   H36   S    
C41   O26   S    
Cr1   O18   S    
Cr2   O14   S    
C21   H6    S    
C18   C21   D    
C41   H29   S    
C19   C20   D    
C34   C42   S    
Cr1   O28   S    
Cr2   O12   S    
C45   C46   D    
C2    C46   S    
C40   O25   S    
C12   C23   S    
C16   O16   A    
C24   O2    A    
Cr5   O32   S    
C40   H27   S    
C39   H24   S    
C12   C43   S    
C3    C7    D    
C42   F1    S    
C5    C6    D    
C26   O7    A    
C16   O1    A    
C22   O30   A    
C30   O23   A    
C27   O9    A    
Cr5   O7    S    
C39   O24   S    
Cr3   O27   S    
C27   O8    A    
Cr1   O17   S    
C40   H26   S    
C35   C42   S    
C25   O29   A    
C12   H10   S    
C1    O13   A    
C25   O3    A    
C32   H1    S    
Cr6   O11   S    
C2    C44   D    
C23   C24   S    
C19   H7    S    
Cr4   O30   S    
C9    C10   D    
C16   C44   S    
C36   H11   S    
Cr3   O15   S    
Cr2   O13   S    
C37   H15   S    
Cr6   O10   S    
C33   O22   S    
C2    H23   S    
C1    O4    A    
C13   C31   S    
C7    H33   S    
C4    C34   S    
C9    H2    S    
C20   H5    S    
C35   O25   S    
C18   C28   S    
C39   H21   S    
C10   C11   S    
C38   H18   S    
Cr5   O8    S    
Cr3   O28   S    
C37   H17   S    
C42   H9    S    
Cr1   O4    S    
C1    C3    S    
C38   O22   S    
C40   H25   S    
C28   O19   A    
C8    F5    S    
C3    F4    S    
C46   F2    S    
C33   C34   S    
C29   O5    A    
Cr4   O29   S    
C14   C26   S    
C43   O26   S    
C44   H31   S    
C28   O18   A    
C17   F7    S    
Cr3   O16   S    
C5    C25   S    
C4    O15   A    
C35   H12   S    
Cr4   O6    S    
C23   C35   S    
Cr2   O19   S    
Cr4   O11   S    
C15   F6    S    
C29   O10   A    
C19   C29   S    
C18   O24   S    
C9    C27   S    
Cr6   O9    S    
C45   O21   S    
C15   C17   S    
C41   H28   S    
C4    O14   A    
C36   H14   S    
C30   O12   A    
C5    F3    S    
C34   C43   S    
C39   H22   S    
Cr2   O28   S    
C43   O20   S    
C6    C7    S    
Cr6   O3    S    
Cr1   O1    S    
C13   C17   D    
C8    C30   S    
C23   C32   S    
Cr5   O31   S    
C32   C33   S    
C22   O31   A    
Cr3   O23   S    
C13   H4    S    
C38   H20   S    
C10   H35   S    
C8    C11   D    
C6    H32   S    
C14   H3    S    
Cr6   O2    S    
C37   H16   S    
C41   H30   S    
C36   H13   S    
C31   O27   A    
C12   F8    S    
C22   C45   S    
C37   O21   S    
C20   C21   S    
Cr4   O5    S    
Cr5   O11   S    
C38   H19   S    
C32   H34   S    
C24   O32   A    
C14   C15   D    
C31   O17   A    
C26   O6    A    
C33   H8    S    
C36   O20   S    
