data_mof_unit_47716.cif
_audit_creation_date              2012-12-10T20:31:08-0500
_audit_creation_method            fapswitch 2.2
_symmetry_space_group_name_H-M    P1
_symmetry_Int_Tables_number       1
_space_group_crystal_system       triclinic
_cell_length_a                    14.989704
_cell_length_b                    10.687973
_cell_length_c                    9.860097
_cell_angle_alpha                 89.639277
_cell_angle_beta                  89.956457
_cell_angle_gamma                 90.409352
_cell_volume                      1579.60958464

loop_
_atom_site_label
_atom_site_type_symbol
_atom_type_description
_atom_site_fract_x
_atom_site_fract_y
_atom_site_fract_z
_atom_type_partial_charge
C1    C     C_R   0.502988 0.259978 0.500349 0.875427
C2    C     C_R   0.186697 0.436636 0.606976 -0.270914
C3    C     C_R   0.231386 0.494894 0.499433 -0.065966
C4    C     C_R   0.326840 0.499350 0.499965 0.890002
C5    C     C_R   0.185211 0.546453 0.389950 -0.265613
C6    C     C_R   0.526045 0.063147 0.622130 0.114332
C7    C     C_R   0.517592 0.128823 0.500219 -0.127373
C8    C     C_R   0.525728 0.065856 0.376361 -0.208060
C9    C     C_R   0.524502 0.936748 0.375679 -0.205605
C10   C     C_R   0.515852 0.871680 0.498832 -0.101556
C11   C     C_R   0.524420 0.935222 0.620980 0.110415
C12   C     C_R   0.907509 0.537151 0.389703 0.114935
C13   C     C_3   0.469744 0.926372 0.747634 -0.518976
C14   C     C_3   0.472000 0.068614 0.749824 -0.218604
C15   C     C_R   0.450682 0.413566 0.071987 0.217324
C16   C     C_R   0.502252 0.740113 0.499589 0.888433
C17   C     C_R   0.555025 0.577735 0.070589 0.012048
C18   C     C_R   0.554924 0.577378 0.926642 -0.162373
C19   C     C_R   0.450509 0.413881 0.929487 0.249315
C20   C     C_3   0.351809 0.397195 0.924210 -0.542588
C21   C     C_3   0.351985 0.396576 0.078157 -0.501537
C22   C     C_R   0.673254 0.495300 0.500211 0.898337
C23   C     C_R   0.956702 0.367176 0.713504 -0.207011
C24   C     C_R   0.815574 0.538704 0.392309 -0.260891
C25   C     C_R   0.769206 0.484739 0.500709 -0.121920
C26   C     C_R   0.814444 0.422228 0.606682 -0.067901
C27   C     C_R   0.907947 0.422456 0.606896 0.068500
C28   C     C_R   0.954086 0.480905 0.497998 0.044114
C29   C     C_1   0.524074 0.118444 0.864054 0.240916
C30   C     C_1   0.612655 0.664557 0.139335 0.210267
C31   C     C_1   0.765397 0.354915 0.711688 0.180519
C32   C     C_R   0.049216 0.371693 0.713343 -0.222058
C33   C     C_R   0.094489 0.430371 0.606527 0.124608
C34   C     C_R   0.047116 0.484078 0.497512 0.070380
C35   C     C_R   0.092944 0.542056 0.388464 0.120840
C36   C     C_R   0.045974 0.595506 0.280529 -0.219644
C37   C     C_R   0.953411 0.593337 0.281321 -0.202834
H1    H     H_    0.779929 0.584506 0.310612 0.179536
H2    H     H_    0.332702 0.304567 0.122897 0.205688
H3    H     H_    0.923962 0.321708 0.798580 0.160730
H4    H     H_    0.085362 0.329843 0.797123 0.149719
H5    H     H_    0.223732 0.394630 0.689738 0.150186
H6    H     H_    0.221080 0.591579 0.307230 0.149250
H7    H     H_    0.080765 0.639869 0.196451 0.148058
H8    H     H_    0.917695 0.636362 0.197849 0.153967
H9    H     H_    0.525998 0.115150 0.279998 0.185926
H10   H     H_    0.523511 0.889290 0.279032 0.181933
H11   H     H_    0.401883 0.887418 0.728947 0.197047
H12   H     H_    0.506763 0.879877 0.831576 0.205591
H13   H     H_    0.405725 0.113136 0.736523 0.144703
H14   H     H_    0.597654 0.641390 0.870528 0.153218
H15   H     H_    0.317424 0.479782 0.880116 0.221233
H16   H     H_    0.332274 0.305596 0.880036 0.192708
H17   H     H_    0.317450 0.478523 0.122308 0.216295
N1    N     N_R   0.499390 0.499140 0.142800 -0.134939
N2    N     N_R   0.499390 0.499180 0.857150 -0.113791
N3    N     N_1   0.565082 0.156993 0.954188 -0.216750
N4    N     N_1   0.659316 0.735013 0.193449 -0.235035
N5    N     N_1   0.726370 0.301239 0.795290 -0.183446
O1    O     O_R   0.500010 0.316790 0.614690 -0.617691
O2    O     O_R   0.500000 0.316760 0.385350 -0.621368
O3    O     O_R   0.367850 0.499990 0.614680 -0.627674
O4    O     O_R   0.367840 0.499950 0.385340 -0.627926
O5    O     O_R   0.500000 0.683240 0.614650 -0.619862
O6    O     O_R   0.499990 0.683210 0.385310 -0.623476
O7    O     O_R   0.632160 0.500050 0.614660 -0.613707
O8    O     O_R   0.632150 0.500010 0.385320 -0.615864
Zn1   Zn    Zn3+2 0.500010 0.500020 0.653130 0.957964
Zn2   Zn    Zn3+2 0.499990 0.499980 0.346870 0.958490

loop_
_geom_bond_atom_site_label_1
_geom_bond_atom_site_label_2
_ccdc_geom_bond_type
C19   N2    A    
C8    C9    A    
C13   H11   S    
O7    Zn1   S    
C32   H4    S    
C24   C25   A    
C6    C7    A    
C23   C27   A    
C6    C14   S    
C9    C10   A    
C17   N1    A    
C24   H1    S    
C19   C20   S    
C21   H2    S    
O3    Zn1   S    
C2    H5    S    
O2    Zn2   S    
C23   C32   A    
C10   C16   S    
C2    C3    A    
C5    H6    S    
C28   C34   A    
C7    C8    A    
C20   H15   S    
C15   N1    A    
C14   H13   S    
C13   C14   S    
C32   C33   A    
C15   C19   A    
C17   C30   S    
C11   C13   S    
C4    O4    A    
C26   C27   A    
N1    Zn2   S    
C15   C21   S    
C12   C28   A    
C13   H12   S    
C5    C35   A    
C2    C33   A    
C36   C37   A    
N2    Zn1   S    
C33   C34   A    
C18   H14   S    
C9    H10   S    
O5    Zn1   S    
C21   H17   S    
C8    H9    S    
C22   O8    A    
C36   H7    S    
C10   C11   A    
C14   C29   S    
C37   H8    S    
C23   H3    S    
C4    O3    A    
C6    C11   A    
C20   C21   S    
O1    Zn1   S    
C17   C18   A    
C34   C35   A    
C12   C37   A    
C1    O1    A    
C31   N5    T    
C27   C28   A    
O6    Zn2   S    
C12   C24   A    
C18   N2    A    
C22   O7    A    
C30   N4    T    
C16   O6    A    
C16   O5    A    
O8    Zn2   S    
C25   C26   A    
C1    C7    S    
C26   C31   S    
C22   C25   S    
C3    C4    S    
O4    Zn2   S    
C29   N3    T    
C20   H16   S    
C3    C5    A    
C35   C36   A    
C1    O2    A    
