data_mof_unit_39503.cif
_audit_creation_date              2012-12-11T15:35:29-0500
_audit_creation_method            fapswitch 2.2
_symmetry_space_group_name_H-M    P1
_symmetry_Int_Tables_number       1
_space_group_crystal_system       triclinic
_cell_length_a                    17.387381
_cell_length_b                    24.25921
_cell_length_c                    14.809425
_cell_angle_alpha                 89.772557
_cell_angle_beta                  124.863563
_cell_angle_gamma                 90.947409
_cell_volume                      5124.68025635

loop_
_atom_site_label
_atom_site_type_symbol
_atom_type_description
_atom_site_fract_x
_atom_site_fract_y
_atom_site_fract_z
_atom_type_partial_charge
C1    C     C_R   0.350225 0.151036 0.910278 0.541278
C2    C     C_R   0.600374 0.122723 0.908550 -0.232827
C3    C     C_R   0.241948 0.544926 0.311934 0.128901
C4    C     C_3   0.349545 0.179625 0.761735 0.157266
C5    C     C_3   0.410009 0.232481 0.810150 -0.310169
C6    C     C_3   0.453188 0.249035 0.748471 -1.000826
C7    C     C_3   0.358242 0.822229 0.763151 0.203217
C8    C     C_3   0.299479 0.809552 0.639596 -0.303181
C9    C     C_3   0.241777 0.756234 0.610128 -0.866486
C10   C     C_3   0.853665 0.667969 0.758758 0.160237
C11   C     C_3   0.811481 0.706951 0.660442 -0.244182
C12   C     C_3   0.841432 0.692903 0.584620 -1.082695
C13   C     C_R   0.094269 0.374511 0.905162 -0.177615
C14   C     C_3   0.841696 0.330197 0.750300 0.166911
C15   C     C_3   0.775590 0.316326 0.627448 -0.300547
C16   C     C_3   0.731729 0.258666 0.606023 -0.847871
C17   C     C_3   0.042369 0.857689 0.708494 0.145312
C18   C     C_3   0.033679 0.838455 0.800828 -0.259749
C19   C     C_3   0.063818 0.778843 0.832622 -0.994740
C20   C     C_3   0.068977 0.003580 0.837245 0.266809
C21   C     C_3   0.099134 0.024359 0.950523 -0.328574
C22   C     C_3   0.118350 0.976586 0.027911 -1.021496
C23   C     C_3   0.580936 0.433629 0.841933 0.174856
C24   C     C_R   0.099967 0.623818 0.908855 -0.262289
C25   C     C_3   0.616856 0.453134 0.957898 -0.244676
C26   C     C_3   0.665949 0.406941 0.041611 -1.035419
C27   C     C_3   0.523221 0.594942 0.746315 0.273718
C28   C     C_3   0.497971 0.651475 0.766648 -0.317799
C29   C     C_3   0.448024 0.646334 0.823838 -1.055832
C30   C     C_3   0.722382 0.100959 0.795504 0.145280
C31   C     C_3   0.657946 0.078467 0.677999 -0.230092
C32   C     C_3   0.681157 0.019227 0.668987 -1.042032
C33   C     C_3   0.607065 0.798715 0.700815 0.143941
C34   C     C_3   0.632208 0.856072 0.679616 -0.318726
C35   C     C_R   0.431993 0.999743 0.630167 0.070950
C36   C     C_3   0.629938 0.856385 0.575021 -1.015866
C37   C     C_3   0.217545 0.597508 0.799680 0.146826
C38   C     C_3   0.162528 0.576885 0.680608 -0.244631
C39   C     C_3   0.181289 0.516353 0.673788 -1.022752
C40   C     C_3   0.034157 0.226727 0.797050 0.173799
C41   C     C_3   0.025231 0.257436 0.700685 -0.306564
C42   C     C_3   0.969857 0.223024 0.595342 -1.023846
C43   C     C_3   0.708284 0.202953 0.188814 0.175522
C44   C     C_3   0.779616 0.235786 0.292751 -0.272754
C45   C     C_3   0.745733 0.293866 0.289516 -1.039573
C46   C     C_R   0.936859 0.499550 0.632321 0.066849
C47   C     C_3   0.717168 0.798195 0.188959 0.189423
C48   C     C_3   0.792163 0.768340 0.293435 -0.262486
C49   C     C_3   0.766318 0.707521 0.289599 -1.043163
C50   C     C_3   0.205143 0.694665 0.208175 0.151050
C51   C     C_3   0.216155 0.747247 0.158194 -0.301097
C52   C     C_3   0.168054 0.795947 0.170036 -1.020904
C53   C     C_3   0.195450 0.296622 0.190510 0.157477
C54   C     C_3   0.269154 0.257890 0.278020 -0.270257
C55   C     C_3   0.224391 0.204547 0.283816 -1.026421
C56   C     C_R   0.788454 0.001439 0.378381 -0.091318
C57   C     C_R   0.289569 0.499049 0.375713 -0.041189
C58   C     C_R   0.690356 0.135624 0.999845 -0.066769
C59   C     C_R   0.685808 0.866135 0.993769 -0.072986
C60   C     C_R   0.190461 0.636077 0.000393 -0.064187
C61   C     C_R   0.351969 0.847087 0.907533 0.500431
C62   C     C_R   0.178408 0.357449 0.994422 -0.052114
C63   C     C_3   0.028729 0.936300 0.607419 0.359608
C64   C     C_3   0.021934 0.038000 0.660117 0.411944
C65   C     C_3   0.518512 0.465195 0.662970 0.390867
C66   C     C_3   0.534769 0.562826 0.599500 0.381955
C67   C     C_3   0.925397 0.937864 0.505961 -0.258830
C68   C     C_3   0.914924 0.026491 0.583674 -0.333437
C69   C     C_3   0.411612 0.471603 0.575007 -0.257683
C70   C     C_3   0.430107 0.561807 0.503313 -0.329936
C71   C     C_3   0.058112 0.015817 0.521976 -0.624457
C72   C     C_R   0.848797 0.650691 0.909535 0.505442
C73   C     C_3   0.559544 0.477435 0.526334 -0.643118
C74   C     C_3   0.072800 0.996183 0.631191 0.047354
C75   C     C_3   0.573145 0.502558 0.631621 0.047149
C76   C     C_3   0.891965 0.999955 0.471665 0.189513
C77   C     C_3   0.393378 0.499689 0.467121 0.159599
C78   C     C_R   0.444079 0.846100 0.089815 -0.267758
C79   C     C_R   0.441441 0.151450 0.093196 -0.273436
C80   C     C_R   0.943558 0.346401 0.090092 -0.277836
C81   C     C_R   0.937933 0.650951 0.092536 -0.278259
C82   C     C_3   0.953512 0.027034 0.432224 0.107794
C83   C     C_R   0.850568 0.347431 0.907739 0.508207
C84   C     C_3   0.453819 0.469323 0.431017 0.133284
C85   C     C_R   0.300994 0.724809 0.900796 -0.311538
C86   C     C_R   0.234873 0.219609 0.951687 -0.292210
C87   C     C_R   0.802497 0.225070 0.901912 -0.281932
C88   C     C_R   0.743308 0.742464 0.905533 -0.300268
C89   C     C_R   0.755905 0.177814 0.900718 0.528362
C90   C     C_R   0.701229 0.792007 0.890980 0.535140
C91   C     C_R   0.255896 0.677047 0.900548 0.547425
C92   C     C_R   0.180886 0.263817 0.939334 0.523040
C93   C     C_R   0.767407 0.161912 0.999583 -0.016757
C94   C     C_R   0.688146 0.125761 0.091374 0.515868
C95   C     C_R   0.744066 0.828770 0.982040 -0.007392
C96   C     C_R   0.268105 0.661336 0.999826 -0.025079
C97   C     C_R   0.228517 0.314103 0.988129 0.024195
C98   C     C_R   0.847475 0.181331 0.099137 -0.231476
C99   C     C_R   0.837151 0.820958 0.072193 -0.203871
C100  C     C_R   0.348945 0.680518 0.098891 -0.231898
C101  C     C_R   0.325130 0.321141 0.041087 -0.199716
C102  C     C_R   0.394199 0.728098 0.098734 -0.198502
C103  C     C_R   0.376750 0.277203 0.046610 -0.220772
C104  C     C_R   0.892142 0.229226 0.099643 -0.187809
C105  C     C_R   0.687602 0.875420 0.088242 0.514045
C106  C     C_R   0.882798 0.773049 0.078855 -0.212905
C107  C     C_R   0.361989 0.754385 0.998890 0.104675
C108  C     C_R   0.330396 0.227199 0.001385 0.143389
C109  C     C_R   0.861254 0.255073 0.999844 0.109689
C110  C     C_R   0.833784 0.733066 0.996506 0.126001
C111  C     C_R   0.388992 0.948790 0.462408 -0.169903
C112  C     C_R   0.386839 0.048629 0.459763 -0.187423
C113  C     C_R   0.890494 0.448842 0.462753 -0.167070
C114  C     C_R   0.890502 0.548703 0.461698 -0.190369
C115  C     C_R   0.390524 0.948569 0.370121 -0.162976
C116  C     C_R   0.188074 0.626168 0.091729 0.550451
C117  C     C_R   0.388272 0.048342 0.367308 -0.168181
C118  C     C_R   0.889170 0.448686 0.368485 -0.177037
C119  C     C_R   0.888900 0.548465 0.367296 -0.164624
C120  C     C_R   0.401594 0.998517 0.330706 0.143262
C121  C     C_R   0.900301 0.498617 0.329038 0.143337
C122  C     C_R   0.479284 0.045275 0.248145 -0.124136
C123  C     C_R   0.478845 0.953484 0.247673 -0.137928
C124  C     C_R   0.978626 0.545271 0.247286 -0.114665
C125  C     C_R   0.977803 0.453533 0.246443 -0.121139
C126  C     C_R   0.397369 0.999018 0.514233 0.142998
C127  C     C_R   0.183587 0.370782 0.088522 0.519541
C128  C     C_R   0.901487 0.498996 0.516129 0.145735
C129  C     C_R   0.231358 0.952295 0.745016 -0.156444
C130  C     C_R   0.230114 0.044912 0.745310 -0.133597
C131  C     C_R   0.729565 0.454556 0.747876 -0.191054
C132  C     C_R   0.732695 0.547042 0.747058 -0.161691
C133  C     C_R   0.378342 0.181008 0.002383 -0.070503
C134  C     C_R   0.383337 0.813462 0.998038 -0.040689
C135  C     C_R   0.871847 0.680115 0.001170 -0.026951
C136  C     C_R   0.882100 0.314008 0.998504 -0.028528
C137  C     C_R   0.446941 0.998994 0.272823 0.039133
C138  C     C_R   0.599715 0.882666 0.906655 -0.186356
C139  C     C_R   0.945525 0.499033 0.271041 0.031504
C140  C     C_R   0.174658 0.997444 0.713892 0.075956
C141  C     C_R   0.674886 0.501582 0.716885 0.127813
C142  C     C_R   0.449351 0.045342 0.694903 -0.153732
C143  C     C_R   0.448502 0.954509 0.694730 -0.177434
C144  C     C_R   0.952480 0.545233 0.696241 -0.170662
C145  C     C_R   0.952529 0.454236 0.696631 -0.144825
C146  C     C_R   0.741547 0.955623 0.311524 0.147011
C147  C     C_R   0.743986 0.046684 0.309772 0.072416
C148  C     C_R   0.243606 0.453669 0.309344 0.057210
H1    H     H_    0.881616 0.918498 0.530729 0.159481
H2    H     H_    0.204826 0.178515 0.926464 0.136898
H3    H     H_    0.690602 0.422337 0.124722 0.276590
H4    H     H_    0.727647 0.392801 0.044180 0.274639
H5    H     H_    0.577517 0.577011 0.827284 0.151405
H6    H     H_    0.459980 0.568562 0.706390 0.112347
H7    H     H_    0.562688 0.676885 0.818861 0.218712
H8    H     H_    0.451447 0.672877 0.686842 0.208727
H9    H     H_    0.379441 0.624853 0.768501 0.266975
H10   H     H_    0.435562 0.687968 0.843262 0.278578
H11   H     H_    0.491227 0.623010 0.901759 0.272375
H12   H     H_    0.968271 0.909466 0.407693 0.122366
H13   H     H_    0.787543 0.238706 0.824664 0.203573
H14   H     H_    0.914496 0.862405 0.436286 0.103248
H15   H     H_    0.897219 0.098295 0.643909 0.143324
H16   H     H_    0.799012 0.063685 0.556191 0.110712
H17   H     H_    0.397348 0.386123 0.550740 0.111237
H18   H     H_    0.361406 0.410541 0.625849 0.119556
H19   H     H_    0.463303 0.590533 0.394751 0.103036
H20   H     H_    0.423272 0.638173 0.438039 0.131592
H21   H     H_    0.862410 0.011514 0.262990 0.110202
H22   H     H_    0.974731 0.018022 0.308950 0.111549
H23   H     H_    0.935396 0.107325 0.471730 0.107219
H24   H     H_    0.701930 0.710179 0.846139 0.181217
H25   H     H_    0.888276 0.097504 0.336531 0.149332
H26   H     H_    0.377140 0.401603 0.334842 0.161297
H27   H     H_    0.486556 0.387823 0.421335 0.104622
H28   H     H_    0.487802 0.516111 0.334721 0.100690
H29   H     H_    0.371274 0.509635 0.276840 0.118366
H30   H     H_    0.719898 0.072216 0.852640 0.118110
H31   H     H_    0.795379 0.103368 0.817475 0.091323
H32   H     H_    0.584017 0.079800 0.651498 0.207814
H33   H     H_    0.665040 0.104942 0.621610 0.190204
H34   H     H_    0.754605 0.016820 0.693920 0.261623
H35   H     H_    0.869861 0.163877 0.177486 0.185724
H36   H     H_    0.633383 0.004762 0.582426 0.277524
H37   H     H_    0.671535 0.991712 0.722068 0.274867
H38   H     H_    0.534026 0.788162 0.631350 0.127466
H39   H     H_    0.652008 0.767037 0.699439 0.128653
H40   H     H_    0.581272 0.886597 0.670212 0.200565
H41   H     H_    0.703480 0.868847 0.750343 0.198131
H42   H     H_    0.681503 0.826948 0.582387 0.262714
H43   H     H_    0.648167 0.898324 0.561775 0.275744
H44   H     H_    0.558701 0.844904 0.502591 0.260739
H45   H     H_    0.200693 0.570439 0.847116 0.123943
H46   H     H_    0.871854 0.849936 0.140390 0.170840
H47   H     H_    0.293886 0.594622 0.836181 0.099554
H48   H     H_    0.086345 0.581890 0.641726 0.209579
H49   H     H_    0.182489 0.602084 0.633917 0.193164
H50   H     H_    0.256908 0.510477 0.710264 0.263853
H51   H     H_    0.140013 0.503008 0.586190 0.276859
H52   H     H_    0.159906 0.490294 0.718029 0.274022
H53   H     H_    0.962594 0.219876 0.776585 0.117267
H54   H     H_    0.060838 0.184567 0.805297 0.123618
H55   H     H_    0.988590 0.296854 0.686888 0.179321
H56   H     H_    0.095805 0.266777 0.719574 0.205496
H57   H     H_    0.371370 0.663339 0.177466 0.192754
H58   H     H_    0.006874 0.184112 0.606086 0.270583
H59   H     H_    0.963162 0.246520 0.526764 0.270858
H60   H     H_    0.898592 0.213180 0.573891 0.263609
H61   H     H_    0.668280 0.884425 0.286893 0.122561
H62   H     H_    0.705694 0.917228 0.403989 0.080300
H63   H     H_    0.692459 0.088330 0.382735 0.094197
H64   H     H_    0.786581 0.120229 0.393902 0.126338
H65   H     H_    0.265373 0.374252 0.360677 0.140899
H66   H     H_    0.153068 0.393236 0.293140 0.107846
H67   H     H_    0.216496 0.573844 0.421640 0.085942
H68   H     H_    0.359929 0.360205 0.078792 0.144355
H69   H     H_    0.262800 0.620991 0.381259 0.114297
H70   H     H_    0.642372 0.197707 0.184277 0.103273
H71   H     H_    0.693355 0.227161 0.116276 0.114262
H72   H     H_    0.791507 0.214288 0.365834 0.199151
H73   H     H_    0.847328 0.238642 0.301156 0.201536
H74   H     H_    0.736551 0.317130 0.219322 0.278758
H75   H     H_    0.798400 0.316077 0.367030 0.269900
H76   H     H_    0.678092 0.292054 0.281266 0.267740
H77   H     H_    0.702969 0.774013 0.116831 0.113504
H78   H     H_    0.651590 0.799448 0.185664 0.085704
H79   H     H_    0.447838 0.746340 0.177173 0.122817
H80   H     H_    0.860212 0.771461 0.302678 0.204445
H81   H     H_    0.800334 0.788199 0.365992 0.186974
H82   H     H_    0.699907 0.703264 0.283795 0.273242
H83   H     H_    0.822900 0.686848 0.365620 0.275270
H84   H     H_    0.758098 0.686674 0.217816 0.272409
H85   H     H_    0.241320 0.702634 0.297539 0.117314
H86   H     H_    0.130055 0.686489 0.174773 0.101937
H87   H     H_    0.291870 0.757445 0.200491 0.207937
H88   H     H_    0.184863 0.740781 0.069515 0.211197
H89   H     H_    0.091673 0.787268 0.125713 0.269498
H90   H     H_    0.451607 0.281786 0.085972 0.129845
H91   H     H_    0.178057 0.833313 0.133996 0.279221
H92   H     H_    0.198628 0.804188 0.258259 0.263564
H93   H     H_    0.156090 0.274014 0.110367 0.143082
H94   H     H_    0.145226 0.307229 0.211051 0.094554
H95   H     H_    0.319932 0.247755 0.257926 0.209325
H96   H     H_    0.308113 0.278661 0.359790 0.191707
H97   H     H_    0.173895 0.213619 0.304785 0.265605
H98   H     H_    0.279691 0.177508 0.348353 0.266949
H99   H     H_    0.187215 0.182281 0.203679 0.275104
H100  H     H_    0.944615 0.247769 0.178283 0.122750
H101  H     H_    0.896361 0.995684 0.624420 0.157133
H102  H     H_    0.953539 0.766169 0.149751 0.127499
H103  H     H_    0.391008 0.909494 0.498206 0.105675
H104  H     H_    0.387160 0.088044 0.493745 0.108904
H105  H     H_    0.892224 0.409531 0.498347 0.104051
H106  H     H_    0.892736 0.588139 0.496745 0.115657
H107  H     H_    0.491334 0.832004 0.173355 0.119028
H108  H     H_    0.482641 0.165567 0.177815 0.134125
H109  H     H_    0.990630 0.332349 0.173658 0.118031
H110  H     H_    0.980386 0.665799 0.176620 0.126663
H111  H     H_    0.393772 0.909216 0.338582 0.110819
H112  H     H_    0.382469 0.499511 0.607053 0.146471
H113  H     H_    0.389453 0.087569 0.333223 0.114107
H114  H     H_    0.890458 0.409362 0.335326 0.118178
H115  H     H_    0.889868 0.587727 0.333183 0.114822
H116  H     H_    0.469904 0.087873 0.259279 0.097797
H117  H     H_    0.468405 0.910480 0.257230 0.103021
H118  H     H_    0.969515 0.587860 0.258728 0.098631
H119  H     H_    0.967000 0.410565 0.255766 0.100776
H120  H     H_    0.211183 0.909768 0.729500 0.160021
H121  H     H_    0.206308 0.086749 0.727898 0.158040
H122  H     H_    0.704243 0.412586 0.730721 0.154917
H123  H     H_    0.389807 0.580247 0.532128 0.134704
H124  H     H_    0.714394 0.589507 0.730001 0.192575
H125  H     H_    0.431727 0.087455 0.667679 0.078921
H126  H     H_    0.429928 0.912233 0.667309 0.080090
H127  H     H_    0.936155 0.587287 0.669039 0.097117
H128  H     H_    0.935602 0.411841 0.669616 0.065254
H129  H     H_    0.574947 0.884782 0.821971 0.179520
H130  H     H_    0.573220 0.126439 0.822969 0.188807
H131  H     H_    0.065339 0.367399 0.819477 0.125740
H132  H     H_    0.072011 0.629044 0.823264 0.194226
H133  H     H_    0.068308 0.909550 0.586852 0.020901
H134  H     H_    0.085845 0.984089 0.493855 0.184435
H135  H     H_    0.033493 0.078687 0.635155 0.095932
H136  H     H_    0.537373 0.421872 0.658684 0.030703
H137  H     H_    0.572047 0.580294 0.564756 0.084248
H138  H     H_    0.300034 0.184587 0.671269 0.136587
H139  H     H_    0.393062 0.143688 0.773993 0.093907
H140  H     H_    0.366038 0.266705 0.805223 0.215638
H141  H     H_    0.467394 0.225954 0.898131 0.184029
H142  H     H_    0.497058 0.215427 0.751372 0.279721
H143  H     H_    0.498087 0.286496 0.787320 0.264318
H144  H     H_    0.397302 0.258339 0.661231 0.260778
H145  H     H_    0.100410 0.053709 0.534820 0.190843
H146  H     H_    0.407551 0.787995 0.809020 0.105471
H147  H     H_    0.398967 0.860115 0.774936 0.078830
H148  H     H_    0.251636 0.844352 0.594108 0.186859
H149  H     H_    0.347211 0.805861 0.612684 0.153496
H150  H     H_    0.287949 0.721040 0.656466 0.254756
H151  H     H_    0.204689 0.747651 0.520755 0.227812
H152  H     H_    0.188502 0.760183 0.628537 0.278160
H153  H     H_    0.848122 0.625134 0.729882 0.122538
H154  H     H_    0.928464 0.680242 0.818821 0.105452
H155  H     H_    0.733633 0.704451 0.611681 0.208877
H156  H     H_    0.596542 0.437699 0.545942 0.182516
H157  H     H_    0.833626 0.750026 0.691059 0.193966
H158  H     H_    0.918589 0.688918 0.631763 0.269740
H159  H     H_    0.819110 0.726093 0.522994 0.284060
H160  H     H_    0.807411 0.653545 0.540482 0.271116
H161  H     H_    0.898464 0.299521 0.791924 0.121319
H162  H     H_    0.872924 0.370990 0.755760 0.076877
H163  H     H_    0.719025 0.347234 0.586358 0.192643
H164  H     H_    0.815711 0.319016 0.590114 0.153861
H165  H     H_    0.786871 0.227222 0.650442 0.231616
H166  H     H_    0.690682 0.249315 0.516523 0.232711
H167  H     H_    0.597420 0.503927 0.501780 0.177284
H168  H     H_    0.683454 0.256376 0.632374 0.283229
H169  H     H_    0.112289 0.846159 0.729179 0.151447
H170  H     H_    0.986753 0.836641 0.630587 0.094832
H171  H     H_    0.078469 0.865098 0.874789 0.209018
H172  H     H_    0.959663 0.842361 0.773448 0.188817
H173  H     H_    0.027674 0.751848 0.758738 0.275720
H174  H     H_    0.045817 0.764256 0.889641 0.263827
H175  H     H_    0.140720 0.775943 0.874510 0.277606
H176  H     H_    0.125782 0.976935 0.850577 0.160779
H177  H     H_    0.001843 0.980366 0.800604 0.130800
H178  H     H_    0.282587 0.739093 0.822516 0.211792
H179  H     H_    0.163946 0.050198 0.987255 0.217311
H180  H     H_    0.043044 0.050272 0.941615 0.201851
H181  H     H_    0.054309 0.950390 0.993606 0.265627
H182  H     H_    0.139621 0.993056 0.109120 0.281488
H183  H     H_    0.175994 0.950978 0.040188 0.269034
H184  H     H_    0.641202 0.416674 0.844434 0.111370
H185  H     H_    0.526700 0.400631 0.815604 0.098756
H186  H     H_    0.667280 0.488116 0.981892 0.202546
H187  H     H_    0.557072 0.467805 0.958806 0.193661
H188  H     H_    0.616815 0.371546 0.019911 0.266454
N1    N     N_R   0.392140 0.102630 0.941800 -0.097675
N2    N     N_R   0.525160 0.972040 0.206160 -0.044525
N3    N     N_R   0.025160 0.527960 0.206160 -0.034062
N4    N     N_R   0.025160 0.472040 0.206160 -0.041005
N5    N     N_R   0.317870 0.971120 0.792790 -0.040011
N6    N     N_R   0.317870 0.028880 0.792790 -0.045312
N7    N     N_R   0.817870 0.471120 0.792790 -0.036817
N8    N     N_R   0.817870 0.528880 0.792790 -0.053559
N9    N     N_R   0.473480 0.027920 0.793480 -0.034505
N10   N     N_R   0.473480 0.972080 0.793480 -0.037135
N11   N     N_R   0.973480 0.527920 0.793480 -0.035809
N12   N     N_R   0.392140 0.897370 0.941800 -0.089733
N13   N     N_R   0.973480 0.472080 0.793480 -0.037517
N14   N     N_R   0.681610 0.971120 0.207570 -0.083202
N15   N     N_R   0.681610 0.028880 0.207570 -0.071551
N16   N     N_R   0.181610 0.471120 0.207570 -0.082104
N17   N     N_R   0.181610 0.528880 0.207570 -0.072979
N18   N     N_R   0.605410 0.102620 0.056870 -0.091212
N19   N     N_R   0.605410 0.897380 0.056870 -0.103083
N20   N     N_R   0.105410 0.602620 0.056870 -0.098669
N21   N     N_R   0.105410 0.397380 0.056870 -0.101019
N22   N     N_R   0.549680 0.896430 0.944180 -0.094134
N23   N     N_R   0.892140 0.602630 0.941800 -0.098702
N24   N     N_R   0.549680 0.103570 0.944180 -0.087305
N25   N     N_R   0.049680 0.396430 0.944180 -0.083560
N26   N     N_R   0.049680 0.603570 0.944180 -0.088119
N27   N     N_3   0.912880 0.903853 0.415908 -0.173028
N28   N     N_3   0.862713 0.076174 0.569783 -0.235236
N29   N     N_3   0.362389 0.418818 0.557110 -0.207317
N30   N     N_3   0.414364 0.596957 0.412773 -0.189649
N31   N     N_3   0.930090 0.001580 0.328728 -0.205425
N32   N     N_3   0.943672 0.087313 0.416133 -0.227629
N33   N     N_3   0.432668 0.409514 0.416063 -0.217869
N34   N     N_R   0.892140 0.397370 0.941800 -0.092822
N35   N     N_3   0.435498 0.490191 0.326134 -0.218842
N36   N     N_3   0.725775 0.905965 0.352259 -0.202368
N37   N     N_3   0.725653 0.097024 0.343632 -0.188063
N38   N     N_3   0.222193 0.406416 0.350046 -0.203013
N39   N     N_3   0.215228 0.588221 0.354102 -0.210576
N40   N     N_R   0.450890 0.896450 0.057150 -0.059550
N41   N     N_R   0.450890 0.103550 0.057150 -0.057011
N42   N     N_R   0.950890 0.396450 0.057150 -0.060124
N43   N     N_R   0.950890 0.603550 0.057150 -0.057198
N44   N     N_R   0.525160 0.027960 0.206160 -0.036698
Ni1   Ni    Ni4+2 0.433410 0.064680 0.868830 0.196533
Ni2   Ni    Ni4+2 0.433410 0.935320 0.868830 0.199263
Ni3   Ni    Ni4+2 0.933410 0.564680 0.868830 0.189849
Ni4   Ni    Ni4+2 0.933410 0.435320 0.868830 0.198626
Ni5   Ni    Ni4+2 0.565650 0.934380 0.131170 0.185266
Ni6   Ni    Ni4+2 0.565650 0.065620 0.131170 0.201168
Ni7   Ni    Ni4+2 0.065650 0.434380 0.131170 0.187790
Ni8   Ni    Ni4+2 0.065650 0.565620 0.131170 0.200723
O1    O     O_3   0.295070 0.170563 0.803676 -0.692297
O2    O     O_3   0.610134 0.798128 0.798786 -0.694944
O3    O     O_3   0.191262 0.652316 0.799971 -0.683457
O4    O     O_3   0.085719 0.257893 0.896407 -0.694198
O5    O     O_3   0.745380 0.150770 0.193017 -0.704988
O6    O     O_3   0.749310 0.852357 0.190176 -0.680184
O7    O     O_3   0.248243 0.648886 0.195583 -0.695723
O8    O     O_3   0.240803 0.345183 0.188594 -0.704547
O9    O     O_3   0.299247 0.830169 0.798659 -0.698070
O10   O     O_3   0.802100 0.672708 0.804584 -0.702992
O11   O     O_3   0.791520 0.331257 0.798611 -0.680324
O12   O     O_3   0.032785 0.915533 0.699522 -0.706618
O13   O     O_3   0.058842 0.049329 0.772724 -0.692191
O14   O     O_3   0.541721 0.478738 0.769158 -0.693273
O15   O     O_3   0.561594 0.602063 0.684975 -0.684786
O16   O     O_3   0.690925 0.153529 0.799922 -0.685356

loop_
_geom_bond_atom_site_label_1
_geom_bond_atom_site_label_2
_ccdc_geom_bond_type
C68   H101  S    
C39   H52   S    
C17   H170  S    
C67   H1    S    
C36   H43   S    
C3    N17   A    
C130  C140  A    
N5    Ni2   S    
C90   C95   A    
C44   C45   S    
C143  N10   A    
C45   H74   S    
C26   H3    S    
C73   H167  S    
C5    C6    S    
C95   C99   A    
C22   H182  S    
C122  N44   A    
C7    O9    S    
C51   H87   S    
C98   H35   S    
C52   H91   S    
C91   C96   A    
C12   H158  S    
H16   N28   S    
C71   C82   S    
C101  C103  A    
C21   C22   S    
C31   H33   S    
C73   C75   S    
C47   O6    S    
C6    H144  S    
C19   H173  S    
C16   H165  S    
C114  H106  S    
C51   C52   S    
N14   Ni5   S    
C14   H161  S    
C24   H132  S    
C65   O14   S    
H64   N37   S    
C37   H45   S    
C50   H85   S    
C43   C44   S    
C10   H154  S    
C37   C38   S    
C53   O8    S    
C114  C128  A    
N16   N17   A    
C73   H156  S    
N20   Ni8   S    
C148  N16   A    
C42   H59   S    
C80   N42   A    
C40   O4    S    
C9    H150  S    
C21   H179  S    
C69   H112  S    
N21   Ni7   S    
C39   H50   S    
C40   H54   S    
C87   C89   A    
C18   H171  S    
H20   N30   S    
N25   Ni4   S    
C71   H134  S    
C69   N29   S    
C86   C108  A    
C122  C137  A    
C4    C5    S    
N12   Ni2   S    
C132  H124  S    
H67   N39   S    
C29   H10   S    
C63   C74   S    
C77   C84   S    
C31   H32   S    
C116  O7    S    
C106  H102  S    
C108  C133  S    
C115  H111  S    
C30   C31   S    
C47   H78   S    
N18   N24   A    
H29   N35   S    
N14   N15   A    
N34   N42   A    
C127  N21   A    
C147  N15   A    
C66   C70   S    
C13   N25   A    
C80   H109  S    
H26   N33   S    
C6    H142  S    
C82   N32   S    
C132  N8    A    
C124  C139  A    
C69   C77   S    
C44   H72   S    
H63   N37   S    
C7    C8    S    
N9    Ni1   S    
C53   C54   S    
C66   O15   S    
N11   Ni3   S    
C32   H37   S    
C36   H42   S    
C78   H107  S    
C64   C68   S    
H61   N36   S    
C53   H93   S    
C107  C134  S    
C86   H2    S    
C38   C39   S    
C48   H80   S    
C1    O1    S    
C144  N11   A    
C71   H145  S    
C49   H82   S    
C14   O11   S    
C9    H152  S    
C75   C141  S    
C12   H160  S    
C25   H187  S    
H17   N29   S    
C143  H126  S    
C30   O16   S    
C33   H38   S    
C114  C119  A    
C131  C141  A    
C27   H6    S    
C125  H119  S    
N6    Ni1   S    
C67   N27   S    
C1    C133  A    
N2    N44   A    
C92   C97   A    
C43   O5    S    
C119  C121  A    
N21   N25   A    
C4    H139  S    
N19   Ni5   S    
C91   O3    S    
C27   O15   S    
C76   C82   S    
C20   O13   S    
C72   C135  A    
C46   C144  A    
C68   N28   S    
C59   C138  A    
C25   C26   S    
C74   C140  S    
N26   Ni3   S    
H69   N39   S    
N1    N41   A    
C64   O13   S    
C62   C97   S    
N34   Ni4   S    
C31   C32   S    
C17   C18   S    
N10   Ni2   S    
N44   Ni6   S    
C102  C107  A    
C8    H149  S    
C41   H56   S    
C142  H125  S    
C83   C136  A    
C129  H120  S    
C48   H81   S    
C60   C116  A    
C43   H70   S    
C85   H178  S    
N12   N40   A    
C132  C141  A    
C99   C106  A    
C39   H51   S    
C54   C55   S    
C17   H169  S    
C36   H44   S    
C2    H130  S    
C100  H57   S    
C68   C76   S    
C123  C137  A    
N4    Ni7   S    
C112  C117  A    
C54   H95   S    
C121  C139  S    
C49   H84   S    
C26   H4    S    
C117  H113  S    
H66   N38   S    
C70   H123  S    
C131  H122  S    
C22   H183  S    
C116  N20   A    
C103  H90   S    
C96   C100  A    
C38   H48   S    
C65   H136  S    
C34   C36   S    
C89   C93   A    
C145  N13   A    
C10   C11   S    
C52   H92   S    
C35   C142  A    
C14   C15   S    
C26   H188  S    
C78   N40   A    
C11   H157  S    
N43   Ni8   S    
C41   C42   S    
C2    N24   A    
N41   Ni6   S    
N23   N43   A    
C113  C128  A    
C16   H166  S    
C63   H133  S    
C81   H110  S    
C59   C105  A    
C56   C76   S    
C28   C29   S    
C14   H162  S    
C58   C93   S    
C10   O10   S    
H65   N38   S    
C20   H177  S    
C147  N37   S    
C18   C19   S    
H21   N31   S    
C50   H86   S    
C13   C62   A    
C104  H100  S    
C55   H98   S    
C28   H7    S    
C79   H108  S    
C42   H60   S    
C112  C126  A    
C88   C110  A    
C15   H164  S    
H25   N32   S    
C18   H172  S    
C45   H76   S    
H14   N27   S    
N7    Ni4   S    
C7    H146  S    
C61   C134  A    
C81   C135  A    
C66   H137  S    
C113  H105  S    
C45   H75   S    
C57   C77   S    
C145  H128  S    
C117  C120  A    
C94   O5    S    
C29   H9    S    
H15   N28   S    
C8    H148  S    
C22   H181  S    
C4    H138  S    
C51   H88   S    
H12   N27   S    
C89   O16   S    
C124  N3    A    
N3    N4    A    
C47   H77   S    
C11   C12   S    
C20   C21   S    
C111  C126  A    
C50   C51   S    
N2    Ni5   S    
C72   O10   S    
C79   N41   A    
C17   O12   S    
C60   C96   S    
C48   C49   S    
C125  N4    A    
C88   C90   A    
C90   O2    S    
C131  N7    A    
C37   H47   S    
N42   Ni7   S    
C6    H143  S    
C19   H174  S    
C16   H168  S    
C146  N36   S    
C130  H121  S    
C70   N30   S    
N1    Ni1   S    
C105  O6    S    
C43   H71   S    
C71   C74   S    
C63   O12   S    
C2    C58   A    
C142  N9    A    
C87   C109  A    
C84   N35   S    
N20   N26   A    
C80   C136  A    
C105  N19   A    
C83   N34   A    
C56   C147  A    
C65   C69   S    
C66   C75   S    
C42   H58   S    
C56   C146  A    
C37   O3    S    
C9    H151  S    
C21   H180  S    
C25   H186  S    
C62   C127  A    
C40   H53   S    
C46   C128  S    
C57   C148  A    
H27   N33   S    
C64   C74   S    
C4    O1    S    
C120  C137  S    
C35   C143  A    
C27   H5    S    
N7    N8    A    
C88   H24   S    
C10   H153  S    
C85   C91   A    
H62   N36   S    
C29   H11   S    
N5    N6    A    
C125  C139  A    
C99   H46   S    
C84   N33   S    
C3    N39   S    
C144  H127  S    
C61   O9    S    
C32   H34   S    
C130  N6    A    
N8    Ni3   S    
C104  C109  A    
C46   C145  A    
C24   N26   A    
C127  O8    S    
C101  H68   S    
C111  H103  S    
C15   C16   S    
C12   H159  S    
C20   H176  S    
C119  H115  S    
N24   Ni1   S    
C8    C9    S    
N15   Ni6   S    
C30   H31   S    
C103  C108  A    
C72   N23   A    
C41   H55   S    
N23   Ni3   S    
C73   C84   S    
C82   N31   S    
C148  N38   S    
C30   H30   S    
C109  C136  S    
C83   O11   S    
C110  C135  S    
C59   C95   S    
C112  H104  S    
C79   C133  A    
C63   C67   S    
N40   Ni5   S    
C53   H94   S    
C7    H147  S    
H19   N30   S    
C118  C121  A    
C54   H96   S    
C49   H83   S    
C35   C126  S    
N11   N13   A    
C78   C134  A    
C123  H117  S    
C11   H155  S    
C47   C48   S    
C118  H114  S    
C23   H184  S    
C24   C60   A    
N18   Ni6   S    
C100  C102  A    
C33   C34   S    
C38   H49   S    
C33   H39   S    
C34   H40   S    
C52   H89   S    
C81   N43   A    
C40   C41   S    
C87   H13   S    
N16   Ni7   S    
C138  H129  S    
C129  N5    A    
C94   N18   A    
C1    N1    A    
C3    C57   A    
C138  N22   A    
C13   H131  S    
C106  C110  A    
C33   O2    S    
C32   H36   S    
C34   H41   S    
N17   Ni8   S    
N22   Ni2   S    
C5    H141  S    
C111  C115  A    
H22   N31   S    
C23   H185  S    
C19   H175  S    
C67   C76   S    
C65   C75   S    
C61   N12   A    
C58   C94   A    
N13   Ni4   S    
N3    Ni8   S    
C86   C92   A    
H18   N29   S    
C64   H135  S    
C122  H116  S    
C92   O4    S    
C129  C140  A    
H28   N35   S    
C98   C104  A    
C124  H118  S    
C102  H79   S    
C23   C25   S    
C146  N14   A    
C23   O14   S    
H23   N32   S    
C113  C118  A    
C123  N2    A    
N19   N22   A    
C5    H140  S    
C115  C120  A    
C55   H97   S    
C27   C28   S    
C28   H8    S    
C50   O7    S    
C55   H99   S    
C44   H73   S    
N9    N10   A    
C85   C107  A    
C93   C98   A    
C97   C101  A    
C70   C77   S    
C15   H163  S    
