data_mof_unit_13591.cif
_audit_creation_date              2012-12-10T17:28:38-0500
_audit_creation_method            fapswitch 2.2
_symmetry_space_group_name_H-M    P1
_symmetry_Int_Tables_number       1
_space_group_crystal_system       triclinic
_cell_length_a                    10.664684
_cell_length_b                    11.988632
_cell_length_c                    12.916593
_cell_angle_alpha                 93.384021
_cell_angle_beta                  89.6066
_cell_angle_gamma                 86.41094
_cell_volume                      1645.24525879

loop_
_atom_site_label
_atom_site_type_symbol
_atom_type_description
_atom_site_fract_x
_atom_site_fract_y
_atom_site_fract_z
_atom_type_partial_charge
C1    C     C_R   0.493980 0.521888 0.700189 0.878786
C2    C     C_R   0.549115 0.551748 0.130515 0.146892
C3    C     C_R   0.472125 0.452736 0.976148 0.093563
C4    C     C_R   0.527876 0.547264 0.023852 0.093561
C5    C     C_R   0.388226 0.954185 0.399645 -0.335802
C6    C     C_R   0.611774 0.045815 0.600355 -0.335801
C7    C     C_R   0.398374 0.837996 0.409593 0.035434
C8    C     C_R   0.601626 0.162004 0.590407 0.035433
C9    C     C_R   0.547423 0.858483 0.543740 -0.044025
C10   C     C_R   0.452577 0.141517 0.456260 -0.044025
C11   C     C_R   0.540387 0.975839 0.536571 0.092023
C12   C     C_R   0.506020 0.478112 0.299811 0.878785
C13   C     C_R   0.459613 0.024161 0.463429 0.092023
C14   C     C_R   0.739221 0.500109 0.499237 0.876060
C15   C     C_R   0.260779 0.499891 0.500763 0.876062
C16   C     C_R   0.860096 0.603011 0.671968 -0.160328
C17   C     C_R   0.139904 0.396989 0.328032 -0.160328
C18   C     C_R   0.920389 0.654739 0.755377 -0.144127
C19   C     C_R   0.079611 0.345260 0.244624 -0.144128
C20   C     C_R   0.050358 0.657381 0.754567 -0.146397
C21   C     C_R   0.949642 0.342618 0.245433 -0.146394
C22   C     C_R   0.120176 0.607550 0.670720 -0.171543
C23   C     C_R   0.508510 0.464962 0.188656 -0.087283
C24   C     C_R   0.879824 0.392448 0.329281 -0.171546
C25   C     C_R   0.060455 0.554071 0.585149 0.076754
C26   C     C_R   0.939545 0.445929 0.414851 0.076753
C27   C     C_R   0.929606 0.553075 0.585210 0.074865
C28   C     C_R   0.070394 0.446924 0.414790 0.074865
C29   C     C_R   0.128452 0.499952 0.500409 -0.194578
C30   C     C_R   0.871548 0.500048 0.499592 -0.194578
C31   C     C_3   0.743499 0.634322 0.179361 -0.771076
C32   C     C_3   0.256499 0.365681 0.820643 -0.771091
C33   C     C_R   0.491490 0.535038 0.811344 -0.087284
C34   C     C_R   0.560528 0.635328 0.964152 -0.230777
C35   C     C_R   0.439474 0.364672 0.035848 -0.230775
C36   C     C_R   0.542403 0.629040 0.858745 -0.272893
C37   C     C_R   0.457598 0.370960 0.141254 -0.272894
C38   C     C_R   0.450885 0.448252 0.869485 0.146892
H1    H     H_    0.902544 0.302868 0.180474 0.138558
H2    H     H_    0.396981 0.291343 0.002945 0.152209
H3    H     H_    0.390830 0.180229 0.400634 0.122313
H4    H     H_    0.609170 0.819771 0.599366 0.122313
H5    H     H_    0.656546 0.215869 0.639756 0.134639
H6    H     H_    0.343454 0.784131 0.360244 0.134639
H7    H     H_    0.325295 0.988858 0.342633 0.144733
H8    H     H_    0.674705 0.011141 0.657367 0.144733
H9    H     H_    0.569180 0.722121 0.165913 0.218652
H10   H     H_    0.780015 0.638752 0.099086 0.227450
H11   H     H_    0.778175 0.553986 0.210198 0.246287
H12   H     H_    0.097456 0.697130 0.819527 0.138558
H13   H     H_    0.779716 0.703719 0.228955 0.243869
H14   H     H_    0.430817 0.277880 0.834085 0.218654
H15   H     H_    0.219985 0.361244 0.900916 0.227451
H16   H     H_    0.220279 0.296289 0.771046 0.243873
H17   H     H_    0.221822 0.446019 0.789813 0.246290
H18   H     H_    0.426316 0.304332 0.186410 0.164233
H19   H     H_    0.573686 0.695667 0.813590 0.164233
H20   H     H_    0.758997 0.601832 0.677007 0.135434
H21   H     H_    0.241003 0.398167 0.322993 0.135434
H22   H     H_    0.866065 0.692385 0.820963 0.131167
H23   H     H_    0.133935 0.307615 0.179037 0.131168
H24   H     H_    0.221142 0.610084 0.674892 0.145684
H25   H     H_    0.778859 0.389914 0.325108 0.145684
H26   H     H_    0.603021 0.708656 0.997055 0.152209
N1    N     N_R   0.523130 0.207800 0.519340 -0.100141
N2    N     N_R   0.476870 0.792200 0.480660 -0.100141
N3    N     N_2   0.607720 0.643816 0.180993 -0.288476
N4    N     N_2   0.392277 0.356186 0.819007 -0.288477
O1    O     O_R   0.506170 0.421700 0.658830 -0.594747
O2    O     O_R   0.493830 0.578300 0.341170 -0.594746
O3    O     O_R   0.491330 0.609310 0.646410 -0.645343
O4    O     O_R   0.508670 0.390690 0.353590 -0.645343
O5    O     O_R   0.690650 0.406190 0.506220 -0.624264
O6    O     O_R   0.309350 0.593810 0.493780 -0.624263
O7    O     O_R   0.675800 0.593810 0.493800 -0.613567
O8    O     O_R   0.324200 0.406190 0.506200 -0.613566
Zn1   Zn    Zn3+2 0.509910 0.374730 0.508290 0.945766
Zn2   Zn    Zn3+2 0.490090 0.625270 0.491710 0.945766

loop_
_geom_bond_atom_site_label_1
_geom_bond_atom_site_label_2
_ccdc_geom_bond_type
O2    Zn2   S    
O1    Zn1   S    
C8    H5    S    
C1    C33   S    
C31   N3    S    
C12   C23   S    
C9    H4    S    
C1    O3    A    
C28   C29   A    
C19   C21   A    
C31   H11   S    
C33   C36   A    
C18   C20   A    
H9    N3    S    
C9    N2    A    
C20   H12   S    
C37   H18   S    
C3    C38   A    
C22   C25   A    
C32   H17   S    
C5    C13   A    
H14   N4    S    
C32   N4    S    
C16   C27   A    
C15   O8    A    
C12   O4    A    
C8    N1    A    
C27   C30   A    
C14   C30   S    
C32   H16   S    
C15   C29   S    
C25   C29   A    
N2    Zn2   S    
C4    C34   A    
N1    Zn1   S    
C14   O5    A    
O8    Zn1   S    
C36   H19   S    
C31   H13   S    
C6    C11   A    
C5    C7    A    
C6    C8    A    
C23   C37   A    
C5    H7    S    
C1    O1    A    
C2    N3    S    
C2    C4    A    
O4    Zn1   S    
C22   H24   S    
C21   H1    S    
C3    C35   A    
C34   H26   S    
C16   H20   S    
C7    H6    S    
C9    C11   A    
C17   H21   S    
C18   H22   S    
C38   N4    S    
C26   C30   A    
C24   H25   S    
C31   H10   S    
C3    C4    A    
C32   H15   S    
C10   N1    A    
C12   O2    A    
C6    H8    S    
C35   C37   A    
C17   C28   A    
C24   C26   A    
C20   C22   A    
C10   C13   A    
C25   C27   A    
C26   C28   A    
C33   C38   A    
C14   O7    A    
C35   H2    S    
C7    N2    A    
C11   C13   A    
C19   H23   S    
C17   C19   A    
C34   C36   A    
O7    Zn2   S    
C15   O6    A    
C16   C18   A    
O6    Zn2   S    
C21   C24   A    
C2    C23   A    
O5    Zn1   S    
O3    Zn2   S    
C10   H3    S    
