data_mof_unit_49378.cif
_audit_creation_date              2012-10-26T19:06:50-0400
_audit_creation_method            fapswitch 2.2
_symmetry_space_group_name_H-M    P1
_symmetry_Int_Tables_number       1
_space_group_crystal_system       triclinic
_cell_length_a                    12.312173
_cell_length_b                    13.17045
_cell_length_c                    27.76847
_cell_angle_alpha                 77.827921
_cell_angle_beta                  101.09355
_cell_angle_gamma                 116.523562
_cell_volume                      3913.42241085

loop_
_atom_site_label
_atom_site_type_symbol
_atom_type_description
_atom_site_fract_x
_atom_site_fract_y
_atom_site_fract_z
_atom_type_partial_charge
C1    C     C_R   0.854884 0.286545 0.504277 0.532218
C2    C     C_R   0.913971 0.398818 0.028572 0.021411
C3    C     C_R   0.114403 0.564510 0.027956 0.003593
C4    C     C_R   0.999208 0.499633 0.592433 0.550059
C5    C     C_R   0.014013 0.484791 0.053345 0.015389
C6    C     C_R   0.814679 0.321562 0.055018 -0.144139
C7    C     C_R   0.814619 0.327339 0.104260 -0.116320
C8    C     C_R   0.913127 0.410568 0.129009 0.027478
C9    C     C_R   0.014252 0.489879 0.103884 -0.048544
C10   C     C_R   0.113109 0.575914 0.128776 0.014356
C11   C     C_R   0.107247 0.575661 0.179500 0.384688
C12   C     C_R   0.090010 0.485633 0.730630 -0.059549
C13   C     C_R   0.911769 0.416148 0.178568 0.393665
C14   C     C_R   0.922068 0.528308 0.268414 -0.062483
C15   C     C_R   0.920028 0.528743 0.318429 -0.149896
C16   C     C_R   0.145085 0.713429 0.492758 0.551234
C17   C     C_R   0.085829 0.469541 0.340068 -0.148016
C18   C     C_R   0.087309 0.468703 0.290115 -0.058359
C19   C     C_R   0.005714 0.498309 0.254085 0.245801
C20   C     C_R   0.915461 0.394297 0.978028 0.017736
C21   C     C_R   0.006550 0.485831 0.951129 0.035042
C22   C     C_R   0.102369 0.574052 0.975508 0.008538
C23   C     C_R   0.995049 0.496799 0.746427 0.242555
C24   C     C_R   0.827765 0.302929 0.952964 -0.145062
C25   C     C_R   0.171747 0.678018 0.895384 -0.116923
C26   C     C_R   0.223016 0.632247 0.055914 0.011023
C27   C     C_R   0.215397 0.654065 0.102713 0.038608
C28   C     C_R   0.000596 0.499998 0.407581 0.547528
C29   C     C_R   0.178670 0.673071 0.946342 -0.157498
C30   C     C_R   0.275532 0.021355 0.434046 -0.126597
C31   C     C_R   0.227979 0.834547 0.482562 -0.000082
C32   C     C_R   0.815435 0.085180 0.536537 -0.128512
C33   C     C_R   0.736641 0.970282 0.546236 -0.134140
C34   C     C_R   0.001350 0.489986 0.899333 -0.027640
C35   C     C_R   0.613294 0.932583 0.528882 -0.116636
C36   C     C_R   0.566538 0.009346 0.499491 0.033820
C37   C     C_R   0.650049 0.123722 0.484808 0.024371
C38   C     C_R   0.439886 0.976080 0.483705 0.029906
C39   C     C_R   0.400238 0.053270 0.449922 0.051449
C40   C     C_R   0.910305 0.403366 0.824098 0.396370
C41   C     C_R   0.485572 0.160321 0.431384 -0.134446
C42   C     C_R   0.608695 0.194433 0.447912 -0.117220
C43   C     C_R   0.351012 0.868501 0.500805 -0.131106
C44   C     C_R   0.189707 0.912039 0.450024 -0.132771
C45   C     C_R   0.911642 0.398907 0.875163 0.024094
C46   C     C_R   0.773044 0.163508 0.507020 -0.001465
C47   C     C_R   0.346570 0.328692 0.578918 -0.145065
C48   C     C_R   0.759628 0.645314 0.433086 0.048026
C49   C     C_R   0.663098 0.676997 0.418594 -0.157342
C50   C     C_R   0.559572 0.622198 0.443755 -0.135652
C51   C     C_R   0.551425 0.534539 0.484039 -0.006358
C52   C     C_R   0.080456 0.586866 0.820638 0.396256
C53   C     C_R   0.653028 0.505291 0.497650 0.179810
C54   C     C_R   0.447025 0.475157 0.511371 -0.012846
C55   C     C_R   0.446753 0.388291 0.551484 0.036379
C56   C     C_R   0.826521 0.305125 0.902532 -0.115270
C57   C     C_R   0.546544 0.361455 0.564193 -0.173718
C58   C     C_R   0.647326 0.418806 0.538027 -0.101375
C59   C     C_R   0.342054 0.497758 0.500907 0.039177
C60   C     C_R   0.246620 0.355200 0.566770 0.042366
C61   C     C_R   0.901070 0.508720 0.711739 -0.057376
C62   C     C_R   0.902297 0.509904 0.661480 -0.149276
C63   C     C_R   0.091277 0.486401 0.680495 -0.143712
C64   C     C_3   0.347633 0.661257 0.040432 -0.283646
C65   C     C_3   0.422136 0.610726 0.080061 -0.430973
C66   C     C_3   0.312866 0.763956 0.121573 -0.234720
C67   C     C_R   0.085652 0.585532 0.871670 0.025269
C68   C     C_3   0.259787 0.849180 0.121534 -0.402734
C69   C     C_R   0.997548 0.498776 0.645408 0.003138
C70   C     C_R   0.002065 0.499466 0.354724 0.002903
Cu1   Cu    Cu3+1 0.098270 0.475420 0.511360 0.931478
Cu2   Cu    Cu3+1 0.901730 0.524580 0.488640 0.918152
H1    H     H_    0.165811 0.477622 0.669264 0.132331
H2    H     H_    0.162714 0.476063 0.757327 0.128496
H3    H     H_    0.374881 0.808239 0.528078 0.121341
H4    H     H_    0.909388 0.113171 0.553222 0.130818
H5    H     H_    0.557828 0.842312 0.538213 0.106529
H6    H     H_    0.670815 0.275827 0.430210 0.154586
H7    H     H_    0.168880 0.309589 0.587765 0.122328
H8    H     H_    0.547085 0.295365 0.594945 0.120415
H9    H     H_    0.345692 0.262127 0.609605 0.102792
H10   H     H_    0.334140 0.562071 0.471093 0.119651
H11   H     H_    0.839664 0.688347 0.413371 0.124137
H12   H     H_    0.827439 0.517478 0.723755 0.130223
H13   H     H_    0.757718 0.233055 0.884996 0.163706
H14   H     H_    0.487674 0.650233 0.430947 0.104430
H15   H     H_    0.668534 0.744268 0.387756 0.110984
H16   H     H_    0.719000 0.392290 0.551106 0.184763
H17   H     H_    0.854622 0.552327 0.328606 0.126282
H18   H     H_    0.858856 0.551470 0.240736 0.125971
H19   H     H_    0.735743 0.266393 0.122791 0.160844
H20   H     H_    0.733513 0.257524 0.038229 0.105902
H21   H     H_    0.760356 0.227049 0.971590 0.107313
H22   H     H_    0.828643 0.519186 0.635323 0.129664
H23   H     H_    0.234351 0.754619 0.874699 0.164837
H24   H     H_    0.449003 0.651371 0.114175 0.149632
H25   H     H_    0.368395 0.516869 0.089560 0.163792
H26   H     H_    0.506878 0.625540 0.065629 0.142327
H27   H     H_    0.337243 0.623130 0.006889 0.159821
H28   H     H_    0.400462 0.755161 0.031173 0.128474
H29   H     H_    0.226885 0.875735 0.082977 0.136988
H30   H     H_    0.182390 0.812057 0.144203 0.194031
H31   H     H_    0.331879 0.926546 0.136711 0.142966
H32   H     H_    0.359856 0.745923 0.158320 0.195747
H33   H     H_    0.387533 0.809972 0.097636 0.122885
H34   H     H_    0.150005 0.446373 0.367151 0.129326
H35   H     H_    0.770670 0.910449 0.568694 0.125377
H36   H     H_    0.151809 0.444882 0.279321 0.128332
H37   H     H_    0.243530 0.748388 0.962624 0.116914
H38   H     H_    0.094554 0.886689 0.435424 0.123775
H39   H     H_    0.457079 0.218122 0.403907 0.111881
H40   H     H_    0.244840 0.079853 0.408170 0.110453
N1    N     N_R   0.994563 0.496030 0.798092 -0.398061
N2    N     N_R   0.007729 0.497400 0.202642 -0.394404
N3    N     N_R   0.246290 0.438210 0.528570 -0.234531
N4    N     N_R   0.754320 0.561170 0.471730 -0.235966
O1    O     O_R   0.972510 0.318140 0.514280 -0.500837
O2    O     O_R   0.082990 0.479230 0.439860 -0.504298
O3    O     O_R   0.917010 0.520730 0.420680 -0.514022
O4    O     O_2   0.826448 0.315384 0.800710 -0.501672
O5    O     O_2   0.815782 0.339824 0.202897 -0.508805
O6    O     O_2   0.160553 0.678088 0.793717 -0.499067
O7    O     O_2   0.200317 0.650507 0.206320 -0.528527
O8    O     O_R   0.806530 0.359640 0.495100 -0.528227
O9    O     O_R   0.082990 0.479270 0.579320 -0.501664
O10   O     O_R   0.917010 0.520770 0.560140 -0.518527
O11   O     O_R   0.193470 0.640360 0.504900 -0.507249
O12   O     O_R   0.027490 0.681860 0.485720 -0.501629

loop_
_geom_bond_atom_site_label_1
_geom_bond_atom_site_label_2
_ccdc_geom_bond_type
C10   C27   A    
C66   C68   S    
C60   H7    S    
C8    C13   A    
C22   C29   A    
C12   H2    S    
C41   C42   A    
C49   H15   S    
C35   C36   A    
C33   H35   S    
C59   H10   S    
Cu1   O11   S    
C56   H13   S    
C7    C8    A    
C39   C41   A    
C52   N1    A    
C16   C31   S    
C12   C23   A    
C26   C27   A    
C60   N3    A    
C31   C43   A    
C4    O9    A    
Cu2   O12   S    
C29   H37   S    
C36   C37   A    
C68   H30   S    
C65   H26   S    
C38   C39   A    
C1    C46   S    
C15   H17   S    
C18   C19   A    
C37   C42   A    
C11   N2    A    
C26   C64   S    
C14   H18   S    
C47   C60   A    
C52   O6    S    
C64   H27   S    
C63   C69   A    
C45   C56   A    
C8    C9    A    
C25   C67   A    
C68   H31   S    
C9    C10   A    
C13   N2    A    
C53   N4    A    
C48   N4    A    
C17   C70   A    
C21   C22   A    
Cu2   O8    S    
C43   H3    S    
C57   H8    S    
C30   C44   A    
C2    C6    A    
C4    C69   S    
C50   C51   A    
C54   C59   A    
C65   H24   S    
C25   C29   A    
C40   C45   A    
C28   C70   S    
C31   C44   A    
Cu1   O1    S    
C2    C20   A    
C66   H32   S    
C68   H29   S    
C12   C63   A    
C21   C34   A    
C63   H1    S    
C19   N2    S    
C35   H5    S    
C62   C69   A    
C30   H40   S    
C51   C53   A    
C5    C9    A    
C23   N1    S    
C13   O5    S    
C40   N1    A    
C64   H28   S    
C7    H19   S    
C17   C18   A    
Cu1   N3    S    
C34   C45   A    
C1    O1    A    
C16   O12   A    
C52   C67   A    
C48   C49   A    
C40   O4    S    
C42   H6    S    
C55   C57   A    
C2    C5    A    
C66   H33   S    
C47   C55   A    
C15   C70   A    
C54   C55   A    
Cu1   O2    S    
C32   C46   A    
C14   C19   A    
C3    C26   A    
C11   O7    S    
C3    C5    A    
C61   H12   S    
C58   H16   S    
C34   C67   A    
C32   H4    S    
C53   C58   A    
C28   O3    A    
C25   H23   S    
C6    C7    A    
C24   C56   A    
Cu2   N4    S    
C48   H11   S    
C4    O10   A    
C51   C54   A    
C64   C65   S    
C62   H22   S    
C1    O8    A    
C65   H25   S    
C38   C43   A    
C27   C66   S    
C28   O2    A    
C17   H34   S    
C32   C33   A    
C57   C58   A    
C6    H20   S    
Cu2   O3    S    
C36   C38   A    
C33   C35   A    
C30   C39   A    
C47   H9    S    
C61   C62   A    
C16   O11   A    
C18   H36   S    
C10   C11   A    
C50   H14   S    
C23   C61   A    
Cu1   Cu2   S    
C20   C21   A    
C59   N3    A    
C49   C50   A    
C41   H39   S    
Cu2   O10   S    
C14   C15   A    
Cu1   O9    S    
C3    C22   A    
C37   C46   A    
C24   H21   S    
C20   C24   A    
C44   H38   S    
