data_mof_unit_22324.cif
_audit_creation_date              2012-12-10T20:35:52-0500
_audit_creation_method            fapswitch 2.2
_symmetry_space_group_name_H-M    P1
_symmetry_Int_Tables_number       1
_space_group_crystal_system       triclinic
_cell_length_a                    15.753888
_cell_length_b                    10.7033
_cell_length_c                    9.882192
_cell_angle_alpha                 89.412021
_cell_angle_beta                  89.318202
_cell_angle_gamma                 90.788866
_cell_volume                      1665.95479495

loop_
_atom_site_label
_atom_site_type_symbol
_atom_type_description
_atom_site_fract_x
_atom_site_fract_y
_atom_site_fract_z
_atom_type_partial_charge
Br1   Br    Br    0.313318 0.838063 0.642869 -0.495771
Br2   Br    Br    0.312604 0.146669 0.635785 -0.509004
Br3   Br    Br    0.629855 0.689064 0.153643 -0.580169
C1    C     C_R   0.500549 0.260330 0.500553 0.908614
C2    C     C_R   0.506457 0.128786 0.501986 -0.025132
C3    C     C_R   0.536118 0.066811 0.386885 -0.221520
C4    C     C_R   0.338370 0.500116 0.500801 0.967836
C5    C     C_R   0.535091 0.937783 0.385911 -0.194515
C6    C     C_R   0.505424 0.871786 0.500438 -0.032154
C7    C     C_R   0.486291 0.934905 0.619288 -0.015419
C8    C     C_3   0.412558 0.924299 0.716407 0.098983
C9    C     C_3   0.411759 0.067465 0.715276 0.080115
C10   C     C_R   0.453370 0.412970 0.073141 0.167675
C11   C     C_R   0.553024 0.576886 0.068651 0.298834
C12   C     C_3   0.947799 0.403177 0.575893 -0.433103
C13   C     C_R   0.552552 0.577067 0.925249 -0.163247
C14   C     C_R   0.453382 0.412905 0.930726 0.198755
C15   C     C_3   0.359490 0.394379 0.927483 -0.479157
C16   C     C_R   0.500304 0.739791 0.499578 0.927134
C17   C     C_3   0.359641 0.394634 0.081135 -0.515029
C18   C     C_R   0.661726 0.501699 0.499096 0.904751
C19   C     C_3   0.045594 0.396247 0.572209 -0.420827
C20   C     C_3   0.053066 0.507463 0.345034 -0.172691
C21   C     C_3   0.953443 0.500040 0.341853 -0.168977
C22   C     C_1   0.750635 0.508537 0.496447 -0.156307
C23   C     C_3   0.917550 0.516322 0.489616 0.297407
C24   C     C_3   0.083249 0.511781 0.495628 0.273307
C25   C     C_R   0.095214 0.607105 0.251876 0.158542
C26   C     C_R   0.153841 0.569517 0.151887 -0.189791
C27   C     C_R   0.191678 0.656948 0.063119 -0.122580
C28   C     C_R   0.171864 0.783114 0.072608 -0.080725
C29   C     C_R   0.113586 0.822036 0.170175 -0.132193
C30   C     C_R   0.075294 0.735014 0.258760 -0.102184
C31   C     C_R   0.914613 0.572976 0.223888 0.132254
C32   C     C_R   0.866787 0.682622 0.238608 -0.114857
C33   C     C_R   0.840531 0.749633 0.124650 -0.085055
C34   C     C_3   0.953366 0.636669 0.556473 -0.424528
C35   C     C_R   0.858296 0.706050 0.994923 -0.090773
C36   C     C_R   0.902938 0.595568 0.978744 -0.125778
C37   C     C_R   0.931029 0.529814 0.091921 -0.141449
C38   C     C_3   0.050763 0.629337 0.568864 -0.372370
C39   C     C_1   0.825928 0.513998 0.493007 -0.111398
C40   C     C_1   0.174537 0.507551 0.500945 -0.071450
C41   C     C_1   0.249662 0.503699 0.502191 -0.113170
C42   C     C_R   0.486244 0.062052 0.619724 -0.010761
H1    H     H_    0.920344 0.314049 0.537574 0.170710
H2    H     H_    0.593735 0.640860 0.868690 0.173875
H3    H     H_    0.326474 0.475394 0.882087 0.221381
H4    H     H_    0.341197 0.302242 0.885477 0.232658
H5    H     H_    0.327372 0.476388 0.125528 0.224133
H6    H     H_    0.341436 0.302823 0.127235 0.215214
H7    H     H_    0.074554 0.415469 0.306205 0.109057
H8    H     H_    0.936698 0.401202 0.317175 0.119558
H9    H     H_    0.067366 0.623771 0.678011 0.184762
H10   H     H_    0.082295 0.715877 0.529681 0.191013
H11   H     H_    0.924782 0.647454 0.658965 0.169706
H12   H     H_    0.069708 0.392125 0.677645 0.190220
H13   H     H_    0.169962 0.472057 0.141629 0.126347
H14   H     H_    0.236173 0.626947 0.986370 0.142318
H15   H     H_    0.201158 0.850548 0.003625 0.156156
H16   H     H_    0.097289 0.919741 0.176338 0.133329
H17   H     H_    0.028298 0.768294 0.328981 0.119136
H18   H     H_    0.849546 0.718535 0.336194 0.123562
H19   H     H_    0.805441 0.835075 0.137092 0.148503
H20   H     H_    0.837121 0.757549 0.907039 0.123929
H21   H     H_    0.916575 0.561027 0.878606 0.116798
H22   H     H_    0.967230 0.445682 0.076680 0.114984
H23   H     H_    0.925552 0.412283 0.682658 0.181138
H24   H     H_    0.936933 0.722269 0.500019 0.156015
H25   H     H_    0.556607 0.117379 0.296450 0.167126
H26   H     H_    0.554334 0.890732 0.294697 0.206160
H27   H     H_    0.432268 0.884854 0.815517 0.108372
H28   H     H_    0.429997 0.107844 0.814135 0.096944
H29   H     H_    0.065316 0.308665 0.521560 0.187578
N1    N     N_R   0.499430 0.499140 0.142800 -0.128533
N2    N     N_R   0.499430 0.499180 0.857150 -0.124382
O1    O     O_R   0.500010 0.316790 0.614690 -0.613332
O2    O     O_R   0.500000 0.316760 0.385350 -0.628690
O3    O     O_R   0.377150 0.500020 0.614720 -0.593882
O4    O     O_R   0.377140 0.499990 0.385380 -0.622205
O5    O     O_R   0.500000 0.683240 0.614650 -0.620785
O6    O     O_R   0.499990 0.683210 0.385310 -0.587378
O7    O     O_R   0.622860 0.500010 0.614620 -0.629650
O8    O     O_R   0.622850 0.499980 0.385280 -0.572632
Zn1   Zn    Zn3+2 0.500010 0.500020 0.653130 0.971804
Zn2   Zn    Zn3+2 0.499990 0.499980 0.346870 0.996863

loop_
_geom_bond_atom_site_label_1
_geom_bond_atom_site_label_2
_ccdc_geom_bond_type
C5    C6    A    
C34   H24   S    
C32   C33   A    
Br1   C8    S    
Br2   C9    S    
C19   H12   S    
C31   C37   A    
C25   C26   A    
C21   C23   S    
C29   H16   S    
C17   H6    S    
C27   C28   A    
C31   C32   A    
C38   H10   S    
C17   H5    S    
C34   H11   S    
C6    C16   S    
C12   C19   S    
C18   O7    A    
C30   H17   S    
C37   H22   S    
C14   N2    A    
O4    Zn2   S    
C20   C21   S    
C18   O8    A    
C20   C24   S    
C16   O6    A    
C6    C7    A    
O2    Zn2   S    
O1    Zn1   S    
C9    H28   S    
C13   H2    S    
C35   C36   A    
C10   N1    A    
C36   C37   A    
C8    H27   S    
C1    C2    S    
C12   C23   S    
C3    C5    A    
C21   H8    S    
O6    Zn2   S    
C2    C42   A    
C21   C31   S    
C28   H15   S    
C40   C41   T    
C1    O2    A    
C26   C27   A    
C24   C38   S    
N1    Zn2   S    
C28   C29   A    
C35   H20   S    
C27   H14   S    
C7    C42   A    
C14   C15   S    
C20   C25   S    
Br3   C11   S    
O7    Zn1   S    
C25   C30   A    
C19   C24   S    
C36   H21   S    
C11   C13   A    
C19   H29   S    
O3    Zn1   S    
C23   C39   S    
C4    O3    A    
C3    H25   S    
C18   C22   S    
C5    H26   S    
C10   C17   S    
C13   N2    A    
O8    Zn2   S    
C9    C42   S    
C15   H3    S    
C22   C39   T    
C8    C9    S    
C23   C34   S    
C10   C14   A    
C29   C30   A    
C33   C35   A    
C1    O1    A    
C33   H19   S    
C11   N1    A    
C20   H7    S    
C2    C3    A    
C12   H23   S    
C15   C17   S    
C34   C38   S    
C38   H9    S    
C7    C8    S    
C24   C40   S    
C26   H13   S    
C32   H18   S    
C12   H1    S    
C4    C41   S    
C16   O5    A    
N2    Zn1   S    
O5    Zn1   S    
C15   H4    S    
C4    O4    A    
