data_mof_unit_25102.cif
_audit_creation_date              2013-03-05T16:00:37-0500
_audit_creation_method            fapswitch 2.2
_symmetry_space_group_name_H-M    P1
_symmetry_Int_Tables_number       1
_space_group_crystal_system       triclinic
_cell_length_a                    8.313039
_cell_length_b                    12.951486
_cell_length_c                    19.088598
_cell_angle_alpha                 100.392173
_cell_angle_beta                  91.855141
_cell_angle_gamma                 98.278423
_cell_volume                      1996.82294925

loop_
_atom_site_label
_atom_site_type_symbol
_atom_site_description
_atom_site_fract_x
_atom_site_fract_y
_atom_site_fract_z
_atom_type_partial_charge
P1    P     P_3+3 0.042930 0.392230 0.337410 0.469184
O1    O     O_2   0.875110 0.423180 0.326290 -0.368768
O2    O     O_3   0.123410 0.433040 0.414950 -0.418029
O3    O     O_3   0.661010 0.625070 0.369680 -0.366844
O4    O     O_2   0.704947 0.514353 0.247728 -0.427884
O5    O     O_3   0.013118 0.253495 0.314962 -0.526955
O6    O     O_3   0.720548 0.721379 0.249924 -0.513059
H1    H     H_    0.762029 0.853574 0.330379 0.145483
C1    C     C_3   0.639339 0.887890 0.237918 -0.998273
H2    H     H_    0.602339 0.961416 0.268350 0.248395
H3    H     H_    0.752610 0.909360 0.211182 0.276649
P2    P     P_3+3 0.672230 0.754900 0.555730 0.483693
P3    P     P_3+3 0.130010 0.821686 0.408243 0.443031
O7    O     O_2   0.847800 0.768730 0.534310 -0.382446
O8    O     O_3   0.082250 0.684470 0.405440 -0.387688
O9    O     O_2   0.015314 0.876699 0.459675 -0.370027
O10   O     O_3   0.690803 0.796080 0.649066 -0.594103
O11   O     O_3   0.072817 0.850440 0.325793 -0.520533
C2    C     C_3   0.142956 0.785304 0.272270 0.438418
H4    H     H_    0.087842 0.700851 0.268644 0.121552
H5    H     H_    0.276964 0.794733 0.282788 0.022669
C3    C     C_3   0.110397 0.817464 0.200906 -0.902070
H6    H     H_    0.977584 0.806257 0.187362 0.276387
H7    H     H_    0.162123 0.902063 0.203403 0.297953
C4    C     C_3   0.240991 0.777931 0.615191 0.356239
H8    H     H_    0.334409 0.732452 0.590486 0.101327
H9    H     H_    0.134168 0.767635 0.576973 0.146474
C5    C     C_3   0.312307 0.894250 0.633060 -0.757902
H10   H     H_    0.438805 0.903620 0.655878 0.270037
H11   H     H_    0.310016 0.929040 0.584303 0.250665
H12   H     H_    0.240535 0.937609 0.673000 0.287445
Ba1   Ba    Ba6+2 0.853180 0.547790 0.465300 1.601085
C6    C     C_3   0.956641 0.209250 0.372578 0.373554
H13   H     H_    0.829192 0.222363 0.379305 0.069451
H14   H     H_    0.033819 0.243277 0.422298 0.114206
C7    C     C_3   0.962206 0.090407 0.355690 -0.819804
H15   H     H_    0.899385 0.055399 0.302835 0.264499
H16   H     H_    0.901798 0.050116 0.396461 0.194530
H17   H     H_    0.090649 0.076150 0.354726 0.286422
C8    C     C_3   0.786151 0.736734 0.682771 0.868926
H18   H     H_    0.872477 0.700115 0.646904 0.012893
C9    C     C_3   0.884498 0.806240 0.748067 -1.051745
H19   H     H_    0.983003 0.861758 0.731557 0.278197
H20   H     H_    0.942112 0.756279 0.779709 0.226450
H21   H     H_    0.805172 0.851386 0.783528 0.268380
P4    P     P_3+3 0.146790 0.607860 0.662600 0.507857
O12   O     O_2   0.314600 0.576860 0.673750 -0.234565
O13   O     O_3   0.066300 0.567050 0.585060 -0.438176
O14   O     O_3   0.528700 0.375020 0.630330 -0.249358
O15   O     O_3   0.193286 0.745720 0.678296 -0.565712
P5    P     P_3+3 0.067906 0.178742 0.592599 0.559392
O16   O     O_3   0.611760 0.365720 0.463870 -0.396197
O17   O     O_3   0.107460 0.315620 0.594570 -0.344352
O18   O     O_2   0.194632 0.131501 0.544607 -0.311534
O19   O     O_3   0.131318 0.151340 0.675923 -0.512619
Ba2   Ba    Ba6+2 0.336650 0.452300 0.534710 1.669401
P6    P     P_3+3 0.622048 0.609822 0.279231 0.430553
C10   C     C_3   0.667068 0.812844 0.288389 0.440076
H22   H     H_    0.551790 0.796926 0.315370 0.016569
H23   H     H_    0.541143 0.849339 0.196727 0.263050
O20   O     O_3   0.577950 0.634370 0.536140 -0.361633
C11   C     C_3   0.462652 0.285032 0.317573 0.255858
H24   H     H_    0.341676 0.304164 0.333038 0.096360
H25   H     H_    0.556634 0.355393 0.337095 0.099743
C12   C     C_3   0.466271 0.261965 0.236084 -0.098775
H26   H     H_    0.447006 0.334505 0.215567 0.064825
H27   H     H_    0.588569 0.243403 0.221268 0.135335
P7    P     P_3+3 0.519754 0.230471 0.438442 0.450974
O21   O     O_2   0.341900 0.231310 0.465740 -0.352286
O22   O     O_3   0.495591 0.196305 0.345168 -0.573440
H28   H     H_    0.167463 0.767882 0.158040 0.210424
C13   C     C_3   0.047498 0.199380 0.733336 0.868927
H29   H     H_    0.925345 0.211281 0.715411 -0.027102
C14   C     C_3   0.025811 0.125407 0.788180 -1.035022
H30   H     H_    0.131559 0.138854 0.827356 0.288948
H31   H     H_    0.914965 0.136930 0.817791 0.234151
H32   H     H_    0.017596 0.041828 0.761703 0.251899
P8    P     P_3+3 0.568256 0.389257 0.723643 0.621824
C15   C     C_3   0.551531 0.198981 0.750127 0.956806
H33   H     H_    0.675142 0.223704 0.776411 -0.146586
O23   O     O_2   0.483059 0.482758 0.757023 -0.298350
O24   O     O_3   0.462781 0.283927 0.758080 -0.518123
H34   H     H_    0.457347 0.145337 0.844189 0.244247
C16   C     C_3   0.468621 0.112237 0.786997 -0.978878
H35   H     H_    0.541319 0.046287 0.783647 0.238504
H36   H     H_    0.345695 0.080278 0.761839 0.275887
C17   C     C_R   0.054879 0.576603 0.803563 -0.315828
H37   H     H_    0.144178 0.645582 0.824320 0.141922
C18   C     C_R   0.019594 0.550430 0.728622 0.275697
C19   C     C_R   0.854218 0.428545 0.816928 -0.294259
H38   H     H_    0.801367 0.368194 0.844926 0.135311
C20   C     C_R   0.788185 0.427641 0.748493 0.163166
C21   C     C_R   0.331926 0.596459 0.195843 -0.378856
H39   H     H_    0.384359 0.666006 0.176182 0.145377
C22   C     C_R   0.403465 0.577790 0.258490 0.247013
C23   C     C_R   0.121805 0.449033 0.199451 -0.271590
H40   H     H_    0.022948 0.387720 0.175868 0.156999
C24   C     C_R   0.166595 0.457537 0.273296 0.304825
C25   C     C_R   0.982201 0.509031 0.849571 0.184176
C26   C     C_R   0.882831 0.477308 0.702274 -0.274157
H41   H     H_    0.843857 0.464262 0.646347 0.156312
C27   C     C_R   0.200334 0.523866 0.158723 0.099714
C28   C     C_R   0.314590 0.516520 0.299966 -0.447373
H42   H     H_    0.364496 0.511258 0.352069 0.153629
C29   C     C_R   0.756002 0.466682 0.964587 -0.196699
C30   C     C_R   0.651200 0.425289 0.011200 -0.094575
C31   C     C_R   0.701064 0.440036 0.082315 -0.087916
C32   C     C_R   0.858442 0.489413 0.104448 -0.148468
C33   C     C_R   0.979076 0.502752 0.055481 0.064642
C34   C     C_R   0.925643 0.495474 0.982062 0.092574
C35   C     C_R   0.146576 0.528152 0.080091 -0.056065
C36   C     C_R   0.258980 0.557299 0.028283 0.088328
C37   C     C_R   0.205988 0.549243 0.954351 0.084103
C38   C     C_R   0.038356 0.518802 0.929463 -0.042344
C39   C     C_R   0.427197 0.592917 0.046624 -0.184551
C40   C     C_R   0.530437 0.636485 0.000314 -0.113231
C41   C     C_R   0.482319 0.620346 0.929030 -0.131471
C42   C     C_R   0.327568 0.567700 0.905953 -0.075880
H43   H     H_    0.697717 0.479741 0.916709 0.141662
H44   H     H_    0.524940 0.395311 0.994183 0.156565
H45   H     H_    0.613632 0.421326 0.120617 0.150088
H46   H     H_    0.885673 0.518891 0.160083 0.187225
H47   H     H_    0.488950 0.581178 0.093713 0.153204
H48   H     H_    0.655737 0.668958 0.017746 0.146200
H49   H     H_    0.569706 0.640303 0.890978 0.178857
H50   H     H_    0.307515 0.539883 0.849771 0.210643
C43   C     C_R   0.781198 0.174394 0.509570 -0.376544
C44   C     C_R   0.434370 0.809603 0.469118 -0.492766
C45   C     C_R   0.406953 0.981175 0.441100 -0.192973
C46   C     C_R   0.342861 0.874939 0.439888 0.191982
C47   C     C_R   0.581300 0.850604 0.508577 0.232772
C48   C     C_R   0.647589 0.961481 0.512616 -0.086038
C49   C     C_R   0.560561 0.025725 0.475559 -0.008547
C50   C     C_R   0.625674 0.134656 0.477785 0.267299
C51   C     C_R   0.868238 0.113854 0.545669 0.151313
C52   C     C_R   0.794612 0.012030 0.552948 -0.112713
H51   H     H_    0.334065 0.028543 0.416072 0.175525
H52   H     H_    0.831571 0.256428 0.510215 0.135392
H53   H     H_    0.383674 0.727001 0.465948 0.161125
N1    N     N_R   0.676139 0.655246 0.705554 0.187056
O25   O     O_R   0.617484 0.575664 0.656001 -0.367020
O26   O     O_R   0.590128 0.681306 0.759983 -0.405133
N2    N     N_R   0.342132 0.173978 0.201767 0.277849
O27   O     O_R   0.331017 0.147563 0.132556 -0.376105
O28   O     O_R   0.242614 0.121413 0.238672 -0.362866
N3    N     N_R   0.139286 0.302578 0.766870 0.232587
O29   O     O_R   0.180725 0.373534 0.728301 -0.350120
O30   O     O_R   0.179618 0.325925 0.835021 -0.433400
N4    N     N_R   0.563442 0.159103 0.674830 0.234213
O31   O     O_R   0.684488 0.203186 0.644479 -0.524400
O32   O     O_R   0.434262 0.113233 0.635397 -0.345432
C53   C     C_2   0.837771 0.982609 0.620043 1.102651
O33   O     O_2   0.965008 0.948774 0.628247 -0.651605
O34   O     O_R   0.734318 0.000321 0.675570 -0.817711
H54   H     H_    0.770626 0.979535 0.721103 0.321669

loop_
_geom_bond_atom_site_label_1
_geom_bond_atom_site_label_2
_geom_bond_distance
_ccdc_geom_bond_type
C29   C34   1.418563 A    
C21   H39   1.077801 S    
P2    C47   1.883137 S    
C23   C27   1.446521 A    
C19   C25   1.417817 A    
C2    H4    1.112393 S    
C43   C50   1.396232 A    
C17   H37   1.080960 S    
C25   C38   1.557854 S    
C51   C52   1.404367 A    
P4    C18   1.859456 S    
O14   P8    1.772291 S    
C4    C5    1.510527 S    
C14   H31   1.110744 S    
P3    O11   1.748077 S    
C5    H10   1.106699 S    
C2    H5    1.110741 S    
C44   H53   1.082098 S    
C16   H36   1.104958 S    
Ba1   O20   2.951773 S    
O11   C2    1.401687 S    
C33   C35   1.427502 A    
C15   C16   1.525201 S    
C12   N2    1.463197 S    
C30   C31   1.377782 A    
N2    O27   1.300363 A    
N2    O28   1.301042 A    
C6    C7    1.522387 S    
C32   C33   1.406509 A    
C11   O22   1.404504 S    
O1    Ba1   2.872287 S    
P1    O1    1.524658 D    
C4    O15   1.395322 S    
Ba1   O16   2.863474 S    
C11   H25   1.110547 S    
H1    C10   1.109269 S    
C37   C38   1.433326 A    
P5    C51   1.869309 S    
C35   C36   1.444500 A    
C48   C49   1.438275 A    
C12   H27   1.111691 S    
C14   H32   1.100432 S    
C23   C24   1.426859 A    
P2    O10   1.760181 S    
P3    C46   1.844052 S    
C31   C32   1.387412 A    
C43   H52   1.082199 S    
C1    H2    1.111402 S    
C34   C38   1.437404 A    
O6    C10   1.413880 S    
C17   C25   1.435827 A    
O19   C13   1.414911 S    
O16   P7    1.781115 S    
C15   N4    1.448647 S    
C8    C9    1.532839 S    
C21   C22   1.393508 A    
P2    Ba1   3.478105 S    
Ba1   Ba2   4.595209 S    
Ba1   O13   2.798547 S    
C27   C35   1.565086 S    
C9    H20   1.106538 S    
C36   C37   1.445677 A    
C52   C53   1.449108 S    
C22   C28   1.377712 A    
N3    O30   1.302643 A    
C7    H17   1.109657 S    
P4    O13   1.571515 S    
C39   H47   1.066068 S    
C14   H30   1.108482 S    
C18   C26   1.386901 A    
P1    O5    1.749492 S    
O8    Ba1   2.822303 S    
C2    C3    1.521751 S    
N1    O25   1.291713 A    
C13   C14   1.539700 S    
C33   C34   1.438850 A    
O7    Ba1   2.933637 S    
P7    O21   1.584326 D    
P8    C20   1.847111 S    
C4    H8    1.107987 S    
P1    Ba1   3.449213 S    
C37   C42   1.415170 A    
P5    O17   1.749154 S    
O10   C8    1.397784 S    
O3    P6    1.716743 S    
C11   H24   1.106584 S    
O2    Ba2   2.799140 S    
P8    O24   1.754497 S    
C19   C20   1.397916 A    
H34   C16   1.110749 S    
C39   C40   1.387821 A    
C48   C52   1.428964 A    
C23   H40   1.080627 S    
C6    H13   1.104806 S    
C16   H35   1.109196 S    
C1    H3    1.109666 S    
O34   H54   1.004897 S    
O3    Ba1   2.795733 S    
C45   C49   1.411639 A    
P7    O22   1.753068 S    
C8    H18   1.105139 S    
P2    O7    1.522906 D    
Ba2   O21   2.933827 S    
P3    O8    1.754970 S    
C49   C50   1.429043 A    
C3    H7    1.109890 S    
C10   H22   1.113319 S    
C9    H19   1.102641 S    
C31   H45   1.081273 S    
C47   C48   1.449549 A    
C44   C47   1.396625 A    
C3    H28   1.109165 S    
C20   C26   1.383888 A    
N3    O29   1.294054 A    
C53   O34   1.394213 S    
O17   Ba2   2.822902 S    
O13   Ba2   2.961382 S    
P4    O12   1.524942 D    
C1    C10   1.521181 S    
C40   H48   1.083280 S    
C11   C12   1.532232 S    
C30   H44   1.083052 S    
Ba2   O20   2.862892 S    
C5    H12   1.106379 S    
C32   H46   1.066812 S    
C13   H29   1.101629 S    
C44   C46   1.390796 A    
C21   C27   1.412802 A    
C15   O24   1.399452 S    
N1    O26   1.302192 A    
C4    H9    1.107903 S    
O14   Ba2   2.795131 S    
C29   C30   1.387783 A    
P4    O15   1.740087 S    
O5    C6    1.393451 S    
O4    P6    1.539260 D    
C1    H23   1.110561 S    
P5    O18   1.539250 D    
N4    O32   1.294355 A    
C45   C46   1.397912 A    
P1    C24   1.864020 S    
C5    H11   1.105543 S    
C24   C28   1.380164 A    
N4    O31   1.290669 A    
P2    O20   1.615262 S    
P8    O23   1.540095 D    
C19   H38   1.075471 S    
C13   N3    1.464388 S    
C40   C41   1.375962 A    
C8    N1    1.432744 S    
C7    H16   1.107483 S    
C26   H41   1.081665 S    
C6    H14   1.111251 S    
O6    P6    1.746878 S    
P7    C50   1.867448 S    
P5    O19   1.771125 S    
O2    Ba1   2.960544 S    
C43   C51   1.392556 A    
C15   H33   1.106388 S    
C45   H51   1.079721 S    
C53   O33   1.217725 D    
C7    H15   1.108556 S    
C12   H26   1.110720 S    
P6    C22   1.818722 S    
P3    O9    1.544176 D    
P4    Ba2   3.449727 S    
C28   H42   1.082502 S    
C17   C18   1.420054 A    
C3    H6    1.108484 S    
C29   H43   1.072060 S    
C42   H50   1.067445 S    
P1    O2    1.571489 S    
C41   C42   1.384295 A    
C41   H49   1.081651 S    
C9    H21   1.109992 S    
C36   C39   1.419562 A    
O16   Ba2   2.950933 S    
O12   Ba2   2.872669 S    
