data_mof_unit_48272.cif
_audit_creation_date              2012-12-10T16:42:57-0500
_audit_creation_method            fapswitch 2.2
_symmetry_space_group_name_H-M    P1
_symmetry_Int_Tables_number       1
_space_group_crystal_system       triclinic
_cell_length_a                    7.432605
_cell_length_b                    8.741777
_cell_length_c                    13.013583
_cell_angle_alpha                 87.704128
_cell_angle_beta                  80.734099
_cell_angle_gamma                 102.827724
_cell_volume                      811.157397409

loop_
_atom_site_label
_atom_site_type_symbol
_atom_type_description
_atom_site_fract_x
_atom_site_fract_y
_atom_site_fract_z
_atom_type_partial_charge
C1    C     C_R   0.452623 0.200107 0.504401 0.860739
C2    C     C_R   0.545788 0.799382 0.501194 0.849313
C3    C     C_R   0.468406 0.487551 0.700922 0.861874
C4    C     C_R   0.531541 0.512276 0.299113 0.899183
C5    C     C_R   0.543589 0.534471 0.186439 -0.173633
C6    C     C_R   0.456018 0.465243 0.813685 -0.171248
C7    C     C_R   0.284779 0.354005 0.983944 -0.281185
C8    C     C_R   0.714423 0.645757 0.016159 -0.278447
C9    C     C_R   0.301033 0.359446 0.875970 -0.073468
C10   C     C_R   0.698124 0.640831 0.124139 -0.100549
C11   C     C_R   0.602363 0.550257 0.860159 0.404971
C12   C     C_R   0.397449 0.448414 0.140145 0.413726
C13   C     C_R   0.579747 0.548808 0.969032 0.013934
C14   C     C_R   0.419194 0.451011 0.031228 0.004459
C15   C     C_2   0.424424 0.032808 0.503880 0.165913
C16   C     C_2   0.565799 0.963843 0.515748 0.223698
Cu1   Cu    Cu3+1 0.686350 0.517570 0.488220 1.004195
Cu2   Cu    Cu3+1 0.313650 0.482430 0.511780 1.004530
H1    H     H_    0.167596 0.270622 0.030947 0.189014
H2    H     H_    0.832051 0.728424 0.968900 0.183711
H3    H     H_    0.934513 0.375187 0.580664 0.241917
H4    H     H_    0.065475 0.625127 0.419452 0.247906
N1    N     N_2   0.033570 0.455950 0.529530 -0.217274
N2    N     N_2   0.966430 0.544050 0.470470 -0.230902
O1    O     O_R   0.621060 0.286250 0.492350 -0.572949
O2    O     O_R   0.378940 0.713750 0.507650 -0.597274
O3    O     O_R   0.306310 0.256580 0.512240 -0.536063
O4    O     O_R   0.693690 0.743420 0.487760 -0.539179
O5    O     O_R   0.631800 0.512400 0.642670 -0.579841
O6    O     O_R   0.368200 0.487600 0.357330 -0.560204
O7    O     O_R   0.317060 0.482730 0.662570 -0.594652
O8    O     O_R   0.682940 0.517270 0.337430 -0.587287
O9    O     O_3   0.239678 0.352765 0.201690 -0.566305
C17   C     C_3   0.093401 0.433628 0.212509 -0.201802
H5    H     H_    0.138056 0.553910 0.238483 0.144694
H6    H     H_    0.976561 0.366555 0.272736 0.218813
H7    H     H_    0.037987 0.442015 0.138671 0.124052
O10   O     O_3   0.763827 0.640585 0.798764 -0.601329
C18   C     C_3   0.903839 0.553227 0.790568 -0.270476
H8    H     H_    0.023952 0.615306 0.730718 0.193543
H9    H     H_    0.853860 0.433085 0.765490 0.151397
H10   H     H_    0.956391 0.543961 0.865265 0.144400
C19   C     C_2   0.841259 0.755216 0.166986 0.379556
H11   H     H_    0.981348 0.796077 0.121736 0.060658
O11   O     O_2   0.802315 0.811990 0.249511 -0.518858
C20   C     C_2   0.158487 0.245017 0.832986 0.339745
H12   H     H_    0.017748 0.204833 0.877539 0.059794
O12   O     O_2   0.198901 0.187366 0.751074 -0.596693
O13   O     O_3   0.253894 0.948467 0.483466 -0.581300
C21   C     C_3   0.124932 0.914476 0.578404 -0.110005
H13   H     H_    0.074233 0.019942 0.601414 0.220713
H14   H     H_    0.184851 0.868418 0.643071 0.112610
H15   H     H_    0.002026 0.822868 0.567223 0.212547
O14   O     O_3   0.727831 0.044894 0.547345 -0.562368
C22   C     C_3   0.695593 0.035679 0.657715 -0.378780
H16   H     H_    0.817598 0.111028 0.684200 0.196658
H17   H     H_    0.570706 0.080463 0.690114 0.164224
H18   H     H_    0.680150 0.912928 0.690390 0.189583

loop_
_geom_bond_atom_site_label_1
_geom_bond_atom_site_label_2
_ccdc_geom_bond_type
C11   O10   S    
C21   H14   S    
C22   H16   S    
C8    C13   A    
Cu2   O6    S    
C7    C14   A    
C17   H7    S    
Cu1   O5    S    
C7    H1    S    
Cu2   O2    S    
N1    N2    D    
C3    C6    S    
Cu1   O1    S    
C6    C9    A    
C15   O13   S    
Cu1   Cu2   S    
C12   O9    S    
C9    C20   S    
C2    O2    A    
C4    O8    A    
C13   C14   A    
C3    O7    A    
C1    O1    A    
C19   O11   D    
C6    C11   A    
C3    O5    A    
C8    H2    S    
C1    C15   S    
C5    C10   A    
O9    C17   S    
C21   H13   S    
C18   H10   S    
C17   H6    S    
C22   H17   S    
C19   H11   S    
O10   C18   S    
C17   H5    S    
H4    N2    S    
C22   H18   S    
Cu1   N2    S    
Cu2   N1    S    
C21   H15   S    
C20   O12   D    
C7    C9    A    
C11   C13   A    
C2    C16   S    
C5    C12   A    
C18   H9    S    
O13   C21   S    
C16   O14   S    
C18   H8    S    
C1    O3    A    
Cu1   O8    S    
C20   H12   S    
C2    O4    A    
Cu2   O7    S    
C10   C19   S    
O14   C22   S    
Cu1   O4    S    
H3    N1    S    
C8    C10   A    
C4    O6    A    
Cu2   O3    S    
C15   C16   D    
C12   C14   A    
C4    C5    S    
