data_mof_unit_29718.cif
_audit_creation_date              2012-10-26T18:34:23-0400
_audit_creation_method            fapswitch 2.2
_symmetry_space_group_name_H-M    P1
_symmetry_Int_Tables_number       1
_space_group_crystal_system       triclinic
_cell_length_a                    10.752164
_cell_length_b                    9.688041
_cell_length_c                    9.040583
_cell_angle_alpha                 89.954691
_cell_angle_beta                  92.316071
_cell_angle_gamma                 90.045545
_cell_volume                      940.964204978

loop_
_atom_site_label
_atom_site_type_symbol
_atom_type_description
_atom_site_fract_x
_atom_site_fract_y
_atom_site_fract_z
_atom_type_partial_charge
C1    C     C_R   0.263023 0.500005 0.500142 0.576224
C2    C     C_R   0.068772 0.541674 0.628501 0.060679
C3    C     C_R   0.871019 0.499893 0.499526 0.027378
C4    C     C_R   0.128981 0.500102 0.500492 0.027374
C5    C     C_R   0.434320 0.073132 0.392996 0.231213
C6    C     C_R   0.565683 0.926868 0.607002 0.231220
C7    C     C_R   0.565761 0.073177 0.606953 0.232882
C8    C     C_R   0.434239 0.926823 0.393047 0.232880
C9    C     C_R   0.736977 0.499994 0.499873 0.576230
C10   C     C_R   0.499640 0.500030 0.221173 0.555710
C11   C     C_R   0.500361 0.499970 0.778826 0.555712
C12   C     C_1   0.499867 0.500041 0.065722 -0.060692
C13   C     C_1   0.500134 0.499959 0.934278 -0.060690
C14   C     C_R   0.061121 0.458666 0.372310 0.101751
C15   C     C_R   0.938879 0.541302 0.627717 0.101733
C16   C     C_R   0.931227 0.458361 0.371505 0.060694
Cu1   Cu    Cu3+1 0.500000 0.640660 0.500000 0.933324
Cu2   Cu    Cu3+1 0.500000 0.359340 0.500000 0.933344
H1    H     H_    0.096642 0.485461 0.155899 0.257946
H2    H     H_    0.428730 0.170256 0.193466 0.249518
H3    H     H_    0.687100 0.780382 0.690332 0.286828
H4    H     H_    0.571292 0.829731 0.806528 0.249525
H5    H     H_    0.688076 0.219399 0.690377 0.277451
H6    H     H_    0.571674 0.170469 0.806365 0.249640
H7    H     H_    0.311923 0.780601 0.309624 0.277443
H8    H     H_    0.428324 0.829530 0.193635 0.249640
H9    H     H_    0.098225 0.319080 0.213558 0.258064
H10   H     H_    0.903425 0.514417 0.844132 0.257957
H11   H     H_    0.901709 0.680811 0.786522 0.258062
H12   H     H_    0.803194 0.499770 0.206580 0.233173
H13   H     H_    0.807446 0.332580 0.262785 0.255153
H14   H     H_    0.196886 0.500470 0.793407 0.233165
H15   H     H_    0.192462 0.667631 0.737108 0.255162
H16   H     H_    0.312924 0.219630 0.309651 0.286865
N1    N     N_R   0.500000 0.852070 0.500000 -0.255268
N2    N     N_3   0.366534 0.861167 0.272924 -0.587414
N3    N     N_R   0.500000 0.147930 0.500000 -0.255271
N4    N     N_3   0.125061 0.419572 0.242461 -0.625743
N5    N     N_3   0.874938 0.580306 0.757598 -0.625743
N6    N     N_3   0.862078 0.418471 0.239169 -0.635531
N7    N     N_3   0.137918 0.581687 0.760794 -0.635516
N8    N     N_3   0.366797 0.138771 0.272769 -0.589296
N9    N     N_3   0.633216 0.861229 0.727221 -0.589303
N10   N     N_3   0.633465 0.138833 0.727076 -0.587412
O1    O     O_R   0.319640 0.618740 0.499990 -0.517721
O2    O     O_R   0.680360 0.381260 0.500010 -0.517706
O3    O     O_R   0.680360 0.618740 0.500010 -0.495311
O4    O     O_R   0.319640 0.381260 0.499990 -0.495287
O5    O     O_R   0.500000 0.618760 0.288390 -0.509946
O6    O     O_R   0.500000 0.381240 0.711610 -0.509947
O7    O     O_R   0.500000 0.618760 0.711610 -0.510069
O8    O     O_R   0.500000 0.381240 0.288390 -0.510077

loop_
_geom_bond_atom_site_label_1
_geom_bond_atom_site_label_2
_ccdc_geom_bond_type
C5    C8    A    
C2    C4    A    
C5    N8    S    
C1    O4    A    
C6    C7    A    
C3    C9    S    
H1    N4    S    
C5    N3    A    
C14   N4    S    
Cu1   N1    S    
C6    N1    A    
C15   N5    S    
H2    N8    S    
H4    N9    S    
H16   N8    S    
H14   N7    S    
C1    C4    S    
C10   O8    A    
H11   N5    S    
Cu1   Cu2   S    
C7    N3    A    
H12   N6    S    
C9    O2    A    
C1    O1    A    
C11   O6    A    
H7    N2    S    
C7    N10   S    
C12   C13   T    
C2    C15   A    
C11   C13   S    
Cu1   O7    S    
C10   C12   S    
C16   N6    S    
Cu2   O2    S    
H8    N2    S    
Cu2   N3    S    
Cu1   O1    S    
C9    O3    A    
C6    N9    S    
C4    C14   A    
H6    N10   S    
C14   C16   A    
C11   O7    A    
C3    C16   A    
C2    N7    S    
Cu2   O8    S    
C3    C15   A    
H15   N7    S    
Cu2   O6    S    
C8    N2    S    
Cu1   O5    S    
H9    N4    S    
H10   N5    S    
H13   N6    S    
H3    N9    S    
C10   O5    A    
H5    N10   S    
Cu1   O3    S    
C8    N1    A    
Cu2   O4    S    
