data_mof_unit_8117.cif
_audit_creation_date              2012-12-11T14:56:43-0500
_audit_creation_method            fapswitch 2.2
_symmetry_space_group_name_H-M    P1
_symmetry_Int_Tables_number       1
_space_group_crystal_system       triclinic
_cell_length_a                    10.529415
_cell_length_b                    10.665288
_cell_length_c                    17.054033
_cell_angle_alpha                 80.409851
_cell_angle_beta                  89.920013
_cell_angle_gamma                 119.266421
_cell_volume                      1639.69060104

loop_
_atom_site_label
_atom_site_type_symbol
_atom_type_description
_atom_site_fract_x
_atom_site_fract_y
_atom_site_fract_z
_atom_type_partial_charge
C1    C     C_R   0.221810 0.853786 0.128542 0.541423
C2    C     C_1   0.684316 0.401637 0.709973 -0.053935
C3    C     C_R   0.624884 0.715413 0.803518 -0.145155
C4    C     C_R   0.638093 0.282224 0.085972 0.554160
C5    C     C_R   0.610566 0.702012 0.725050 -0.164336
C6    C     C_R   0.667623 0.827102 0.664161 0.047142
C7    C     C_R   0.744841 0.968502 0.682568 -0.022745
C8    C     C_R   0.757927 0.980312 0.762471 -0.171318
C9    C     C_R   0.690919 0.854159 0.822631 0.012620
C10   C     C_R   0.081049 0.881820 0.790740 -0.134760
C11   C     C_R   0.064836 0.878825 0.711089 -0.126434
C12   C     C_R   0.826556 0.459925 0.252977 -0.158912
C13   C     C_R   0.114048 0.802029 0.672119 0.035430
C14   C     C_R   0.166327 0.716413 0.714983 -0.135167
C15   C     C_R   0.184002 0.720464 0.795074 -0.123560
C16   C     C_R   0.601317 0.881912 0.131011 0.558369
C17   C     C_R   0.149212 0.810425 0.831569 0.027957
C18   C     C_R   0.683161 0.813152 0.358636 0.556687
C19   C     C_R   0.727511 0.460309 0.383218 0.569584
C20   C     C_R   0.104509 0.810511 0.359388 0.552160
C21   C     C_R   0.676928 0.801593 0.584747 0.587325
C22   C     C_R   0.717256 0.446029 0.626079 0.558932
C23   C     C_R   0.806157 0.423555 0.178082 -0.180411
C24   C     C_R   0.089908 0.798697 0.589470 0.546414
C25   C     C_R   0.215904 0.857718 0.902576 0.546531
C26   C     C_R   0.640133 0.290541 0.861899 0.545684
C27   C     C_R   0.647924 0.866707 0.899722 0.559106
C28   C     C_R   0.550423 0.357466 0.195717 0.372613
C29   C     C_R   0.572039 0.396579 0.270310 -0.077702
C30   C     C_R   0.707864 0.438846 0.301136 -0.040268
C31   C     C_2   0.808191 0.105524 0.621590 0.252444
C32   C     C_R   0.665775 0.362431 0.151285 0.029697
C33   C     C_1   0.635015 0.871750 0.211304 -0.025775
C34   C     C_1   0.661388 0.855630 0.279102 -0.023587
C35   C     C_1   0.180369 0.825478 0.211178 -0.026428
C36   C     C_1   0.151696 0.819793 0.279907 -0.024728
C37   C     C_1   0.661499 0.357587 0.780504 -0.045762
Cr1   Cr    Cr6+3 0.402240 0.783890 0.019450 1.046659
Cr2   Cr    Cr6+3 0.382360 0.097900 0.991800 1.078048
Cr3   Cr    Cr6+3 0.715380 0.118170 0.988700 1.031967
Cr4   Cr    Cr6+3 0.936650 0.882420 0.465510 1.065605
Cr5   Cr    Cr6+3 0.605770 0.565620 0.493360 1.035285
Cr6   Cr    Cr6+3 0.921340 0.550490 0.496380 1.042169
F1    F     F_    0.414639 0.304671 0.170363 -0.608676
H1    H     H_    0.015283 0.938465 0.679797 0.140390
H2    H     H_    0.050421 0.948631 0.818626 0.134027
H3    H     H_    0.891913 0.207161 0.636729 0.109831
H4    H     H_    0.198130 0.651543 0.686048 0.129272
H5    H     H_    0.235499 0.662796 0.826304 0.144743
H6    H     H_    0.480098 0.385377 0.305497 0.169074
H7    H     H_    0.933530 0.498353 0.274690 0.148666
H8    H     H_    0.898309 0.433230 0.143816 0.159299
H9    H     H_    0.574147 0.617220 0.849532 0.139078
H10   H     H_    0.557056 0.592458 0.712108 0.137855
H11   H     H_    0.808317 0.088256 0.777669 0.131551
O1    O     O_R   0.521780 0.757110 0.108900 -0.483979
O2    O     O_R   0.805020 0.410040 0.421340 -0.459239
O3    O     O_R   0.049240 0.685450 0.403290 -0.524697
O4    O     O_R   0.275160 0.783810 0.101120 -0.519057
O5    O     O_R   0.077520 0.903010 0.551800 -0.513709
O6    O     O_R   0.802980 0.872780 0.546830 -0.477830
O7    O     O_R   0.578090 0.681300 0.569920 -0.535756
O8    O     O_R   0.608530 0.436370 0.586530 -0.480996
O9    O     O_R   0.798770 0.401880 0.597100 -0.486139
O10   O     O_R   0.043450 0.677890 0.566230 -0.522818
O11   O     O_3   0.821250 0.666180 0.485090 -0.317420
O12   O     O_R   0.513330 0.228330 0.898660 -0.496542
O13   O     O_R   0.237900 0.972600 0.090980 -0.469580
O14   O     O_R   0.511190 0.220540 0.061620 -0.434401
O15   O     O_R   0.736920 0.257720 0.063840 -0.540089
O16   O     O_R   0.710450 0.984050 0.081720 -0.486960
O17   O     O_R   0.524090 0.765520 0.933110 -0.509017
O18   O     O_R   0.277300 0.791600 0.938160 -0.506836
O19   O     O_R   0.240210 0.981010 0.915190 -0.515775
O20   O     O_2   0.764866 0.108048 0.555277 -0.457721
O21   O     O_R   0.739230 0.266130 0.888050 -0.515087
O22   O     O_R   0.712580 0.991850 0.918770 -0.501743
O23   O     O_3   0.499990 0.999980 0.999980 -0.283939
O24   O     O_R   0.083770 0.911170 0.376030 -0.479604
O25   O     O_R   0.808770 0.880340 0.383890 -0.478818
O26   O     O_R   0.584340 0.689460 0.394160 -0.518777
O27   O     O_R   0.614320 0.443940 0.423590 -0.491612

loop_
_geom_bond_atom_site_label_1
_geom_bond_atom_site_label_2
_ccdc_geom_bond_type
Cr3   O16   S    
C11   C13   A    
Cr2   O13   S    
C35   C36   T    
Cr5   O27   S    
Cr4   O6    S    
C1    O13   A    
Cr4   O25   S    
C4    O15   A    
C7    C8    A    
C19   O2    A    
Cr5   O26   S    
C12   C23   A    
C9    C27   S    
Cr3   O15   S    
C26   O12   A    
C28   C29   A    
C1    O4    A    
C5    C6    A    
C10   C17   A    
C18   O26   A    
C25   O19   A    
Cr2   O19   S    
Cr6   O3    S    
C22   O8    A    
C8    C9    A    
C10   H2    S    
C26   O21   A    
C19   O27   A    
Cr5   O7    S    
C21   O6    A    
C24   O5    A    
C31   H3    S    
C13   C14   A    
C16   O16   A    
C8    H11   S    
C4    O14   A    
Cr6   O9    S    
C29   H6    S    
Cr1   O17   S    
C7    C31   S    
Cr2   O23   S    
C5    H10   S    
C28   C32   A    
C14   H4    S    
Cr4   O11   S    
C3    C5    A    
C6    C21   S    
C28   F1    S    
Cr3   O21   S    
C13   C24   S    
C16   O1    A    
C2    C22   S    
C29   C30   A    
C3    C9    A    
C16   C33   S    
C31   O20   D    
Cr6   O10   S    
C33   C34   T    
Cr2   O14   S    
C18   C34   S    
C21   O7    A    
C4    C32   S    
C24   O10   A    
Cr3   O23   S    
C11   H1    S    
C20   O3    A    
C12   H7    S    
C1    C35   S    
C15   C17   A    
C20   O24   A    
C12   C30   A    
C14   C15   A    
Cr2   O12   S    
Cr4   O5    S    
C27   O22   A    
Cr4   O24   S    
C26   C37   S    
C6    C7    A    
Cr1   O23   S    
C17   C25   S    
C23   C32   A    
C3    H9    S    
C2    C37   T    
C23   H8    S    
Cr6   O11   S    
C25   O18   A    
C15   H5    S    
C10   C11   A    
Cr6   O2    S    
C22   O9    A    
Cr1   O4    S    
C20   C36   S    
Cr1   O1    S    
C18   O25   A    
Cr5   O11   S    
Cr3   O22   S    
C19   C30   S    
Cr5   O8    S    
C27   O17   A    
Cr1   O18   S    
