data_mof_unit_20236.cif
_audit_creation_date              2013-03-05T15:52:31-0500
_audit_creation_method            fapswitch 2.2
_symmetry_space_group_name_H-M    P1
_symmetry_Int_Tables_number       1
_space_group_crystal_system       triclinic
_cell_length_a                    10.986365
_cell_length_b                    11.01463
_cell_length_c                    18.626749
_cell_angle_alpha                 90.577591
_cell_angle_beta                  90.855428
_cell_angle_gamma                 59.902927
_cell_volume                      1949.91475931

loop_
_atom_site_label
_atom_site_type_symbol
_atom_site_description
_atom_site_fract_x
_atom_site_fract_y
_atom_site_fract_z
_atom_type_partial_charge
O1    O     O_R   0.748670 0.497520 0.427970 -0.531510
O2    O     O_R   0.476470 0.723930 0.429450 -0.520511
C1    C     C_R   0.356096 0.777563 0.398972 0.533563
O3    O     O_R   0.264730 0.744140 0.416740 -0.507466
O4    O     O_R   0.309440 0.472410 0.418220 -0.486696
C2    C     C_R   0.377212 0.346648 0.393329 0.524483
O5    O     O_R   0.501630 0.260530 0.414310 -0.542278
O6    O     O_R   0.727920 0.305730 0.428950 -0.500097
C3    C     C_R   0.711816 0.415629 0.394855 0.554996
O7    O     O_R   0.738670 0.496020 0.588600 -0.525174
O8    O     O_R   0.467190 0.722540 0.578350 -0.509663
C4    C     C_R   0.348775 0.759962 0.607271 0.554086
O9    O     O_R   0.254720 0.742640 0.577370 -0.517127
O10   O     O_R   0.300170 0.471020 0.567120 -0.511188
C5    C     C_R   0.369062 0.349489 0.595065 0.546511
O11   O     O_R   0.491630 0.259030 0.574940 -0.525956
O12   O     O_R   0.718640 0.304340 0.577850 -0.501898
C6    C     C_R   0.757787 0.379728 0.612161 0.551685
Cr1   Cr    Cr6+3 0.601740 0.606840 0.505840 0.986048
Cr2   Cr    Cr6+3 0.291500 0.601560 0.495070 1.014029
Cr3   Cr    Cr6+3 0.606780 0.291630 0.499130 0.996802
O13   O     O_3   0.500010 0.500010 0.500020 -0.264204
C7    C     C_R   0.877122 0.948621 0.162151 -0.096240
C8    C     C_R   0.828581 0.042199 0.219688 -0.124352
C9    C     C_R   0.687408 0.113650 0.236574 -0.113412
C10   C     C_R   0.587969 0.096502 0.196134 0.034732
H1    H     H_    0.506667 0.100200 0.326692 0.142416
C11   C     C_R   0.320443 0.278116 0.179378 -0.012573
C12   C     C_R   0.421779 0.181623 0.295015 -0.147052
C13   C     C_R   0.437161 0.176487 0.220728 -0.027925
C14   C     C_R   0.030235 0.664172 0.303486 -0.078667
C15   C     C_R   0.931783 0.775494 0.345521 -0.114326
C16   C     C_R   0.639863 0.996922 0.139972 -0.068238
C17   C     C_R   0.782400 0.925830 0.122244 -0.122491
C18   C     C_R   0.204666 0.389620 0.215240 -0.165990
C19   C     C_R   0.207619 0.406897 0.289770 -0.036963
C20   C     C_R   0.888528 0.750095 0.410895 -0.118705
C21   C     C_R   0.943800 0.612930 0.434947 -0.070375
C22   C     C_R   0.041974 0.501189 0.393509 -0.046677
C23   C     C_R   0.087909 0.525468 0.327663 0.051345
C24   C     C_R   0.326620 0.307729 0.328196 -0.017872
H2    H     H_    0.820011 0.848849 0.079381 0.124409
H3    H     H_    0.890928 0.882191 0.328932 0.113914
H4    H     H_    0.988048 0.889645 0.150231 0.141994
H5    H     H_    0.898404 0.056518 0.255051 0.103915
H6    H     H_    0.657055 0.180110 0.283594 0.137196
H7    H     H_    0.065994 0.686554 0.254142 0.106217
H8    H     H_    0.574554 0.964030 0.112715 0.168243
H9    H     H_    0.111698 0.463723 0.185441 0.150059
H10   H     H_    0.813172 0.836935 0.443214 0.098647
H11   H     H_    0.912294 0.593189 0.486303 0.125841
H12   H     H_    0.087485 0.395865 0.414581 0.090280
C25   C     C_R   0.853680 0.339541 0.180365 0.039186
C26   C     C_R   0.713842 0.389500 0.195956 0.008465
C27   C     C_R   0.668103 0.413265 0.264330 -0.039598
C28   C     C_R   0.904029 0.323926 0.308399 -0.131866
C29   C     C_R   0.950041 0.304727 0.237583 -0.162792
C30   C     C_3   0.571896 0.437949 0.163885 -0.264365
C31   C     C_3   0.517907 0.471118 0.241624 -0.283722
C32   C     C_R   0.760071 0.383702 0.322482 0.017565
H13   H     H_    0.980074 0.292451 0.351826 0.129550
H14   H     H_    0.060905 0.259730 0.227412 0.118310
H15   H     H_    0.563523 0.350336 0.139010 0.175117
H16   H     H_    0.533720 0.531171 0.128871 0.141815
H17   H     H_    0.451158 0.585059 0.252749 0.143184
H18   H     H_    0.473164 0.407240 0.260203 0.155389
C33   C     C_R   0.300191 0.938301 0.190174 0.003944
C34   C     C_R   0.428636 0.894770 0.226017 0.011872
C35   C     C_R   0.440510 0.867341 0.299536 0.006330
C36   C     C_R   0.195802 0.937523 0.304653 -0.158427
C37   C     C_R   0.182542 0.973954 0.232281 -0.174264
C38   C     C_3   0.573047 0.771634 0.213890 -0.278408
C39   C     C_3   0.588676 0.752993 0.294126 -0.252275
C40   C     C_R   0.329410 0.868493 0.336725 0.013897
H19   H     H_    0.104570 0.950784 0.333001 0.132207
H20   H     H_    0.081647 0.022057 0.206413 0.135588
H21   H     H_    0.654952 0.790747 0.193685 0.140829
H22   H     H_    0.569499 0.685800 0.185230 0.148892
H23   H     H_    0.603918 0.652784 0.312868 0.164176
H24   H     H_    0.661963 0.784112 0.318397 0.152596
C41   C     C_R   0.276379 0.281061 0.803699 0.007359
C42   C     C_R   0.360584 0.166963 0.759445 -0.002681
C43   C     C_R   0.377968 0.185804 0.687914 0.008149
C44   C     C_R   0.216876 0.434672 0.700963 -0.163441
C45   C     C_R   0.200942 0.415215 0.773308 -0.165081
C46   C     C_3   0.513128 0.060219 0.768821 -0.222144
C47   C     C_3   0.530236 0.074890 0.689922 -0.249307
C48   C     C_R   0.313976 0.321081 0.659017 0.017438
H25   H     H_    0.165382 0.540906 0.680557 0.146305
H26   H     H_    0.139603 0.506661 0.806291 0.187474
H27   H     H_    0.532650 0.955430 0.783202 0.147618
H28   H     H_    0.570752 0.098679 0.803045 0.188549
H29   H     H_    0.603494 0.114176 0.680089 0.167403
H30   H     H_    0.551067 0.980675 0.658012 0.131371
C49   C     C_R   0.797248 0.345202 0.839229 0.016293
C50   C     C_R   0.767367 0.468858 0.802694 0.015943
C51   C     C_R   0.762764 0.472263 0.729340 0.027192
C52   C     C_R   0.779219 0.246854 0.724976 -0.165738
C53   C     C_R   0.785343 0.241484 0.800471 -0.166470
C54   C     C_3   0.837673 0.556792 0.803519 -0.225934
C55   C     C_3   0.835097 0.555139 0.722738 -0.266340
C56   C     C_R   0.780472 0.358262 0.688949 0.015717
H31   H     H_    0.780683 0.161571 0.695120 0.133582
H32   H     H_    0.794784 0.150708 0.827566 0.164105
H33   H     H_    0.946086 0.501990 0.824773 0.183351
H34   H     H_    0.770327 0.662868 0.826734 0.172420
H35   H     H_    0.769864 0.660455 0.698767 0.149010
H36   H     H_    0.940714 0.492399 0.698583 0.141595
C57   C     C_R   0.316517 0.808526 0.833572 0.005749
C58   C     C_R   0.215708 0.794430 0.793283 0.055857
C59   C     C_R   0.226351 0.781726 0.719675 -0.022131
C60   C     C_R   0.450084 0.770242 0.725469 -0.155313
C61   C     C_R   0.442314 0.777264 0.800314 -0.159788
C62   C     C_3   0.059174 0.887934 0.788326 0.107697
C63   C     C_3   0.071908 0.871102 0.707341 -0.253191
C64   C     C_R   0.336134 0.784080 0.684152 0.010816
H37   H     H_    0.541495 0.760717 0.699816 0.131824
H38   H     H_    0.527111 0.775034 0.831438 0.128772
H39   H     H_    0.023557 0.995868 0.807508 0.113523
H40   H     H_    0.025457 0.810277 0.683519 0.162521
H41   H     H_    0.043733 0.970293 0.678963 0.105698
O14   O     O_R   0.186620 0.923750 0.087000 -0.512003
O15   O     O_R   0.957350 0.194160 0.084660 -0.516974
C65   C     C_R   0.905169 0.318140 0.109228 0.531904
O16   O     O_R   0.935120 0.407280 0.085350 -0.528548
O17   O     O_R   0.203800 0.365060 0.067090 -0.484666
C66   C     C_R   0.304570 0.258908 0.102192 0.545484
O18   O     O_R   0.417470 0.174910 0.067830 -0.522368
O19   O     O_R   0.375160 0.946380 0.070880 -0.528941
C67   C     C_R   0.274749 0.959609 0.112481 0.537830
O20   O     O_R   0.160500 0.919670 0.926690 -0.472802
O21   O     O_R   0.933140 0.190380 0.936050 -0.498694
C68   C     C_R   0.876754 0.312664 0.906563 0.533643
O22   O     O_R   0.909010 0.403210 0.925030 -0.529768
O23   O     O_R   0.179590 0.361290 0.918480 -0.481340
C69   C     C_R   0.270563 0.256648 0.879680 0.559760
O24   O     O_R   0.391360 0.170840 0.907510 -0.502566
O25   O     O_R   0.350950 0.942600 0.922260 -0.519647
C70   C     C_R   0.277813 0.888476 0.899939 0.547944
Cr4   Cr    Cr6+3 0.062440 0.063060 0.008240 1.037887
Cr5   Cr    Cr6+3 0.062950 0.375000 0.998920 1.033078
Cr6   Cr    Cr6+3 0.374550 0.061770 0.992470 1.002044
O26   O     O_3   0.166650 0.166610 0.999880 -0.310304
N1    N     N_R   0.982450 0.824755 0.819314 0.069863
O27   O     O_R   0.028833 0.750435 0.877649 -0.336744
O28   O     O_R   0.854985 0.865118 0.797130 -0.418824

loop_
_geom_bond_atom_site_label_1
_geom_bond_atom_site_label_2
_geom_bond_distance
_ccdc_geom_bond_type
C55   H35   1.107125 S    
C43   C47   1.497243 S    
O24   Cr6   2.061884 S    
O17   C66   1.309885 A    
C63   H41   1.111965 S    
C27   C31   1.495939 S    
H1    C12   1.085181 S    
C49   C50   1.410519 A    
C17   H2    1.082562 S    
Cr4   O26   1.988585 S    
C41   C42   1.396628 A    
O23   C69   1.303506 A    
O4    Cr2   1.948777 S    
C25   C26   1.381889 A    
C14   C23   1.404586 A    
O8    Cr1   1.941377 S    
C54   H33   1.099727 S    
C38   H21   1.094246 S    
C8    H5    1.073022 S    
C46   H27   1.098273 S    
Cr5   O26   1.986045 S    
C31   H18   1.101504 S    
O4    C2    1.284957 A    
C49   C53   1.404924 A    
C5    O11   1.268251 A    
C52   C53   1.407250 A    
C47   H30   1.111751 S    
C47   H29   1.106278 S    
C49   C68   1.458378 S    
C28   C29   1.395455 A    
C6    C56   1.449439 S    
C1    C40   1.467026 S    
C58   C59   1.377546 A    
C38   H22   1.098410 S    
O20   Cr4   2.063123 S    
C34   C35   1.395368 A    
C39   H24   1.110376 S    
C18   C19   1.401434 A    
C11   C18   1.419355 A    
O16   Cr5   2.060509 S    
O6    C3    1.302794 A    
C2    C24   1.474094 S    
C52   H31   1.080037 S    
C18   H9    1.083340 S    
C7    C8    1.392453 A    
C35   C39   1.480658 S    
C36   C37   1.394965 A    
C12   C13   1.393647 A    
C58   C62   1.499177 S    
C51   C56   1.385987 A    
C11   C66   1.471611 S    
C57   C61   1.398711 A    
C55   H36   1.109733 S    
C22   H12   1.082333 S    
C14   H7    1.082765 S    
Cr3   O13   1.985924 S    
C19   C24   1.403659 A    
C60   C61   1.396982 A    
O12   C6    1.273663 A    
C30   H16   1.108613 S    
O1    Cr1   2.060279 S    
C33   C34   1.402392 A    
O10   Cr2   1.943023 S    
O15   C65   1.270037 A    
Cr1   O13   1.989540 S    
O1    C3    1.305999 A    
C8    C9    1.381741 A    
N1    O28   1.300567 A    
O25   Cr6   1.948609 S    
C22   C23   1.411016 A    
C25   C29   1.403955 A    
C46   C47   1.504912 S    
O21   C68   1.291328 A    
O19   Cr6   1.943490 S    
C29   H14   1.079170 S    
C30   C31   1.542618 S    
C52   C56   1.410731 A    
O15   Cr4   1.944209 S    
O12   Cr3   1.947950 S    
C7    H4    1.080572 S    
C28   C32   1.402937 A    
C62   N1    1.462485 S    
C36   C40   1.397586 A    
C20   C21   1.391915 A    
C10   C16   1.410656 A    
C14   C15   1.400809 A    
C19   C23   1.489965 S    
O7    Cr1   2.063122 S    
C34   C38   1.501361 S    
C7    C17   1.390563 A    
C50   C51   1.366720 A    
C16   C17   1.398156 A    
C39   H23   1.090361 S    
C35   C40   1.406918 A    
C15   C20   1.394411 A    
C44   C45   1.393901 A    
C59   C64   1.395969 A    
Cr2   O13   1.983228 S    
C63   H40   1.111905 S    
C68   O22   1.257965 A    
C33   C67   1.468489 S    
C44   H25   1.082754 S    
C1    O3    1.278922 A    
C37   H20   1.068528 S    
C60   C64   1.401781 A    
C41   C69   1.451570 S    
O19   C67   1.304097 A    
C26   C30   1.489141 S    
C30   H15   1.110490 S    
C26   C27   1.350385 A    
O9    Cr2   2.066098 S    
C12   C24   1.396387 A    
O2    Cr1   1.944330 S    
O10   C5    1.273521 A    
C44   C48   1.407265 A    
C38   C39   1.506129 S    
C25   C65   1.419028 S    
O6    Cr3   1.941021 S    
C59   C63   1.489495 S    
C45   H26   1.079467 S    
O11   Cr3   2.059740 S    
C62   C63   1.517935 S    
C2    O5    1.269664 A    
C21   H11   1.082464 S    
O21   Cr4   1.943126 S    
O17   Cr5   1.947586 S    
C54   H34   1.109911 S    
C57   C70   1.450062 S    
C60   H37   1.074968 S    
N1    O27   1.301354 A    
C3    C32   1.430666 S    
C11   C13   1.427887 A    
O2    C1    1.273186 A    
C9    C10   1.405735 A    
O14   Cr4   2.062542 S    
C42   C46   1.496900 S    
C57   C58   1.399716 A    
C31   H17   1.109977 S    
O22   Cr5   2.064752 S    
O5    Cr3   2.068696 S    
C20   H10   1.082483 S    
C21   C22   1.395788 A    
C62   H39   1.105986 S    
O7    C6    1.271302 A    
C50   C54   1.511495 S    
C54   C55   1.504639 S    
C15   H3    1.073427 S    
C53   H32   1.081583 S    
C33   C37   1.398217 A    
C51   C55   1.487493 S    
O20   C70   1.264535 A    
O25   C70   1.280374 A    
C61   H38   1.079728 S    
O3    Cr2   2.061986 S    
O23   Cr5   1.941291 S    
C65   O16   1.267801 A    
C4    O9    1.262042 A    
C42   C43   1.381205 A    
C36   H19   1.082678 S    
Cr6   O26   1.982522 S    
C16   H8    1.072370 S    
C28   H13   1.080491 S    
C69   O24   1.286306 A    
C46   H28   1.112713 S    
C27   C32   1.394509 A    
C43   C48   1.399441 A    
O18   Cr6   2.068831 S    
C9    H6    1.079409 S    
O14   C67   1.297989 A    
C41   C45   1.401925 A    
C66   O18   1.290342 A    
O8    C4    1.277188 A    
C5    C48   1.449875 S    
C4    C64   1.449791 S    
C10   C13   1.510528 S    
