data_mof_unit_39964.cif
_audit_creation_date              2012-12-10T19:00:44-0500
_audit_creation_method            fapswitch 2.2
_symmetry_space_group_name_H-M    P1
_symmetry_Int_Tables_number       1
_space_group_crystal_system       triclinic
_cell_length_a                    15.126358
_cell_length_b                    10.893058
_cell_length_c                    9.564235
_cell_angle_alpha                 90.709997
_cell_angle_beta                  88.916814
_cell_angle_gamma                 92.053226
_cell_volume                      1574.5195209

loop_
_atom_site_label
_atom_site_type_symbol
_atom_type_description
_atom_site_fract_x
_atom_site_fract_y
_atom_site_fract_z
_atom_type_partial_charge
C1    C     C_R   0.502884 0.262250 0.498096 0.798677
C2    C     C_R   0.916283 0.621355 0.500174 -0.005081
C3    C     C_R   0.945596 0.284023 0.524819 -0.221587
C4    C     C_R   0.037802 0.276346 0.517414 0.111748
C5    C     C_R   0.090971 0.385829 0.511574 0.125633
C6    C     C_R   0.049849 0.500857 0.509119 -0.006481
C7    C     C_R   0.102421 0.610916 0.507703 0.018482
C8    C     C_R   0.062661 0.724473 0.510533 0.496102
C9    C     C_R   0.971607 0.729333 0.501571 -0.292665
C10   C     C_R   0.184101 0.384517 0.509316 -0.273825
C11   C     C_R   0.234248 0.494288 0.504337 -0.067434
C12   C     C_R   0.329494 0.493901 0.501150 0.797124
C13   C     C_R   0.194220 0.606314 0.504285 -0.227512
C14   C     C_R   0.498921 0.063597 0.617743 -0.049505
C15   C     C_R   0.508763 0.128433 0.493193 -0.188870
C16   C     C_R   0.524632 0.058226 0.368214 0.143965
C17   C     C_R   0.508970 0.930555 0.372605 -0.208928
C18   C     C_R   0.495322 0.869516 0.500000 -0.108105
C19   C     C_R   0.499833 0.937952 0.623371 0.005305
C20   C     C_3   0.444487 0.932470 0.754737 -0.498905
C21   C     C_3   0.439255 0.072817 0.745254 0.653931
C22   C     C_R   0.559516 0.572730 0.072900 0.227988
C23   C     C_R   0.492758 0.736519 0.500818 0.799637
C24   C     C_R   0.436110 0.437828 0.076102 -0.172871
C25   C     C_R   0.433822 0.441050 0.926774 0.613520
C26   C     C_R   0.559888 0.572063 0.925712 0.149422
C27   C     C_3   0.658210 0.565989 0.917688 -0.467315
C28   C     C_3   0.657835 0.567291 0.076216 -0.483352
C29   C     C_R   0.671667 0.508784 0.499282 0.893404
C30   C     C_R   0.822503 0.627363 0.493486 0.065513
C31   C     C_R   0.769826 0.514854 0.498807 -0.172697
C32   C     C_R   0.811474 0.401700 0.511483 0.394641
C33   C     C_R   0.904283 0.397155 0.515064 0.006721
C34   C     C_R   0.956535 0.506371 0.507728 -0.046424
Cu1   Cu    Cu3+1 0.500000 0.499980 0.640670 0.982874
Cu2   Cu    Cu3+1 0.500000 0.500020 0.359330 0.923719
H1    H     H_    0.511958 0.878050 0.275884 0.183600
H2    H     H_    0.381056 0.879594 0.739278 0.167956
H3    H     H_    0.482834 0.901488 0.844982 0.190624
H4    H     H_    0.387268 0.383072 0.133914 0.157337
H5    H     H_    0.680920 0.477867 0.872174 0.220958
H6    H     H_    0.689823 0.650131 0.871326 0.195805
H7    H     H_    0.680563 0.480153 0.120397 0.209010
H8    H     H_    0.688983 0.652389 0.121561 0.193348
H9    H     H_    0.905989 0.199663 0.534004 0.178378
H10   H     H_    0.219032 0.299724 0.511482 0.136182
H11   H     H_    0.235468 0.689858 0.501270 0.170338
H12   H     H_    0.946600 0.820741 0.497895 0.153986
N1    N     N_R   0.500570 0.500930 0.147930 -0.215904
N2    N     N_R   0.500570 0.500890 0.852020 -0.231684
O1    O     O_R   0.500000 0.319640 0.618810 -0.541242
O2    O     O_R   0.500010 0.319680 0.381230 -0.598853
O3    O     O_R   0.370250 0.499950 0.618800 -0.545180
O4    O     O_R   0.370260 0.499990 0.381220 -0.585585
O5    O     O_R   0.499990 0.680320 0.618770 -0.585778
O6    O     O_R   0.500000 0.680360 0.381190 -0.592259
O7    O     O_R   0.629740 0.500010 0.618780 -0.574611
O8    O     O_R   0.629750 0.500050 0.381200 -0.599768
C35   C     C_3   0.787302 0.757097 0.483473 -0.449580
C36   C     C_3   0.689998 0.774758 0.478293 -0.844655
H13   H     H_    0.663042 0.731055 0.382321 0.270132
H14   H     H_    0.659008 0.740177 0.576487 0.263158
H15   H     H_    0.678792 0.874771 0.473445 0.241378
H16   H     H_    0.809773 0.810858 0.576739 0.212332
H17   H     H_    0.816293 0.800691 0.387637 0.214076
C37   C     C_3   0.345064 0.112420 0.710700 -0.357576
C38   C     C_3   0.281452 0.098726 0.836348 -0.792328
H18   H     H_    0.271972 0.000649 0.864988 0.223603
H19   H     H_    0.307001 0.150858 0.928357 0.298330
H20   H     H_    0.216241 0.134836 0.809831 0.210842
H21   H     H_    0.347321 0.209337 0.676789 0.234668
H22   H     H_    0.318192 0.056770 0.621802 0.149670
O9    O     O_3   0.473535 0.138411 0.864065 -0.551535
C39   C     C_3   0.566894 0.152614 0.865071 -0.289172
H23   H     H_    0.593776 0.204716 0.774089 0.201473
H24   H     H_    0.598215 0.062210 0.870437 0.157334
H25   H     H_    0.585585 0.208698 0.957900 0.176385
O10   O     O_3   0.368412 0.376409 0.855387 -0.541408
C40   C     C_3   0.284461 0.419244 0.895381 -0.355765
H26   H     H_    0.235587 0.384964 0.817816 0.199828
H27   H     H_    0.283073 0.521496 0.896012 0.158218
H28   H     H_    0.262724 0.382268 0.998610 0.148430
O11   O     O_3   0.760163 0.295446 0.531777 -0.595461
C41   C     C_3   0.745967 0.237819 0.401154 -0.373947
H29   H     H_    0.710933 0.297953 0.329301 0.176373
H30   H     H_    0.704337 0.153912 0.419677 0.211587
H31   H     H_    0.808663 0.209136 0.350134 0.162598
C42   C     C_3   0.076427 0.149965 0.511753 -0.396108
C43   C     C_3   0.106566 0.117045 0.362925 -0.783736
H32   H     H_    0.155384 0.186377 0.321267 0.236267
H33   H     H_    0.138081 0.026694 0.361912 0.281798
H34   H     H_    0.048726 0.111389 0.292977 0.241595
H35   H     H_    0.131950 0.145102 0.585206 0.190648
H36   H     H_    0.026466 0.078783 0.546234 0.210866
O12   O     O_3   0.112941 0.832670 0.516848 -0.595322
C44   C     C_3   0.123642 0.865029 0.658876 -0.402653
H37   H     H_    0.169133 0.946519 0.664720 0.202003
H38   H     H_    0.154148 0.790807 0.718579 0.167904
H39   H     H_    0.059460 0.889763 0.708471 0.169410
C45   C     C_3   0.559091 0.109999 0.229737 -0.371887
C46   C     C_3   0.636060 0.036432 0.168267 -0.923704
H40   H     H_    0.678650 0.095094 0.098666 0.236684
H41   H     H_    0.678569 0.002207 0.251585 0.257712
H42   H     H_    0.610376 0.956571 0.106081 0.253114
H43   H     H_    0.503983 0.108406 0.154587 0.237129
H44   H     H_    0.585002 0.205317 0.239108 0.225783

loop_
_geom_bond_atom_site_label_1
_geom_bond_atom_site_label_2
_ccdc_geom_bond_type
C24   C25   A    
C46   H40   S    
C21   C37   S    
Cu1   O3    S    
O9    C39   S    
O12   C44   S    
C41   H31   S    
C7    C8    A    
C26   C27   S    
C39   H24   S    
C36   H15   S    
C5    C6    A    
C14   C21   S    
C41   H30   S    
Cu2   O8    S    
C26   N2    A    
C30   C31   A    
C3    C33   A    
C15   C16   A    
C44   H39   S    
C21   O9    S    
C36   H14   S    
C18   C19   A    
C25   N2    A    
C37   H22   S    
O11   C41   S    
C8    C9    A    
C39   H25   S    
C44   H38   S    
C10   H10   S    
C1    C15   S    
C43   H33   S    
C12   O3    A    
Cu2   O2    S    
C2    C34   A    
C37   C38   S    
C35   C36   S    
C46   H41   S    
C22   C28   S    
C44   H37   S    
C8    O12   S    
C33   C34   A    
C42   H36   S    
C39   H23   S    
Cu1   O5    S    
C38   H18   S    
C23   O6    A    
C41   H29   S    
C40   H27   S    
C20   H3    S    
O10   C40   S    
C16   C45   S    
C25   O10   S    
C3    H9    S    
C6    C34   A    
C36   H13   S    
C38   H19   S    
Cu1   Cu2   S    
Cu2   O6    S    
C20   H2    S    
C27   H5    S    
C37   H21   S    
C30   C35   S    
C20   C21   S    
Cu1   N2    S    
C17   C18   A    
C45   H43   S    
C17   H1    S    
C29   O8    A    
C43   H34   S    
C1    O1    A    
C22   N1    A    
C29   O7    A    
C46   H42   S    
Cu1   O1    S    
C3    C4    A    
C13   H11   S    
C24   N1    A    
C32   O11   S    
C42   H35   S    
C14   C19   A    
C31   C32   A    
C4    C5    A    
C40   H28   S    
C11   C12   S    
C23   O5    A    
C6    C7    A    
C4    C42   S    
C28   H7    S    
C45   H44   S    
Cu1   O7    S    
C2    C30   A    
C38   H20   S    
C32   C33   A    
C19   C20   S    
C5    C10   A    
C29   C31   S    
C35   H17   S    
C11   C13   A    
C27   H6    S    
C16   C17   A    
C18   C23   S    
C45   C46   S    
C24   H4    S    
C28   H8    S    
C1    O2    A    
Cu2   O4    S    
C10   C11   A    
C40   H26   S    
C35   H16   S    
C7    C13   A    
C42   C43   S    
C9    H12   S    
C22   C26   A    
C27   C28   S    
C14   C15   A    
C43   H32   S    
C2    C9    A    
C12   O4    A    
Cu2   N1    S    
