data_mof_unit_16867.cif
_audit_creation_date              2012-12-10T18:04:50-0500
_audit_creation_method            fapswitch 2.2
_symmetry_space_group_name_H-M    P1
_symmetry_Int_Tables_number       1
_space_group_crystal_system       triclinic
_cell_length_a                    10.791382
_cell_length_b                    9.520111
_cell_length_c                    17.716056
_cell_angle_alpha                 89.971495
_cell_angle_beta                  90.168325
_cell_angle_gamma                 89.980127
_cell_volume                      1820.05356004

loop_
_atom_site_label
_atom_site_type_symbol
_atom_type_description
_atom_site_fract_x
_atom_site_fract_y
_atom_site_fract_z
_atom_type_partial_charge
C1    C     C_R   0.262564 0.500014 0.499961 0.814929
C2    C     C_R   0.737436 0.499986 0.500040 0.814925
C3    C     C_1   0.500099 0.499998 0.966156 -0.050609
C4    C     C_1   0.499901 0.500002 0.033844 -0.050610
C5    C     C_R   0.064066 0.437469 0.439145 0.380725
C6    C     C_R   0.935934 0.562531 0.560857 0.380725
C7    C     C_R   0.935349 0.437513 0.439158 0.387735
C8    C     C_R   0.064651 0.562485 0.560845 0.387736
C9    C     C_R   0.499861 0.500022 0.355464 0.762841
C10   C     C_R   0.500139 0.499978 0.644536 0.762840
C11   C     C_R   0.871126 0.499989 0.500025 -0.410854
C12   C     C_R   0.128874 0.500011 0.499977 -0.410854
C13   C     C_R   0.500358 0.627317 0.846256 -0.140990
C14   C     C_R   0.499642 0.372683 0.153744 -0.140992
C15   C     C_R   0.499615 0.627347 0.153666 -0.146210
C16   C     C_R   0.500384 0.372653 0.846334 -0.146210
C17   C     C_R   0.500383 0.627484 0.767571 -0.168241
C18   C     C_R   0.499617 0.372516 0.232429 -0.168241
C19   C     C_R   0.499590 0.627537 0.232352 -0.177847
C20   C     C_R   0.500409 0.372462 0.767648 -0.177843
C21   C     C_R   0.500321 0.499967 0.727553 -0.033584
C22   C     C_R   0.499679 0.500033 0.272447 -0.033588
C23   C     C_R   0.424087 0.074496 0.452366 -0.005771
C24   C     C_R   0.575913 0.925503 0.547634 -0.005771
C25   C     C_R   0.575907 0.074329 0.547634 -0.004463
C26   C     C_R   0.424093 0.925671 0.452366 -0.004464
C27   C     C_R   0.500307 0.499990 0.885527 0.145301
C28   C     C_R   0.499693 0.500010 0.114473 0.145301
Cu1   Cu    Cu3+1 0.500000 0.640660 0.500000 0.960743
Cu2   Cu    Cu3+1 0.500000 0.359340 0.500000 0.960750
H1    H     H_    0.500335 0.726301 0.876434 0.133718
H2    H     H_    0.499664 0.273699 0.123566 0.133718
H3    H     H_    0.499617 0.726322 0.123427 0.134153
H4    H     H_    0.500383 0.273678 0.876573 0.134153
H5    H     H_    0.500410 0.727281 0.738197 0.155311
H6    H     H_    0.499590 0.272719 0.261803 0.155312
H7    H     H_    0.499542 0.727341 0.261666 0.153627
H8    H     H_    0.500458 0.272659 0.738334 0.153627
H9    H     H_    0.363256 0.130655 0.414214 0.137987
H10   H     H_    0.636744 0.869345 0.585786 0.137979
H11   H     H_    0.636717 0.130348 0.585797 0.127565
H12   H     H_    0.363283 0.869652 0.414203 0.127564
N1    N     N_R   0.500000 0.852070 0.500000 -0.162960
N2    N     N_R   0.500000 0.147930 0.500000 -0.162962
O1    O     O_R   0.319640 0.618740 0.499990 -0.566175
O2    O     O_R   0.680360 0.381260 0.500010 -0.566169
O3    O     O_R   0.680360 0.618740 0.500010 -0.565947
O4    O     O_R   0.319640 0.381260 0.499990 -0.565932
O5    O     O_R   0.500000 0.618830 0.391250 -0.584027
O6    O     O_R   0.500000 0.381170 0.608750 -0.584028
O7    O     O_R   0.500000 0.618830 0.608750 -0.589193
O8    O     O_R   0.500000 0.381170 0.391250 -0.589188
O9    O     O_3   0.122203 0.378521 0.377156 -0.663531
H13   H     H_    0.209461 0.409563 0.374470 0.311667
O10   O     O_3   0.877799 0.621479 0.622848 -0.663528
H14   H     H_    0.790531 0.590468 0.625523 0.311670
O11   O     O_3   0.876592 0.378736 0.377148 -0.654288
H15   H     H_    0.789432 0.410275 0.374372 0.318377
O12   O     O_3   0.123409 0.621262 0.622854 -0.654280
H16   H     H_    0.210570 0.589723 0.625629 0.318372

loop_
_geom_bond_atom_site_label_1
_geom_bond_atom_site_label_2
_ccdc_geom_bond_type
Cu2   O4    S    
C15   C19   A    
O10   H14   S    
C1    O4    A    
C14   C28   A    
Cu1   Cu2   S    
C2    O3    A    
C20   H8    S    
C14   C18   A    
C13   C17   A    
C6    O10   S    
C8    C12   A    
Cu2   N2    S    
C16   C27   A    
C3    C27   S    
C15   C28   A    
C24   C25   A    
O12   H16   S    
C10   C21   S    
Cu1   O5    S    
O9    H13   S    
Cu1   N1    S    
C7    C11   A    
C1    C12   S    
C1    O1    A    
O11   H15   S    
C9    O8    A    
Cu1   O3    S    
C23   H9    S    
C10   O7    A    
C6    C8    A    
C25   N2    A    
C5    O9    S    
C16   C20   A    
C4    C28   S    
C15   H3    S    
C26   N1    A    
C14   H2    S    
C8    O12   S    
Cu2   O6    S    
C7    O11   S    
C9    C22   S    
C24   H10   S    
C2    C11   S    
C3    C4    T    
C10   O6    A    
C19   C22   A    
C9    O5    A    
C20   C21   A    
C26   H12   S    
C5    C12   A    
Cu1   O7    S    
C23   C26   A    
C25   H11   S    
C6    C11   A    
C5    C7    A    
C24   N1    A    
C13   H1    S    
C17   H5    S    
C13   C27   A    
Cu2   O8    S    
C19   H7    S    
C16   H4    S    
C18   C22   A    
C18   H6    S    
Cu2   O2    S    
C2    O2    A    
C23   N2    A    
Cu1   O1    S    
C17   C21   A    
