data_mof_unit_34446.cif
_audit_creation_date              2013-03-05T15:40:02-0500
_audit_creation_method            fapswitch 2.2
_symmetry_space_group_name_H-M    P1
_symmetry_Int_Tables_number       1
_space_group_crystal_system       triclinic
_cell_length_a                    24.521652
_cell_length_b                    17.198085
_cell_length_c                    15.593008
_cell_angle_alpha                 89.824854
_cell_angle_beta                  129.251628
_cell_angle_gamma                 89.558162
_cell_volume                      5091.84448726

loop_
_atom_site_label
_atom_site_type_symbol
_atom_site_description
_atom_site_fract_x
_atom_site_fract_y
_atom_site_fract_z
_atom_type_partial_charge
C1    C     C_R   0.343822 0.369782 0.226101 0.010092
C2    C     C_R   0.655275 0.365521 0.766587 -0.028313
C3    C     C_R   0.849014 0.862262 0.241703 0.002971
C4    C     C_R   0.152731 0.862735 0.762234 -0.033045
H1    H     H_    0.291161 0.364013 0.198259 0.134538
H2    H     H_    0.704169 0.353951 0.782295 0.148324
H3    H     H_    0.800905 0.850362 0.227950 0.126440
H4    H     H_    0.201696 0.850401 0.778441 0.145518
N1    N     N_R   0.389060 0.424180 0.294540 -0.065933
N2    N     N_R   0.610940 0.424180 0.705460 -0.059032
N3    N     N_R   0.889060 0.924180 0.294540 -0.059705
N4    N     N_R   0.110940 0.924180 0.705460 -0.057961
C5    C     C_R   0.613033 0.392755 0.408814 0.295563
C6    C     C_R   0.404425 0.368488 0.596702 0.290333
C7    C     C_R   0.113178 0.893226 0.408789 0.282200
C8    C     C_R   0.884916 0.902121 0.591742 0.297994
N5    N     N_R   0.579670 0.423790 0.443360 -0.100773
N6    N     N_R   0.420330 0.423790 0.556640 -0.090702
N7    N     N_R   0.079670 0.923790 0.443360 -0.102705
N8    N     N_R   0.920330 0.923790 0.556640 -0.102311
C9    C     C_R   0.686180 0.390138 0.592714 -0.134460
C10   C     C_R   0.332686 0.361766 0.412646 -0.115319
C11   C     C_R   0.186389 0.890712 0.592641 -0.139789
C12   C     C_R   0.811680 0.899710 0.408562 -0.149931
H5    H     H_    0.734186 0.389839 0.677678 0.170536
H6    H     H_    0.287815 0.347419 0.329384 0.139777
H7    H     H_    0.234366 0.890477 0.677661 0.173154
H8    H     H_    0.764828 0.902522 0.323060 0.185233
N9    N     N_R   0.625470 0.423490 0.556600 -0.083025
N10   N     N_R   0.374530 0.423490 0.443400 -0.078585
N11   N     N_R   0.125470 0.923490 0.556600 -0.084653
N12   N     N_R   0.874530 0.923490 0.443400 -0.088832
C13   C     C_R   0.567903 0.364456 0.774100 -0.081212
C14   C     C_R   0.437333 0.362852 0.233271 -0.061384
C15   C     C_R   0.062072 0.859794 0.762876 -0.051791
C16   C     C_R   0.939680 0.858544 0.241070 -0.059741
H9    H     H_    0.538617 0.351150 0.801646 0.183008
H10   H     H_    0.473910 0.345208 0.220348 0.153581
H11   H     H_    0.026096 0.842831 0.777146 0.157307
H12   H     H_    0.976083 0.840398 0.227976 0.148962
N13   N     N_R   0.555250 0.423100 0.705420 -0.060050
N14   N     N_R   0.444750 0.423100 0.294580 -0.052509
N15   N     N_R   0.055250 0.923100 0.705420 -0.048370
N16   N     N_R   0.944750 0.923100 0.294580 -0.046813
C17   C     C_R   0.374984 0.326752 0.192285 0.136618
C18   C     C_R   0.628273 0.325052 0.808110 0.114192
C19   C     C_R   0.880346 0.818421 0.208781 0.098268
C20   C     C_R   0.122508 0.819750 0.797301 0.097131
C21   C     C_R   0.679832 0.370128 0.501351 0.045413
C22   C     C_R   0.354257 0.323214 0.508658 0.025324
C23   C     C_R   0.180141 0.870985 0.501258 0.045841
C24   C     C_R   0.815532 0.888418 0.500198 0.011857
C25   C     C_R   0.338783 0.644376 0.407400 -0.112666
C26   C     C_R   0.671764 0.633420 0.590992 -0.056778
C27   C     C_R   0.838471 0.144140 0.407327 -0.081390
C28   C     C_R   0.175275 0.128351 0.589458 -0.055506
H13   H     H_    0.298835 0.661791 0.322180 0.118107
H14   H     H_    0.716348 0.645467 0.675933 0.124054
H15   H     H_    0.798382 0.161446 0.322116 0.118396
H16   H     H_    0.223555 0.134861 0.673311 0.137378
N17   N     N_R   0.375210 0.577180 0.443400 -0.054774
N18   N     N_R   0.624790 0.577180 0.556600 -0.059044
N19   N     N_R   0.875210 0.077180 0.443400 -0.055099
N20   N     N_R   0.124790 0.077180 0.556600 -0.061491
C29   C     C_R   0.424542 0.613799 0.201577 -0.006955
C30   C     C_R   0.576027 0.612710 0.798958 -0.034092
C31   C     C_R   0.925429 0.115394 0.203219 0.013163
C32   C     C_R   0.074989 0.115135 0.796559 -0.005201
H17   H     H_    0.454234 0.615357 0.172015 0.142576
H18   H     H_    0.547504 0.612753 0.830575 0.152655
H19   H     H_    0.955506 0.117864 0.174378 0.138374
H20   H     H_    0.046834 0.115755 0.828797 0.162898
N21   N     N_R   0.445430 0.577570 0.294580 -0.060504
N22   N     N_R   0.554570 0.577570 0.705420 -0.065479
N23   N     N_R   0.945430 0.077570 0.294580 -0.060343
N24   N     N_R   0.054570 0.077570 0.705420 -0.062850
C33   C     C_R   0.665506 0.613266 0.795128 -0.056961
C34   C     C_R   0.333477 0.611444 0.201319 -0.072192
C35   C     C_R   0.164187 0.116630 0.791433 -0.056433
C36   C     C_R   0.833932 0.112530 0.202148 -0.072640
H21   H     H_    0.717602 0.616674 0.819887 0.152589
H22   H     H_    0.280371 0.612289 0.173068 0.148412
H23   H     H_    0.215821 0.121950 0.814743 0.149122
H24   H     H_    0.780654 0.113422 0.173231 0.150865
N25   N     N_R   0.611620 0.576500 0.705460 -0.061381
N26   N     N_R   0.388380 0.576500 0.294540 -0.060517
N27   N     N_R   0.111620 0.076500 0.705460 -0.060683
N28   N     N_R   0.888380 0.076500 0.294540 -0.060788
C37   C     C_R   0.413256 0.643891 0.591843 -0.060001
C38   C     C_R   0.595264 0.634312 0.405605 -0.057726
C39   C     C_R   0.912809 0.143622 0.591741 -0.053438
C40   C     C_R   0.098836 0.127069 0.403800 -0.074590
H25   H     H_    0.442414 0.660190 0.677102 0.118171
H26   H     H_    0.569606 0.646497 0.319630 0.132254
H27   H     H_    0.941468 0.159749 0.676900 0.120602
H28   H     H_    0.076540 0.132271 0.318047 0.141429
N29   N     N_R   0.421010 0.576890 0.556640 -0.048919
N30   N     N_R   0.578990 0.576890 0.443360 -0.054483
N31   N     N_R   0.921010 0.076890 0.556640 -0.050062
N32   N     N_R   0.078990 0.076890 0.443360 -0.056980
Ni1   Ni    Ni4+2 0.383200 0.500680 0.370150 0.256900
Ni2   Ni    Ni4+2 0.616800 0.500680 0.629850 0.270077
Ni3   Ni    Ni4+2 0.883200 0.000680 0.370150 0.265724
Ni4   Ni    Ni4+2 0.116800 0.000680 0.629850 0.268642
Ni5   Ni    Ni4+2 0.512440 0.500680 0.370150 0.303329
Ni6   Ni    Ni4+2 0.487560 0.500680 0.629850 0.294554
Ni7   Ni    Ni4+2 0.012440 0.000680 0.370150 0.298673
Ni8   Ni    Ni4+2 0.987560 0.000680 0.629850 0.303522
C41   C     C_R   0.363326 0.688388 0.498951 0.124690
C42   C     C_R   0.652660 0.671634 0.497209 0.140701
C43   C     C_R   0.862866 0.188050 0.498840 0.113773
C44   C     C_R   0.158797 0.160697 0.493862 0.143847
C45   C     C_R   0.354647 0.635815 0.141968 0.053054
C46   C     C_R   0.644939 0.636469 0.855738 0.060015
C47   C     C_R   0.855816 0.138052 0.144207 0.043783
C48   C     C_R   0.142773 0.141054 0.850338 0.037994
C49   C     C_2   0.654112 0.793223 0.418619 -0.195411
C50   C     C_2   0.354355 0.801611 0.583942 -0.175064
C51   C     C_2   0.226834 0.169662 0.432960 -0.140300
C52   C     C_2   0.854065 0.301173 0.583966 -0.176114
C53   C     C_2   0.689055 0.736767 0.496106 -0.209853
C54   C     C_2   0.337106 0.765864 0.493769 -0.204087
C55   C     C_2   0.206515 0.201396 0.487610 -0.231999
C56   C     C_2   0.836681 0.265476 0.493696 -0.204179
H29   H     H_    0.597327 0.790117 0.354540 0.192950
H30   H     H_    0.399553 0.782698 0.666449 0.185889
H31   H     H_    0.204189 0.115655 0.387934 0.198200
H32   H     H_    0.899367 0.282316 0.666421 0.185852
H33   H     H_    0.745765 0.736862 0.560555 0.167157
H34   H     H_    0.294030 0.788565 0.411851 0.175615
H35   H     H_    0.226413 0.256015 0.531497 0.162746
H36   H     H_    0.793558 0.288175 0.411807 0.174835
C57   C     C_2   0.279436 0.208018 0.432136 0.388627
C58   C     C_2   0.803449 0.355191 0.574043 0.381301
C59   C     C_2   0.691824 0.856174 0.411693 0.365203
C60   C     C_2   0.303744 0.855858 0.573792 0.383758
C61   C     C_2   0.325489 0.253624 0.517670 -0.260377
C62   C     C_2   0.734553 0.336398 0.502320 -0.256024
C63   C     C_2   0.757583 0.873428 0.502414 -0.242774
C64   C     C_2   0.234832 0.837142 0.502139 -0.259466
H37   H     H_    0.334000 0.245657 0.594091 0.193732
H38   H     H_    0.717174 0.287205 0.447407 0.163983
H39   H     H_    0.773365 0.858072 0.582651 0.183854
H40   H     H_    0.217429 0.787890 0.447307 0.157786
H41   H     H_    0.695069 0.211394 0.792402 0.169510
H42   H     H_    0.282446 0.234752 0.171192 0.195189
H43   H     H_    0.200056 0.712593 0.794481 0.170969
H44   H     H_    0.786787 0.722999 0.186420 0.147466
C65   C     C_2   0.660141 0.255070 0.877315 -0.144378
C66   C     C_2   0.347244 0.255195 0.128557 -0.182808
C67   C     C_2   0.152388 0.747889 0.863352 -0.164896
C68   C     C_2   0.852872 0.745880 0.146021 -0.148240
C69   C     C_2   0.695650 0.205150 0.862343 -0.206590
C70   C     C_2   0.299214 0.215634 0.125094 -0.107317
C71   C     C_2   0.194430 0.702301 0.857272 -0.206821
C72   C     C_2   0.802998 0.706436 0.138368 -0.179874
C73   C     C_2   0.310288 0.675079 0.033373 0.117322
C74   C     C_2   0.689192 0.677601 0.961674 0.115486
C75   C     C_2   0.811845 0.177986 0.036526 0.118721
C76   C     C_2   0.186035 0.183779 0.953580 0.132292
C77   C     C_2   0.244745 0.649092 0.948899 0.354972
C78   C     C_2   0.756752 0.654346 0.045138 0.342873
C79   C     C_2   0.746934 0.151282 0.951495 0.347943
C80   C     C_2   0.253651 0.161494 0.036371 0.336274
H45   H     H_    0.659207 0.247324 0.945570 0.170610
H46   H     H_    0.362664 0.237489 0.079675 0.178359
H47   H     H_    0.145624 0.736311 0.924658 0.175938
H48   H     H_    0.868142 0.729209 0.096598 0.175934
N33   N     N_R   0.282594 0.193456 0.344704 0.230714
O1    O     O_R   0.343261 0.193144 0.366169 -0.400774
O2    O     O_R   0.228048 0.165674 0.250988 -0.375619
N34   N     N_R   0.828809 0.421205 0.646250 0.248091
O3    O     O_R   0.893442 0.421573 0.738249 -0.316825
O4    O     O_R   0.792224 0.485694 0.611727 -0.379324
N35   N     N_R   0.657707 0.896541 0.307992 0.242346
O5    O     O_R   0.608381 0.862718 0.215346 -0.313473
O6    O     O_R   0.667587 0.970702 0.306973 -0.356262
N36   N     N_R   0.329107 0.922072 0.645657 0.250021
O7    O     O_R   0.393794 0.922644 0.737512 -0.302590
O8    O     O_R   0.292436 0.986508 0.610891 -0.387034
S1    S     S_3+6 0.214642 0.554340 0.943700 0.017080
O9    O     O_2   0.275170 0.497309 0.008416 -0.236327
O10   O     O_2   0.176660 0.555112 0.990471 -0.280081
O11   O     O_3   0.158544 0.525534 0.811128 -0.443157
H49   H     H_    0.114531 0.555554 0.777784 0.359396
S2    S     S_3+6 0.792375 0.561886 0.052200 0.006959
O12   O     O_2   0.735672 0.501772 0.991916 -0.241933
O13   O     O_2   0.828106 0.566849 0.001926 -0.284122
O14   O     O_3   0.852177 0.534075 0.185628 -0.446002
H50   H     H_    0.894366 0.565557 0.215398 0.354681
S3    S     S_3+6 0.718600 0.055023 0.943635 0.026811
O15   O     O_2   0.780210 0.999336 0.007919 -0.228683
O16   O     O_2   0.679982 0.052016 0.989268 -0.258103
O17   O     O_3   0.663709 0.027535 0.810381 -0.444260
H51   H     H_    0.619175 0.056475 0.776895 0.363306
S4    S     S_3+6 0.289646 0.068155 0.048265 0.030533
O18   O     O_2   0.233179 0.007671 0.991063 -0.231208
O19   O     O_2   0.325453 0.069906 0.997956 -0.281368
O20   O     O_3   0.349460 0.043600 0.183030 -0.414956
H52   H     H_    0.391092 0.075790 0.211685 0.362001
N37   N     N_R   0.336325 0.746581 0.023157 0.252332
O21   O     O_R   0.325719 0.763351 0.932164 -0.376944
O22   O     O_R   0.379681 0.788948 0.110131 -0.314929
N38   N     N_R   0.661077 0.749058 0.968777 0.244916
O23   O     O_R   0.596818 0.751585 0.933743 -0.337961
O24   O     O_R   0.694444 0.814044 0.991447 -0.317350
N39   N     N_R   0.837119 0.250642 0.027606 0.252976
O25   O     O_R   0.824691 0.270056 0.935889 -0.378150
O26   O     O_R   0.881090 0.291860 0.115622 -0.317429
N40   N     N_R   0.157511 0.256020 0.957775 0.243807
O27   O     O_R   0.093842 0.258360 0.925172 -0.340500
O28   O     O_R   0.189200 0.321223 0.973737 -0.327020
N41   N     N_R   0.592745 0.408246 0.301555 0.234185
O29   O     O_R   0.622877 0.371487 0.268378 -0.365490
O30   O     O_R   0.546410 0.462520 0.238597 -0.401419
N42   N     N_R   0.416667 0.376162 0.699367 0.219858
O31   O     O_R   0.419069 0.315717 0.752031 -0.386023
O32   O     O_R   0.433089 0.443729 0.746691 -0.382961
N43   N     N_R   0.092374 0.908310 0.301082 0.233335
O33   O     O_R   0.123938 0.873450 0.269059 -0.365222
O34   O     O_R   0.043899 0.960345 0.236351 -0.400523
N44   N     N_R   0.909177 0.918266 0.700992 0.229222
O35   O     O_R   0.892886 0.872772 0.748310 -0.376922
O36   O     O_R   0.954853 0.972838 0.758856 -0.399982

loop_
_geom_bond_atom_site_label_1
_geom_bond_atom_site_label_2
_geom_bond_distance
_ccdc_geom_bond_type
C12   C24   1.384030 A    
C57   C61   1.335435 D    
C27   H15   1.077299 S    
C74   N38   1.442983 S    
N33   O1    1.301892 A    
C6    N6    1.325643 A    
C8    N44   1.433885 S    
C14   N14   1.345197 A    
C36   H24   1.079153 S    
N7    N11   1.367323 A    
C51   C55   1.344712 D    
C12   N12   1.337628 A    
N36   O7    1.301137 A    
C22   C61   1.444719 S    
C50   C60   1.472523 S    
N35   O6    1.301982 A    
C30   H18   1.081020 S    
N41   O29   1.300666 A    
C2    C18   1.374361 A    
C7    N7    1.340751 A    
N31   Ni8   1.812340 S    
C26   C42   1.382868 A    
N1    N14   1.365198 A    
C51   C57   1.460538 S    
N30   Ni5   1.835439 S    
C69   C79   1.460872 S    
C1    H1    1.076426 S    
C76   C80   1.356865 D    
C70   C80   1.448151 S    
C38   N30   1.334509 A    
N42   O32   1.301310 A    
C48   C76   1.454312 S    
N4    N15   1.365486 A    
C3    H3    1.078644 S    
C42   C53   1.444409 S    
C26   H14   1.079441 S    
C67   H47   1.086731 S    
C41   C54   1.454531 S    
N16   Ni7   1.868824 S    
N22   Ni6   1.852034 S    
C39   C43   1.384165 A    
C66   H46   1.086757 S    
C60   N36   1.440858 S    
C40   H28   1.080859 S    
C24   C63   1.467886 S    
C29   N21   1.342838 A    
O11   H49   0.990638 S    
C56   H36   1.087649 S    
C16   C19   1.391820 A    
C17   C66   1.459335 S    
C50   C54   1.338142 D    
C5    N41   1.434570 S    
C31   C47   1.382880 A    
C65   C69   1.340390 D    
C46   C74   1.468761 S    
N19   N31   1.367323 A    
N18   N30   1.367427 A    
C63   H39   1.080989 S    
C60   C64   1.352366 D    
C2    N2    1.331937 A    
C11   C23   1.377146 A    
C68   C72   1.341155 D    
N18   Ni2   1.830822 S    
H44   C72   1.084928 S    
C57   N33   1.436241 S    
C27   N19   1.338998 A    
C28   N20   1.336579 A    
N6    N10   1.367428 A    
C67   C71   1.340961 D    
C4    N4    1.334216 A    
H43   C71   1.085935 S    
C31   H19   1.080784 S    
N8    N12   1.367428 A    
C4    H4    1.078108 S    
C10   C22   1.395397 A    
H41   C69   1.086625 S    
C23   C64   1.449857 S    
C34   N26   1.338786 A    
N41   O30   1.300965 A    
O17   H51   0.990650 S    
C33   N25   1.334585 A    
O20   H52   0.990622 S    
N24   Ni8   1.852034 S    
C58   N34   1.440835 S    
C21   C62   1.448996 S    
N2    N13   1.365486 A    
C77   S1    1.774980 S    
C13   C18   1.385949 A    
N37   O22   1.301482 A    
C2    H2    1.077746 S    
C25   N17   1.339431 A    
S4    O20   1.682304 S    
C15   C20   1.390689 A    
C9    C21   1.376728 A    
C68   H48   1.086833 S    
N34   O4    1.301746 A    
C38   H26   1.079759 S    
C11   H7    1.080670 S    
S1    O10   1.502987 D    
C55   H35   1.084990 S    
N13   Ni6   1.845254 S    
N39   O25   1.301391 A    
C1    N1    1.329921 A    
C12   H8    1.077126 S    
N23   Ni7   1.828648 S    
C16   H12   1.078253 S    
C65   H45   1.086761 S    
N42   O31   1.300434 A    
C44   C55   1.423089 S    
N19   Ni3   1.833667 S    
C62   H38   1.085718 S    
N43   O33   1.300613 A    
C78   S2    1.777491 S    
C25   H13   1.077443 S    
C40   C44   1.368803 A    
C37   C41   1.384672 A    
C26   N18   1.337381 A    
S1    O9    1.503132 D    
C9    N9    1.336556 A    
C71   C77   1.464531 S    
N17   Ni1   1.833667 S    
S3    O15   1.503285 D    
C79   S3    1.774708 S    
C37   N29   1.340812 A    
C32   H20   1.080994 S    
C59   N35   1.438367 S    
C15   H11   1.079283 S    
S3    O16   1.502999 D    
N5    Ni5   1.829002 S    
N43   O34   1.300915 A    
C30   N22   1.344825 A    
C34   H22   1.078806 S    
N21   Ni5   1.828648 S    
N35   O5    1.301210 A    
H42   C70   1.080385 S    
C36   C47   1.382614 A    
N2    Ni2   1.830141 S    
C8    N8    1.340835 A    
C80   S4    1.777502 S    
C61   H37   1.079884 S    
N12   Ni3   1.847831 S    
C6    N42   1.436681 S    
N3    N16   1.365198 A    
C14   C17   1.382755 A    
C19   C68   1.467701 S    
N44   O36   1.300757 A    
N24   N27   1.398545 A    
C35   N27   1.329551 A    
C32   C48   1.383705 A    
C5    C21   1.382892 A    
N29   Ni6   1.812340 S    
S4    O19   1.503052 D    
N38   O24   1.301556 A    
N40   O27   1.300817 A    
C7    C23   1.382916 A    
C10   H6    1.074967 S    
C75   C79   1.358975 D    
C16   N16   1.349377 A    
C34   C45   1.382245 A    
C73   N37   1.443880 S    
C38   C42   1.381544 A    
C7    N43   1.435013 S    
C33   C46   1.381723 A    
C49   C59   1.476487 S    
C73   C77   1.361467 D    
N28   Ni3   1.813595 S    
C15   N15   1.348179 A    
N34   O3    1.301137 A    
C40   N32   1.321074 A    
C4    C20   1.383306 A    
S1    O11   1.682046 S    
C25   C41   1.378221 A    
N20   Ni4   1.830822 S    
C9    H5    1.080416 S    
N32   Ni7   1.835439 S    
C30   C46   1.387780 A    
C27   C43   1.377571 A    
C43   C56   1.453544 S    
C14   H10   1.077960 S    
C29   C45   1.384472 A    
N17   N29   1.367323 A    
C8    C24   1.386648 A    
C53   H33   1.084121 S    
S4    O18   1.503296 D    
C58   C62   1.352431 D    
N36   O8    1.301776 A    
C52   H32   1.084794 S    
C75   N39   1.443875 S    
C49   C53   1.344116 D    
C32   N24   1.340833 A    
C76   N40   1.442941 S    
C59   C63   1.346374 D    
N40   O28   1.301398 A    
N37   O21   1.301273 A    
C5    N5    1.340548 A    
C13   N13   1.352205 A    
N11   Ni4   1.850489 S    
S2    O14   1.682281 S    
C64   H40   1.085763 S    
S2    O12   1.503312 D    
S3    O17   1.682023 S    
C36   N28   1.337834 A    
C10   N10   1.344217 A    
N5    N9    1.367323 A    
C35   H23   1.078521 S    
C1    C17   1.383163 A    
C6    C22   1.374214 A    
C49   H29   1.086746 S    
N6    Ni6   1.852284 S    
C51   H31   1.087459 S    
C29   H17   1.080854 S    
N10   Ni1   1.847831 S    
C3    C19   1.383771 A    
C28   C44   1.387068 A    
N9    Ni2   1.850489 S    
C52   C58   1.471687 S    
N15   Ni8   1.845254 S    
N22   N25   1.398545 A    
C37   H25   1.076906 S    
O14   H50   0.990639 S    
N14   Ni5   1.868824 S    
C13   H9    1.069958 S    
N21   N26   1.398830 A    
N4    Ni4   1.830141 S    
C3    N3    1.332184 A    
C74   C78   1.362527 D    
C72   C78   1.462645 S    
N27   Ni4   1.817365 S    
C28   H16   1.080661 S    
N23   N28   1.398830 A    
N20   N32   1.367427 A    
C18   C65   1.460877 S    
C31   N23   1.341042 A    
N38   O23   1.301057 A    
C39   H27   1.076306 S    
N1    Ni1   1.833727 S    
C33   H21   1.077791 S    
C66   C70   1.336068 D    
C20   C67   1.465711 S    
C47   C75   1.464267 S    
N39   O26   1.301448 A    
N3    Ni3   1.833727 S    
C50   H30   1.084817 S    
C45   C73   1.468791 S    
C39   N31   1.340419 A    
C35   C48   1.380260 A    
N26   Ni1   1.813595 S    
S2    O13   1.503174 D    
N44   O35   1.300170 A    
C54   H34   1.087640 S    
N25   Ni2   1.817365 S    
C52   C56   1.337876 D    
C11   N11   1.337105 A    
N8    Ni8   1.852284 S    
N33   O2    1.301339 A    
N7    Ni7   1.829002 S    
