data_mof_unit_25361.cif
_audit_creation_date              2013-03-05T15:52:09-0500
_audit_creation_method            fapswitch 2.2
_symmetry_space_group_name_H-M    P1
_symmetry_Int_Tables_number       1
_space_group_crystal_system       triclinic
_cell_length_a                    11.085398
_cell_length_b                    11.097306
_cell_length_c                    18.846966
_cell_angle_alpha                 89.987269
_cell_angle_beta                  89.961039
_cell_angle_gamma                 119.925776
_cell_volume                      2009.39388081

loop_
_atom_site_label
_atom_site_type_symbol
_atom_site_description
_atom_site_fract_x
_atom_site_fract_y
_atom_site_fract_z
_atom_type_partial_charge
O1    O     O_R   0.911480 0.572650 0.170990 -0.437628
O2    O     O_R   0.427350 0.338830 0.170990 -0.451222
O3    O     O_R   0.661170 0.088520 0.170990 -0.452139
O4    O     O_R   0.572650 0.911480 0.829010 -0.467340
O5    O     O_R   0.338830 0.427350 0.829010 -0.475270
O6    O     O_R   0.088520 0.661170 0.829010 -0.480482
O7    O     O_R   0.640340 0.528970 0.175680 -0.457965
O8    O     O_R   0.471030 0.111370 0.175680 -0.451956
O9    O     O_R   0.888630 0.359660 0.175680 -0.474568
O10   O     O_R   0.528970 0.640340 0.824320 -0.481418
O11   O     O_R   0.111370 0.471030 0.824320 -0.481970
O12   O     O_R   0.359660 0.888630 0.824320 -0.487758
C1    C     C_R   0.522387 0.446019 0.143350 0.554971
C2    C     C_R   0.550402 0.070273 0.144582 0.557226
C3    C     C_R   0.883687 0.460400 0.139386 0.540551
C4    C     C_R   0.458498 0.518856 0.851611 0.580571
C5    C     C_R   0.060340 0.541796 0.851542 0.576891
C6    C     C_R   0.481105 0.939544 0.851743 0.575782
O13   O     O_R   0.909980 0.572450 0.331530 -0.465408
O14   O     O_R   0.427550 0.337530 0.331530 -0.467244
O15   O     O_R   0.662470 0.090020 0.331530 -0.466456
O16   O     O_R   0.572450 0.909980 0.668470 -0.456522
O17   O     O_R   0.337530 0.427550 0.668470 -0.456354
O18   O     O_R   0.090020 0.662470 0.668470 -0.455799
O19   O     O_R   0.638950 0.528780 0.324500 -0.484951
O20   O     O_R   0.471220 0.110170 0.324500 -0.485399
O21   O     O_R   0.889830 0.361050 0.324500 -0.483092
O22   O     O_R   0.528780 0.638950 0.675500 -0.450454
O23   O     O_R   0.110170 0.471220 0.675500 -0.450909
O24   O     O_R   0.361050 0.889830 0.675500 -0.450996
C7    C     C_R   0.517956 0.457499 0.352893 0.587682
C8    C     C_R   0.542384 0.060407 0.352904 0.588037
C9    C     C_R   0.939508 0.481887 0.352904 0.592081
C10   C     C_R   0.457531 0.524851 0.644725 0.562874
C11   C     C_R   0.067380 0.542609 0.644722 0.563360
C12   C     C_R   0.475259 0.932821 0.644750 0.562135
Cr1   Cr    Cr6+3 0.769160 0.541570 0.250690 1.169638
Cr2   Cr    Cr6+3 0.458430 0.227590 0.250690 1.165453
Cr3   Cr    Cr6+3 0.772410 0.230840 0.250690 1.161565
Cr4   Cr    Cr6+3 0.541570 0.769160 0.749310 1.179159
Cr5   Cr    Cr6+3 0.227590 0.458430 0.749310 1.175600
Cr6   Cr    Cr6+3 0.230840 0.772410 0.749310 1.171420
O25   O     O_3   0.666667 0.333333 0.250560 -0.365526
O26   O     O_3   0.333333 0.666667 0.749440 -0.352798
C13   C     C_R   0.506146 0.007294 0.920628 0.013023
C14   C     C_R   0.987342 0.497103 0.918819 0.023142
C15   C     C_R   0.503182 0.493106 0.919651 0.016681
C16   C     C_R   0.927768 0.487156 0.064833 -0.060465
C17   C     C_R   0.535987 0.028367 0.069546 -0.053559
C18   C     C_R   0.497663 0.458371 0.067872 -0.057874
C19   C     C_R   0.393597 0.972051 0.965228 0.039860
C20   C     C_R   0.026291 0.427940 0.966620 0.051978
C21   C     C_R   0.579472 0.605179 0.964846 0.047128
C22   C     C_R   0.992163 0.417938 0.037436 0.039734
C23   C     C_R   0.408660 0.985743 0.037625 0.038148
C24   C     C_R   0.575902 0.586332 0.037024 0.023522
C25   C     C_R   0.656356 0.064606 0.024716 0.103478
C26   C     C_R   0.899160 0.572700 0.017530 0.106512
C27   C     C_R   0.414574 0.340433 0.022667 0.115480
C28   C     C_R   0.908549 0.556097 0.943374 0.170312
C29   C     C_R   0.640627 0.070406 0.949910 0.152751
C30   C     C_R   0.434285 0.357585 0.948163 0.155577
C31   C     C_3   0.259156 0.839535 0.970126 -0.223074
C32   C     C_3   0.165921 0.445199 0.980526 -0.240199
C33   C     C_3   0.575807 0.737140 0.972996 -0.224772
C34   C     C_3   0.130041 0.435157 0.058780 -0.217782
C35   C     C_3   0.275243 0.853186 0.049882 -0.229302
C36   C     C_3   0.563965 0.710768 0.051919 -0.248694
H1    H     H_    0.265930 0.750612 0.948499 0.085356
H2    H     H_    0.253042 0.547917 0.964885 0.071230
H3    H     H_    0.481804 0.732589 0.949697 0.087818
H4    H     H_    0.118732 0.341246 0.085636 0.242798
H5    H     H_    0.195498 0.869985 0.076408 0.250819
H6    H     H_    0.653532 0.783230 0.083527 0.260382
H7    H     H_    0.173854 0.852143 0.947959 0.254827
H8    H     H_    0.172742 0.357032 0.958090 0.239482
H9    H     H_    0.676283 0.828570 0.957256 0.246407
H10   H     H_    0.195379 0.532947 0.088456 0.119130
H11   H     H_    0.291856 0.772082 0.074839 0.109595
H12   H     H_    0.460956 0.684901 0.074268 0.112708
C37   C     C_R   0.477921 0.979545 0.572072 -0.051536
C38   C     C_R   0.020684 0.498599 0.572046 -0.051584
C39   C     C_R   0.501755 0.522206 0.572037 -0.051500
C40   C     C_R   0.996703 0.505018 0.423852 0.011474
C41   C     C_R   0.508381 0.003269 0.423872 0.012819
C42   C     C_R   0.494672 0.491459 0.423853 0.012846
C43   C     C_R   0.603763 0.025852 0.540170 0.022672
C44   C     C_R   0.974143 0.577915 0.540178 0.022977
C45   C     C_R   0.422811 0.396359 0.540316 0.023416
C46   C     C_R   0.960916 0.580556 0.468901 0.062782
C47   C     C_R   0.619654 0.039006 0.468899 0.063363
C48   C     C_R   0.419834 0.380344 0.469042 0.063556
C49   C     C_R   0.373406 0.940448 0.452314 0.152503
C50   C     C_R   0.059702 0.433002 0.452248 0.152618
C51   C     C_R   0.566372 0.626348 0.452125 0.152628
C52   C     C_R   0.061614 0.417561 0.527896 0.116466
C53   C     C_R   0.355990 0.938631 0.527955 0.116371
C54   C     C_R   0.582211 0.643941 0.527737 0.115954
C55   C     C_3   0.735181 0.155361 0.555060 -0.243221
C56   C     C_3   0.844231 0.579456 0.555169 -0.242654
C57   C     C_3   0.422263 0.265522 0.555253 -0.244171
C58   C     C_3   0.828319 0.582894 0.475803 -0.228812
C59   C     C_3   0.754497 0.171277 0.475679 -0.228177
C60   C     C_3   0.418375 0.245993 0.475891 -0.229151
H13   H     H_    0.806686 0.128740 0.582229 0.262000
H14   H     H_    0.870464 0.677266 0.582407 0.262019
H15   H     H_    0.324725 0.193793 0.582740 0.261182
H16   H     H_    0.737790 0.487167 0.454645 0.082468
H17   H     H_    0.749316 0.261908 0.454490 0.082532
H18   H     H_    0.514275 0.251501 0.454454 0.082677
H19   H     H_    0.719598 0.236678 0.580785 0.115438
H20   H     H_    0.763088 0.482564 0.580910 0.115792
H21   H     H_    0.519637 0.281767 0.580717 0.115233
H22   H     H_    0.841273 0.682925 0.456780 0.252862
H23   H     H_    0.841534 0.158067 0.456652 0.253116
H24   H     H_    0.318310 0.158794 0.457122 0.252398
N1    N     N_R   0.787961 0.083524 0.052352 0.093325
O27   O     O_R   0.900341 0.144166 0.014521 -0.245408
O28   O     O_R   0.791667 0.010701 0.105334 -0.275351
N2    N     N_R   0.896071 0.695829 0.041177 0.083188
O29   O     O_R   0.969027 0.813291 0.008219 -0.248308
O30   O     O_R   0.834090 0.699215 0.098575 -0.281384
N3    N     N_R   0.293986 0.215871 0.048910 0.099548
O31   O     O_R   0.171204 0.176470 0.023297 -0.238801
O32   O     O_R   0.303612 0.135895 0.095559 -0.287609
N4    N     N_R   0.838591 0.596865 0.892463 0.087943
O33   O     O_R   0.766579 0.510413 0.842172 -0.286616
O34   O     O_R   0.866286 0.724968 0.887260 -0.234943
N5    N     N_R   0.757922 0.129738 0.902296 0.110958
O35   O     O_R   0.769257 0.223953 0.857452 -0.294540
O36   O     O_R   0.824354 0.063176 0.888687 -0.222650
N6    N     N_R   0.384346 0.240224 0.900769 0.093704
O37   O     O_R   0.461295 0.245766 0.847283 -0.286986
O38   O     O_R   0.258922 0.134625 0.905621 -0.233689
N7    N     N_R   0.257826 0.879205 0.404092 0.109064
O39   O     O_R   0.241980 0.776190 0.364638 -0.285427
O40   O     O_R   0.196261 0.947803 0.385055 -0.250459
N8    N     N_R   0.121438 0.379058 0.403975 0.108995
O41   O     O_R   0.053256 0.249094 0.384979 -0.251111
O42   O     O_R   0.224239 0.466306 0.364371 -0.286420
N9    N     N_R   0.619966 0.741688 0.403753 0.109272
O43   O     O_R   0.532282 0.757354 0.364537 -0.285671
O44   O     O_R   0.749841 0.802943 0.384252 -0.249579
N10   N     N_R   0.088681 0.311611 0.557029 0.081229
O45   O     O_R   0.131232 0.246287 0.516147 -0.265406
O46   O     O_R   0.037613 0.253386 0.617902 -0.287906
N11   N     N_R   0.222905 0.911672 0.557092 0.081592
O47   O     O_R   0.115110 0.869203 0.516230 -0.265379
O48   O     O_R   0.215485 0.962616 0.617939 -0.287543
N12   N     N_R   0.688222 0.776953 0.556615 0.080463
O49   O     O_R   0.753934 0.884182 0.515443 -0.266162
O50   O     O_R   0.746287 0.784640 0.617575 -0.286822

loop_
_geom_bond_atom_site_label_1
_geom_bond_atom_site_label_2
_geom_bond_distance
_ccdc_geom_bond_type
O19   C7    1.285039 A    
C55   C59   1.508990 S    
O20   C8    1.284125 A    
N4    O33   1.301291 A    
C43   C47   1.352996 A    
O18   Cr6   2.085778 S    
N11   O47   1.297167 A    
C32   H8    1.102615 S    
C15   C30   1.409561 A    
C41   C47   1.382914 A    
C51   C54   1.437355 A    
O23   Cr5   1.958642 S    
N3    O31   1.297673 A    
O21   C9    1.285283 A    
C16   C22   1.383100 A    
Cr6   O26   1.999553 S    
C18   C27   1.444280 A    
N11   O48   1.299250 A    
N9    O44   1.301012 A    
N3    O32   1.290858 A    
C2    C17   1.472483 S    
O22   Cr4   1.959582 S    
C26   C28   1.420270 A    
C14   C20   1.384928 A    
O9    Cr3   1.964952 S    
C17   C25   1.455675 A    
O10   Cr4   1.965026 S    
C13   C29   1.406072 A    
C25   C29   1.426089 A    
O2    C1    1.242916 A    
C46   C58   1.488613 S    
O5    C4    1.276441 A    
O12   Cr6   1.966508 S    
O13   Cr1   2.084546 S    
O19   Cr1   1.957434 S    
C60   H24   1.105302 S    
C41   C49   1.403597 A    
C34   H4    1.107842 S    
C31   H1    1.104387 S    
O21   Cr3   1.960643 S    
N6    O37   1.301564 A    
C39   C54   1.453921 A    
O8    Cr2   1.965139 S    
N4    O34   1.299704 A    
C58   H16   1.109812 S    
O1    C3    1.272427 A    
C32   H2    1.104550 S    
C21   C33   1.493052 S    
O1    Cr1   2.077967 S    
C15   C21   1.392678 A    
O4    C6    1.274842 A    
C33   C36   1.508848 S    
O3    Cr3   2.081277 S    
C7    C42   1.447082 S    
C53   N11   1.458087 S    
C40   C46   1.382982 A    
C3    C16   1.468117 S    
C39   C45   1.362100 A    
C4    C15   1.453747 S    
C56   C58   1.508990 S    
C9    C40   1.447334 S    
C11   C38   1.460023 S    
C20   C22   1.376263 A    
C43   C55   1.475916 S    
C27   N3    1.448259 S    
C34   H10   1.109805 S    
O15   C8    1.266926 A    
C31   C35   1.512521 S    
O18   C11   1.303806 A    
C38   C52   1.453937 A    
C30   N6    1.443040 S    
N7    O39   1.300336 A    
C35   H11   1.109301 S    
C5    C14   1.451361 S    
N10   O46   1.299242 A    
O13   C9    1.267940 A    
O10   C4    1.280886 A    
O16   Cr4   2.084487 S    
O20   Cr2   1.958819 S    
Cr3   O25   1.999507 S    
C33   H3    1.108775 S    
C18   C24   1.369974 A    
C32   C34   1.516809 S    
Cr1   O25   2.002836 S    
C59   H23   1.105297 S    
O4    Cr4   2.080446 S    
C58   H22   1.105501 S    
C52   N10   1.458018 S    
C33   H9    1.109007 S    
O14   Cr2   2.084180 S    
O2    Cr2   2.079221 S    
O15   Cr3   2.084436 S    
Cr4   O26   2.000663 S    
C12   C37   1.459572 S    
O17   C10   1.304450 A    
C55   H19   1.111234 S    
C26   N2    1.453887 S    
O7    Cr1   1.964939 S    
C19   C31   1.485001 S    
C40   C50   1.403578 A    
C45   C48   1.353310 A    
C50   C52   1.437380 A    
C44   C56   1.475842 S    
O3    C2    1.244702 A    
N8    O42   1.300342 A    
C35   H5    1.109055 S    
C44   C46   1.353330 A    
C56   H20   1.111198 S    
C57   C60   1.508957 S    
C20   C32   1.485268 S    
C50   N8    1.436183 S    
Cr5   O26   2.002861 S    
N12   O50   1.299186 A    
C10   C39   1.459940 S    
C14   C28   1.405645 A    
C36   H12   1.111739 S    
C6    C13   1.456211 S    
C49   C53   1.437271 A    
N2    O29   1.298525 A    
N2    O30   1.291705 A    
C25   N1    1.462609 S    
N5    O35   1.300618 A    
C54   N12   1.458255 S    
C21   C24   1.373816 A    
N7    O40   1.301001 A    
O6    C5    1.272592 A    
O5    Cr5   2.079075 S    
O11   C5    1.281782 A    
C27   C30   1.419036 A    
O8    C2    1.313575 A    
C45   C57   1.475942 S    
C47   C59   1.488779 S    
N10   O45   1.297159 A    
C49   N7    1.436148 S    
C23   C35   1.494425 S    
C16   C26   1.448083 A    
C51   N9    1.436115 S    
C22   C34   1.497977 S    
C29   N5    1.439951 S    
O16   C12   1.303063 A    
O23   C11   1.250681 A    
C56   H14   1.100802 S    
O17   Cr5   2.082896 S    
O24   C12   1.250038 A    
C59   H17   1.109871 S    
C24   C36   1.478396 S    
N1    O28   1.297970 A    
O9    C3    1.334742 A    
Cr2   O25   2.000733 S    
C17   C23   1.383134 A    
N1    O27   1.294336 A    
C60   H18   1.109816 S    
C37   C43   1.362013 A    
C31   H7    1.104900 S    
C42   C51   1.403642 A    
C38   C44   1.361954 A    
C8    C41   1.446937 S    
C28   N4    1.441407 S    
C37   C53   1.453901 A    
O11   Cr5   1.963496 S    
C19   C23   1.373973 A    
C57   H21   1.111114 S    
C55   H13   1.100870 S    
N8    O41   1.300961 A    
C48   C60   1.488517 S    
O22   C10   1.251640 A    
C1    C18   1.468131 S    
O7    C1    1.314819 A    
N6    O38   1.299566 A    
O6    Cr6   2.078946 S    
O12   C6    1.280980 A    
C57   H15   1.100636 S    
C13   C19   1.388415 A    
N12   O49   1.297183 A    
O24   Cr6   1.958670 S    
C42   C48   1.382739 A    
N9    O43   1.300323 A    
C36   H6    1.091672 S    
N5    O36   1.302426 A    
O14   C7    1.268261 A    
