data_mof_unit_44762.cif
_audit_creation_date              2012-12-10T16:50:12-0500
_audit_creation_method            fapswitch 2.2
_symmetry_space_group_name_H-M    P1
_symmetry_Int_Tables_number       1
_space_group_crystal_system       triclinic
_cell_length_a                    7.776575
_cell_length_b                    8.560159
_cell_length_c                    10.679603
_cell_angle_alpha                 91.056455
_cell_angle_beta                  85.915364
_cell_angle_gamma                 93.418525
_cell_volume                      707.787971141

loop_
_atom_site_label
_atom_site_type_symbol
_atom_type_description
_atom_site_fract_x
_atom_site_fract_y
_atom_site_fract_z
_atom_type_partial_charge
Br1   Br    Br    0.674702 0.217837 0.843829 -0.345454
Br2   Br    Br    0.219186 0.073630 0.863418 -0.320841
C1    C     C_R   0.545738 0.794673 0.496641 1.090177
C2    C     C_R   0.454451 0.205374 0.503416 0.974613
C3    C     C_R   0.499015 0.507184 0.260746 1.047750
C4    C     C_R   0.385333 0.782637 0.877943 0.519922
C5    C     C_R   0.311420 0.904262 0.947170 0.115633
C6    C     C_R   0.306385 0.903715 0.077071 0.540295
C7    C     C_R   0.371500 0.780497 0.138518 0.502219
C8    C     C_R   0.435658 0.649010 0.070408 -0.262983
C9    C     C_R   0.442693 0.649967 0.938314 -0.179416
C10   C     C_R   0.510418 0.519337 0.871461 -0.180335
C11   C     C_R   0.577213 0.394880 0.931890 0.173391
C12   C     C_R   0.568580 0.394239 0.060154 0.616765
C13   C     C_R   0.497620 0.517899 0.128573 -0.200966
C14   C     C_2   0.569927 0.958093 0.495116 -0.256474
C15   C     C_2   0.430435 0.042037 0.505574 -0.185611
C16   C     C_R   0.503139 0.505367 0.739423 1.037605
F1    F     F_    0.406989 0.800858 0.752532 -0.658977
F2    F     F_    0.241881 0.025407 0.144822 -0.575267
F3    F     F_    0.373714 0.795316 0.264309 -0.649511
F4    F     F_    0.626229 0.269967 0.119348 -0.604426
H1    H     H_    0.986349 0.617645 0.594526 0.210872
H2    H     H_    0.701771 0.008726 0.485267 0.175075
H3    H     H_    0.298605 0.991370 0.515587 0.201575
H4    H     H_    0.013671 0.382339 0.405503 0.219146
N1    N     N_2   0.950330 0.457950 0.466250 -0.157630
N2    N     N_2   0.049670 0.542050 0.533750 -0.152679
O1    O     O_R   0.389250 0.738570 0.508280 -0.542568
O2    O     O_R   0.678390 0.711630 0.486650 -0.655340
O3    O     O_R   0.355400 0.513470 0.694050 -0.572159
O4    O     O_R   0.644540 0.486530 0.672420 -0.622137
O5    O     O_R   0.321610 0.288370 0.513350 -0.625630
O6    O     O_R   0.610750 0.261430 0.491720 -0.605363
O7    O     O_R   0.355460 0.513470 0.327580 -0.589553
O8    O     O_R   0.644600 0.486530 0.305950 -0.595235
Zn1   Zn    Zn3+2 0.306930 0.517990 0.514440 1.072701
Zn2   Zn    Zn3+2 0.693070 0.482010 0.485560 1.040815

loop_
_geom_bond_atom_site_label_1
_geom_bond_atom_site_label_2
_ccdc_geom_bond_type
C1    O2    A    
C9    C10   A    
C4    C5    A    
O4    Zn2   S    
C7    C8    A    
Br2   C5    S    
C12   C13   A    
C15   H3    S    
C12   F4    S    
O8    Zn2   S    
C5    C6    A    
C14   H2    S    
H1    N2    S    
C4    F1    S    
C7    F3    S    
H4    N1    S    
C6    F2    S    
N2    Zn1   S    
C2    C15   S    
C3    O7    A    
O7    Zn1   S    
C8    C13   A    
C2    O6    A    
C3    C13   S    
C16   O4    A    
C8    C9    A    
N1    Zn2   S    
O1    Zn1   S    
C3    O8    A    
C4    C9    A    
Br1   C11   S    
C10   C11   A    
O2    Zn2   S    
C10   C16   S    
N1    N2    D    
C1    O1    A    
C2    O5    A    
C6    C7    A    
C16   O3    A    
C11   C12   A    
O6    Zn2   S    
O5    Zn1   S    
C1    C14   S    
O3    Zn1   S    
C14   C15   D    
