data_mof_unit_64826.cif
_audit_creation_date              2013-03-05T16:23:23-0500
_audit_creation_method            fapswitch 2.2
_symmetry_space_group_name_H-M    P1
_symmetry_Int_Tables_number       1
_space_group_crystal_system       triclinic
_cell_length_a                    21.662256
_cell_length_b                    21.662764
_cell_length_c                    22.108756
_cell_angle_alpha                 119.156364
_cell_angle_beta                  119.273548
_cell_angle_gamma                 90.388504
_cell_volume                      7483.30611393

loop_
_atom_site_label
_atom_site_type_symbol
_atom_site_description
_atom_site_fract_x
_atom_site_fract_y
_atom_site_fract_z
_atom_type_partial_charge
O1    O     O_R   0.448270 0.091610 0.500010 -0.627398
O2    O     O_R   0.551720 0.091610 0.499980 -0.608511
C1    C     C_R   0.500157 0.119777 0.499869 0.879659
O3    O     O_R   0.509700 0.061430 0.622870 -0.577747
O4    O     O_R   0.613150 0.061430 0.622840 -0.614878
C2    C     C_R   0.581099 0.080919 0.662029 0.935662
Zn1   Zn    Zn3+2 0.430930 1.000000 0.500020 1.038420
Zn2   Zn    Zn3+2 0.569070 1.000000 0.499980 1.053081
O5    O     O_R   0.448280 0.908390 0.500020 -0.633881
O6    O     O_R   0.551730 0.908390 0.499990 -0.583456
O7    O     O_R   0.386850 0.938570 0.377160 -0.613945
O8    O     O_R   0.490300 0.938570 0.377130 -0.613996
C3    C     C_R   0.499209 0.879534 0.498655 0.905426
C4    C     C_R   0.418857 0.918858 0.337895 0.876391
C5    C     C_3   0.662426 0.205380 0.951640 0.096742
C6    C     C_3   0.741190 0.292545 0.948994 -0.409154
C7    C     C_3   0.792134 0.346329 0.048367 0.433284
H1    H     H_    0.686052 0.308675 0.063567 0.201497
H2    H     H_    0.774020 0.291338 0.922646 0.222073
H3    H     H_    0.695127 0.311541 0.919313 0.274756
C8    C     C_1   0.874127 0.375033 0.249173 0.027481
C9    C     C_3   0.708732 0.210717 0.917210 -0.025962
C10   C     C_3   0.709455 0.261925 0.048619 -0.023179
C11   C     C_3   0.792859 0.295963 0.082502 -0.180036
C12   C     C_3   0.823283 0.230350 0.047858 0.117444
C13   C     C_3   0.775447 0.182999 0.950263 -0.507483
C14   C     C_1   0.837476 0.339261 0.174241 0.163998
C15   C     C_1   0.663072 0.163762 0.825728 0.097440
C16   C     C_1   0.625639 0.125675 0.750802 -0.018065
H4    H     H_    0.754696 0.123267 0.925787 0.210545
H5    H     H_    0.808213 0.184556 0.924745 0.251579
H6    H     H_    0.816313 0.192355 0.065717 0.187473
H7    H     H_    0.650987 0.147641 0.936347 0.192424
C17   C     C_R   0.495786 0.246591 0.556335 0.038567
C18   C     C_R   0.500197 0.184381 0.498420 -0.077353
C19   C     C_R   0.505845 0.186909 0.438877 -0.182394
H8    H     H_    0.509451 0.139165 0.392473 0.158847
C20   C     C_R   0.505273 0.251444 0.438530 -0.192115
H9    H     H_    0.508649 0.252858 0.391897 0.167813
C21   C     C_R   0.501486 0.313934 0.499453 -0.071806
C22   C     C_R   0.497998 0.309383 0.558042 0.076701
C23   C     C_3   0.492719 0.350694 0.631650 -0.504092
C24   C     C_3   0.490529 0.278509 0.629881 0.134174
H10   H     H_    0.543853 0.399147 0.687341 0.252895
H11   H     H_    0.439256 0.363206 0.614683 0.171253
H12   H     H_    0.436890 0.250139 0.614244 0.130825
C25   C     C_3   0.256199 0.707726 0.048042 -0.059770
C26   C     C_3   0.339474 0.791123 0.049799 -0.494702
C27   C     C_3   0.291192 0.742634 0.952227 0.138895
H13   H     H_    0.221327 0.610525 0.924561 0.219014
H14   H     H_    0.303107 0.684925 0.066846 0.187292
H15   H     H_    0.364881 0.849463 0.073363 0.172664
H16   H     H_    0.386777 0.770984 0.075257 0.225608
H17   H     H_    0.291842 0.780562 0.931871 0.111339
C28   C     C_1   0.125579 0.625469 0.750968 -0.079716
C29   C     C_3   0.290465 0.790337 0.082436 0.246395
C30   C     C_3   0.204485 0.660292 0.950554 -0.389118
C31   C     C_3   0.208209 0.708253 0.917501 0.156506
C32   C     C_3   0.179548 0.774920 0.951273 -0.101116
C33   C     C_3   0.227442 0.822251 0.048919 -0.448139
C34   C     C_1   0.162773 0.662774 0.825954 0.004694
C35   C     C_1   0.336522 0.836357 0.173957 -0.025212
C36   C     C_1   0.374198 0.874120 0.248973 -0.156816
H18   H     H_    0.192397 0.824759 0.073127 0.191174
H19   H     H_    0.252653 0.880913 0.073245 0.173411
H20   H     H_    0.145840 0.637097 0.927465 0.189962
H21   H     H_    0.187324 0.811255 0.931516 0.158609
C37   C     C_R   0.495087 0.809015 0.554766 -0.022866
C38   C     C_R   0.497781 0.812572 0.495451 -0.094943
C39   C     C_R   0.502454 0.750088 0.434992 0.108110
C40   C     C_R   0.503429 0.686075 0.436976 -0.219113
H22   H     H_    0.505904 0.637262 0.390409 0.160127
C41   C     C_R   0.501636 0.685620 0.499607 -0.109332
C42   C     C_R   0.499358 0.749141 0.558726 0.096069
C43   C     C_3   0.493327 0.782266 0.632201 -0.216679
C44   C     C_3   0.489586 0.851711 0.627984 0.146189
H23   H     H_    0.441141 0.751823 0.617463 0.136051
H24   H     H_    0.435093 0.862100 0.610956 0.111588
O9    O     O_R   0.908570 0.551750 0.500020 -0.584221
O10   O     O_R   0.908540 0.448310 0.500030 -0.596953
C45   C     C_R   0.881198 0.500647 0.501776 0.939543
O11   O     O_R   0.938770 0.490290 0.377140 -0.563123
O12   O     O_R   0.938740 0.386860 0.377150 -0.616856
C46   C     C_R   0.918247 0.418993 0.337961 0.927460
Zn3   Zn    Zn3+2 0.000200 0.569060 0.500000 1.124825
Zn4   Zn    Zn3+2 0.000160 0.430940 0.500000 1.075699
O13   O     O_R   0.091820 0.551690 0.499970 -0.607355
O14   O     O_R   0.091790 0.448250 0.499980 -0.622062
O15   O     O_R   0.061630 0.613140 0.622850 -0.624346
O16   O     O_R   0.061600 0.509710 0.622860 -0.591778
C47   C     C_R   0.119213 0.499345 0.498193 0.937527
C48   C     C_R   0.081397 0.581061 0.662090 0.917511
O17   O     O_R   0.626360 0.534710 0.569400 -0.629888
O18   O     O_R   0.557050 0.465350 0.430680 -0.616833
C49   C     C_R   0.620360 0.498331 0.500383 0.911195
O19   O     O_R   0.534700 0.443070 0.569360 -0.618906
O20   O     O_R   0.465400 0.373710 0.430650 -0.621103
C50   C     C_R   0.500274 0.379752 0.499951 0.871192
Zn5   Zn    Zn3+2 0.546320 0.546310 0.592620 0.984037
Zn6   Zn    Zn3+2 0.453780 0.453690 0.407380 1.002299
O21   O     O_R   0.443050 0.534650 0.569320 -0.625156
O22   O     O_R   0.373740 0.465290 0.430600 -0.612563
O23   O     O_R   0.534700 0.626290 0.569350 -0.620455
O24   O     O_R   0.465390 0.556930 0.430640 -0.623846
C51   C     C_R   0.379537 0.500523 0.499920 0.902677
C52   C     C_R   0.500070 0.620252 0.500049 0.899372
C53   C     C_R   0.758077 0.512746 0.453751 0.018132
C54   C     C_R   0.818228 0.502010 0.506678 -0.254062
C55   C     C_R   0.813197 0.487573 0.560476 0.320397
C56   C     C_R   0.746868 0.484682 0.558212 -0.021678
C57   C     C_R   0.686701 0.496088 0.502050 -0.155254
C58   C     C_R   0.694568 0.508484 0.450273 0.039549
C59   C     C_3   0.655255 0.521982 0.382613 -0.542872
C60   C     C_3   0.728169 0.525774 0.385594 0.353451
H25   H     H_    0.606321 0.472766 0.323898 0.200350
H26   H     H_    0.643464 0.575825 0.405053 0.227397
C61   C     C_R   0.251623 0.520030 0.568646 0.053657
C62   C     C_R   0.183745 0.499750 0.495935 -0.197932
C63   C     C_R   0.182008 0.492766 0.427996 0.279932
C64   C     C_R   0.248097 0.495971 0.431156 -0.257566
H27   H     H_    0.247176 0.486797 0.377920 0.211027
C65   C     C_R   0.313899 0.505815 0.500409 -0.172263
C66   C     C_R   0.316015 0.523119 0.570956 0.154789
C67   C     C_3   0.345050 0.490284 0.621250 -0.440141
C68   C     C_3   0.273758 0.486960 0.618777 -0.430335
H28   H     H_    0.349344 0.434321 0.586127 0.189957
H29   H     H_    0.395983 0.530625 0.685107 0.227617
H30   H     H_    0.236735 0.429044 0.582448 0.220752
H31   H     H_    0.283510 0.525513 0.681197 0.238692
N1    N     N_R   0.702877 0.227871 0.089747 0.219498
O25   O     O_R   0.715849 0.165183 0.075063 -0.376733
O26   O     O_R   0.679790 0.258871 0.138595 -0.358513
N2    N     N_R   0.903907 0.256346 0.085231 0.254949
O27   O     O_R   0.951704 0.268666 0.158302 -0.317293
O28   O     O_R   0.928934 0.261517 0.044440 -0.308751
N3    N     N_R   0.556867 0.286658 0.702619 0.232690
O29   O     O_R   0.549018 0.263974 0.743904 -0.343386
O30   O     O_R   0.623783 0.314807 0.725661 -0.355201
N4    N     N_R   0.589666 0.215901 0.911184 0.228979
O31   O     O_R   0.528446 0.161316 0.866566 -0.302573
O32   O     O_R   0.585004 0.279288 0.920134 -0.301498
N5    N     N_R   0.323027 0.685733 0.918899 0.225520
O33   O     O_R   0.337422 0.682048 0.866790 -0.385489
O34   O     O_R   0.341444 0.641719 0.944368 -0.386159
N6    N     N_3   0.099435 0.749801 0.915491 -0.411982
H32   H     H_    0.090419 0.726616 0.943429 0.205924
H33   H     H_    0.081415 0.796603 0.930072 0.208306
N7    N     N_3   0.216695 0.702356 0.084435 -0.444552
H34   H     H_    0.166723 0.713933 0.059868 0.202970
H35   H     H_    0.202389 0.647224 0.066580 0.210183
N8    N     N_3   0.504824 0.751499 0.371809 -0.409696
H36   H     H_    0.453140 0.753463 0.332653 0.171720
H37   H     H_    0.510661 0.701975 0.334229 0.201338
N9    N     N_3   0.561273 0.795645 0.707075 -0.336639
H38   H     H_    0.559905 0.744998 0.701862 0.212648
H39   H     H_    0.558220 0.830491 0.758170 0.225900
N10   N     N_R   0.554458 0.919061 0.698933 0.231342
O35   O     O_R   0.621172 0.920337 0.715428 -0.354162
O36   O     O_R   0.544715 0.979916 0.743318 -0.373173
N11   N     N_R   0.875482 0.478981 0.619246 0.232032
O37   O     O_R   0.941831 0.527424 0.667737 -0.399757
O38   O     O_R   0.865456 0.425260 0.627918 -0.328517
N12   N     N_3   0.741863 0.470026 0.612649 -0.363719
H40   H     H_    0.692817 0.426044 0.577025 0.194310
H41   H     H_    0.740068 0.517765 0.657382 0.227432
N13   N     N_3   0.720345 0.464417 0.309766 -0.421212
H42   H     H_    0.684394 0.469049 0.260126 0.236197
H43   H     H_    0.694565 0.413221 0.294376 0.194512
N14   N     N_R   0.768415 0.599363 0.414494 0.250030
O39   O     O_R   0.782055 0.659250 0.482642 -0.357838
O40   O     O_R   0.793245 0.605388 0.373964 -0.311762
N15   N     N_R   0.113835 0.477326 0.353897 0.233825
O41   O     O_R   0.051156 0.433703 0.324966 -0.348384
O42   O     O_R   0.115804 0.498634 0.308889 -0.308493
N16   N     N_R   0.762757 0.407667 0.080142 0.201212
O43   O     O_R   0.800008 0.459226 0.160155 -0.318912
O44   O     O_R   0.704622 0.416452 0.030033 -0.301737
N17   N     N_R   0.867941 0.381801 0.076493 0.251221
O45   O     O_R   0.923924 0.412127 0.153875 -0.245504
O46   O     O_R   0.875077 0.404396 0.034709 -0.309759

loop_
_geom_bond_atom_site_label_1
_geom_bond_atom_site_label_2
_geom_bond_distance
_ccdc_geom_bond_type
C7    N17   1.480699 S    
C60   N14   1.467494 S    
Zn5   O23   2.019334 S    
C22   C23   1.492182 S    
N10   O35   1.302495 A    
O13   C47   1.275939 A    
C41   C42   1.384114 A    
C57   C58   1.378825 A    
C11   C14   1.464438 S    
C30   H20   1.110919 S    
O24   C52   1.268225 A    
O20   C50   1.267538 A    
C41   C52   1.421123 S    
C66   C67   1.493573 S    
N16   O44   1.301441 A    
N15   O41   1.299997 A    
Zn1   O7    1.996243 S    
C28   C48   1.417400 S    
O12   C46   1.283734 A    
C15   C16   1.194942 T    
N12   H41   1.044365 S    
C44   H24   1.112382 S    
C26   H15   1.113631 S    
C21   C50   1.420985 S    
O4    C2    1.283289 A    
O10   C45   1.275367 A    
O7    C4    1.283789 A    
Zn4   O14   2.017775 S    
C37   C42   1.342726 A    
C27   H17   1.115415 S    
O19   Zn5   2.018590 S    
Zn6   O24   2.018590 S    
C54   C55   1.418840 A    
O22   C51   1.271939 A    
C26   C29   1.552068 S    
C17   C18   1.380145 A    
N14   O39   1.302024 A    
O5    C3    1.277614 A    
C62   C63   1.415527 A    
O10   Zn4   2.022815 S    
C32   H21   1.115308 S    
C56   C57   1.422025 A    
C5    C9    1.558835 S    
C18   C19   1.406610 A    
N15   O42   1.301472 A    
C6    C7    1.587280 S    
O19   C50   1.268231 A    
C68   H30   1.112172 S    
C53   C54   1.378178 A    
C8    C46   1.416001 S    
C39   C40   1.408570 A    
O18   Zn6   2.017965 S    
C12   N2    1.473800 S    
O17   Zn5   2.020791 S    
N9    H39   1.045527 S    
C6    H3    1.106332 S    
C63   N15   1.438738 S    
C59   H26   1.111736 S    
C12   H6    1.108788 S    
C5    C10   1.556683 S    
C8    C14   1.195751 T    
C45   C54   1.419624 S    
C13   H5    1.110419 S    
N10   O36   1.300460 A    
C9    C15   1.459116 S    
N13   H43   1.046758 S    
N14   O40   1.301395 A    
C24   N3    1.463652 S    
C17   C22   1.342123 A    
C23   H10   1.111696 S    
O3    Zn1   1.993607 S    
C58   C59   1.494045 S    
N6    H33   1.046024 S    
C64   C65   1.401758 A    
C60   N13   1.467569 S    
C5    N4    1.470026 S    
Zn3   O13   2.022816 S    
O21   C51   1.268918 A    
C26   H16   1.112829 S    
C44   N10   1.466440 S    
C7    C11   1.597242 S    
C42   C43   1.497930 S    
C39   N8    1.437572 S    
H1    C10   1.111996 S    
N17   O45   1.301621 A    
N7    H34   1.044579 S    
N3    O30   1.302207 A    
Zn4   O16   1.994663 S    
C40   C41   1.408867 A    
Zn3   O15   1.995146 S    
C37   C38   1.379221 A    
C25   H14   1.114942 S    
C12   C13   1.556931 S    
C27   C31   1.565425 S    
C29   C33   1.553553 S    
C10   N1    1.473150 S    
O1    C1    1.277361 A    
C23   H11   1.110814 S    
N11   O38   1.301129 A    
N1    O26   1.301352 A    
C43   C44   1.552197 S    
C53   C60   1.494037 S    
C35   C36   1.196308 T    
C25   C30   1.556079 S    
N2    O27   1.301319 A    
O16   C48   1.283049 A    
N16   O43   1.301730 A    
O14   C47   1.279148 A    
C1    C18   1.415393 S    
Zn2   O8    1.993610 S    
C27   N5    1.470148 S    
C2    C16   1.415698 S    
Zn6   O22   2.020794 S    
C47   C62   1.423086 S    
O18   C49   1.270096 A    
C53   C58   1.339791 A    
C11   C12   1.576969 S    
O15   C48   1.283391 A    
C43   H23   1.113250 S    
N9    H38   1.044470 S    
C67   H29   1.111575 S    
C32   N6    1.469278 S    
O3    C2    1.282731 A    
C21   C22   1.383241 A    
Zn5   O21   2.017965 S    
O8    C4    1.283405 A    
C33   H19   1.113468 S    
C13   H4    1.114094 S    
O11   C46   1.282156 A    
N13   H42   1.045721 S    
N5    O34   1.301516 A    
C23   C24   1.544861 S    
N6    H32   1.044428 S    
O9    Zn3   2.017775 S    
O20   Zn6   2.019337 S    
C64   H27   1.083632 S    
C67   H28   1.111854 S    
C59   C60   1.548233 S    
Zn1   O5    2.022306 S    
C25   N7    1.468476 S    
C26   C27   1.556114 S    
C6    C9    1.554501 S    
O1    Zn1   2.017382 S    
H13   C30   1.110098 S    
Zn2   O6    2.017382 S    
O2    Zn2   2.022304 S    
C17   C24   1.490494 S    
N7    H35   1.046034 S    
N3    O29   1.300453 A    
O6    C3    1.274987 A    
O4    Zn2   1.996240 S    
N17   O46   1.302333 A    
N4    O31   1.301100 A    
C37   C44   1.490412 S    
O11   Zn3   1.994666 S    
O9    C45   1.278300 A    
C33   H18   1.111435 S    
N11   O37   1.301050 A    
C19   C20   1.401885 A    
O2    C1    1.275926 A    
C31   C32   1.563154 S    
C40   H22   1.083944 S    
C49   C57   1.421221 S    
C61   C62   1.389513 A    
C56   N12   1.435461 S    
C20   C21   1.409393 A    
N4    O32   1.300590 A    
C43   N9    1.461015 S    
C30   C31   1.554428 S    
C20   H9    1.083375 S    
C3    C38   1.416794 S    
C19   H8    1.083461 S    
C31   C34   1.460002 S    
C6    H2    1.111924 S    
C4    C36   1.418076 S    
C28   C34   1.195876 T    
C51   C65   1.432116 S    
N1    O25   1.301279 A    
O23   C52   1.267566 A    
C29   C35   1.459515 S    
N8    H37   1.045623 S    
C61   C66   1.370595 A    
C38   C39   1.414353 A    
C24   H12   1.112567 S    
N12   H40   1.045764 S    
C10   C11   1.577738 S    
C68   H31   1.111782 S    
C32   C33   1.557745 S    
O12   Zn4   1.995146 S    
O17   C49   1.264609 A    
C63   C64   1.398332 A    
C9    C13   1.545844 S    
N2    O28   1.302142 A    
N5    O33   1.301128 A    
C67   C68   1.518295 S    
C65   C66   1.391222 A    
C55   C56   1.412908 A    
C55   N11   1.438041 S    
C61   C68   1.493361 S    
N8    H36   1.045646 S    
C5    H7    1.114436 S    
C7    N16   1.484302 S    
C25   C29   1.560709 S    
C59   H25   1.111695 S    
