data_mof_unit_46894.cif
_audit_creation_date              2012-12-10T20:50:09-0500
_audit_creation_method            fapswitch 2.2
_symmetry_space_group_name_H-M    P1
_symmetry_Int_Tables_number       1
_space_group_crystal_system       monoclinic
_cell_length_a                    19.218625
_cell_length_b                    8.935852
_cell_length_c                    8.101059
_cell_angle_alpha                 90.000012
_cell_angle_beta                  90.0
_cell_angle_gamma                 90.0
_cell_volume                      1391.23365515

loop_
_atom_site_label
_atom_site_type_symbol
_atom_type_description
_atom_site_fract_x
_atom_site_fract_y
_atom_site_fract_z
_atom_type_partial_charge
C1    C     C_R   0.500000 0.217966 0.500000 0.941692
C2    C     C_R   0.253639 0.548381 0.360086 -0.132436
C3    C     C_R   0.181126 0.450361 0.641864 0.015248
C4    C     C_R   0.818874 0.450360 0.358136 0.015249
C5    C     C_R   0.818874 0.549640 0.641864 0.015249
C6    C     C_R   0.181126 0.549641 0.358136 0.015248
C7    C     C_R   0.144967 0.500001 0.500000 -0.084212
C8    C     C_R   0.855032 0.500000 0.500000 -0.084212
C9    C     C_R   0.289646 0.500000 0.500000 -0.136828
C10   C     C_R   0.710354 0.500000 0.500000 -0.136828
C11   C     C_R   0.930267 0.500001 0.500000 0.202654
C12   C     C_R   0.500000 0.782034 0.500000 0.941692
C13   C     C_R   0.069733 0.500001 0.500000 0.202654
C14   C     C_2   0.144106 0.399959 0.793544 0.477646
C15   C     C_2   0.855894 0.399959 0.206455 0.477646
C16   C     C_2   0.855894 0.600041 0.793544 0.477645
C17   C     C_2   0.144106 0.600042 0.206456 0.477645
C18   C     C_R   0.365179 0.500000 0.500000 0.879743
C19   C     C_R   0.634821 0.500000 0.500000 0.879743
C20   C     C_1   0.500000 0.065180 0.500000 -0.173811
C21   C     C_1   0.500000 0.934820 0.500000 -0.173811
C22   C     C_R   0.253639 0.451619 0.639914 -0.132436
C23   C     C_R   0.746361 0.451619 0.360086 -0.132436
C24   C     C_R   0.746361 0.548381 0.639914 -0.132437
H1    H     H_    0.282311 0.414283 0.747521 0.200351
H2    H     H_    0.717688 0.414282 0.252479 0.200351
H3    H     H_    0.717688 0.585718 0.747521 0.200351
H4    H     H_    0.282311 0.585718 0.252479 0.200351
H5    H     H_    0.088203 0.412476 0.805082 0.069166
H6    H     H_    0.911797 0.412478 0.194917 0.069166
H7    H     H_    0.911796 0.587523 0.805083 0.069167
H8    H     H_    0.088203 0.587526 0.194918 0.069166
N1    N     N_1   0.500000 0.500000 0.073640 -0.024878
N2    N     N_1   0.500000 0.500000 0.926360 -0.024878
N3    N     N_R   0.034509 0.368824 0.499959 -0.151519
N4    N     N_R   0.965491 0.631177 0.499964 -0.151519
N5    N     N_R   0.965491 0.368824 0.500035 -0.151519
N6    N     N_R   0.034509 0.631177 0.500041 -0.151519
O1    O     O_R   0.500000 0.285350 0.636850 -0.612526
O2    O     O_2   0.824198 0.343584 0.091502 -0.556054
O3    O     O_2   0.824198 0.656416 0.908498 -0.556054
O4    O     O_2   0.175801 0.656415 0.091501 -0.556054
O5    O     O_R   0.500000 0.714650 0.363150 -0.612526
O6    O     O_R   0.500000 0.714650 0.636850 -0.612526
O7    O     O_R   0.500000 0.285350 0.363150 -0.612526
O8    O     O_R   0.398140 0.500000 0.636920 -0.618321
O9    O     O_R   0.601860 0.500000 0.363080 -0.618320
O10   O     O_R   0.601860 0.500000 0.636920 -0.618321
O11   O     O_R   0.398140 0.500000 0.363080 -0.618321
O12   O     O_2   0.175801 0.343585 0.908499 -0.556053
Zn1   Zn    Zn3+2 0.500000 0.500000 0.682780 1.012528
Zn2   Zn    Zn3+2 0.500000 0.500000 0.317220 1.012528

loop_
_geom_bond_atom_site_label_1
_geom_bond_atom_site_label_2
_ccdc_geom_bond_type
C5    C8    A    
O1    Zn1   S    
N1    Zn2   S    
C6    C7    A    
C10   C23   A    
C24   H3    S    
C10   C19   S    
C4    C8    A    
O11   Zn2   S    
C16   O3    D    
C4    C15   S    
N4    N6    A    
N1    N2    T    
N2    Zn1   S    
C12   O6    A    
C2    C6    A    
C16   H7    S    
C5    C24   A    
C1    O7    A    
C13   N6    A    
C14   O12   D    
C3    C14   S    
C8    C11   S    
C18   O8    A    
O6    Zn1   S    
C11   N4    A    
N3    N5    A    
O5    Zn2   S    
C13   N3    A    
C12   O5    A    
C3    C7    A    
C9    C22   A    
C19   O9    A    
C15   O2    D    
C1    O1    A    
C14   H5    S    
C12   C21   S    
C9    C18   S    
C7    C13   S    
C20   C21   T    
C15   H6    S    
C11   N5    A    
C1    C20   S    
C23   H2    S    
O9    Zn2   S    
C6    C17   S    
C17   H8    S    
C17   O4    D    
C5    C16   S    
C2    H4    S    
O7    Zn2   S    
C10   C24   A    
C4    C23   A    
C19   O10   A    
C2    C9    A    
O8    Zn1   S    
O10   Zn1   S    
C18   O11   A    
C3    C22   A    
C22   H1    S    
