data_mof_unit_42457.cif
_audit_creation_date              2012-12-10T17:19:19-0500
_audit_creation_method            fapswitch 2.2
_symmetry_space_group_name_H-M    P1
_symmetry_Int_Tables_number       1
_space_group_crystal_system       triclinic
_cell_length_a                    18.272852
_cell_length_b                    18.309341
_cell_length_c                    34.477272
_cell_angle_alpha                 90.076081
_cell_angle_beta                  90.046233
_cell_angle_gamma                 90.108646
_cell_volume                      11534.815148

loop_
_atom_site_label
_atom_site_type_symbol
_atom_type_description
_atom_site_fract_x
_atom_site_fract_y
_atom_site_fract_z
_atom_type_partial_charge
C1    C     C_R   0.577812 0.890222 0.520400 -0.056156
C2    C     C_R   0.921434 0.609415 0.979594 -0.064634
C3    C     C_R   0.550802 0.955004 0.958738 -0.085443
C4    C     C_R   0.959189 0.553856 0.041057 -0.082544
C5    C     C_R   0.040206 0.445885 0.958948 -0.083021
C6    C     C_R   0.551219 0.955285 0.040925 -0.084078
C7    C     C_R   0.452357 0.047735 0.958849 -0.059910
C8    C     C_R   0.000005 0.499887 0.644180 1.007354
C9    C     C_R   0.000034 0.499974 0.355745 1.062653
C10   C     C_R   0.499946 0.999954 0.644230 1.013419
C11   C     C_R   0.500003 0.000043 0.355770 1.034771
C12   C     C_R   0.500005 0.999887 0.144180 1.007359
C13   C     C_R   0.407659 0.097608 0.020378 -0.103323
C14   C     C_R   0.500033 0.999974 0.855745 1.062657
C15   C     C_R   0.999946 0.499954 0.144230 1.013449
C16   C     C_R   0.000003 0.500043 0.855770 1.034790
C17   C     C_R   0.859990 0.639823 0.750068 1.048808
C18   C     C_R   0.139821 0.360063 0.250058 1.060974
C19   C     C_R   0.359804 0.860507 0.749680 1.064414
C20   C     C_R   0.640206 0.139590 0.250288 1.064243
C21   C     C_R   0.140276 0.360493 0.750190 1.056486
C22   C     C_R   0.859985 0.639711 0.249919 1.064754
C23   C     C_R   0.639705 0.140018 0.750201 1.061561
C24   C     C_R   0.600282 0.909532 0.979324 -0.084988
C25   C     C_R   0.360393 0.859863 0.249706 1.058523
C26   C     C_R   0.859804 0.360507 0.249680 1.064414
C27   C     C_R   0.140206 0.639590 0.750288 1.064243
C28   C     C_R   0.359990 0.139823 0.250068 1.048809
C29   C     C_R   0.639821 0.860063 0.750058 1.060971
C30   C     C_R   0.139705 0.640018 0.250201 1.061562
C31   C     C_R   0.860392 0.359863 0.749706 1.058522
C32   C     C_R   0.640276 0.860493 0.250190 1.056485
C33   C     C_R   0.359985 0.139711 0.749919 1.064752
C34   C     C_R   0.158521 0.732531 0.683171 0.563826
C35   C     C_R   0.921112 0.609165 0.020506 -0.070297
C36   C     C_R   0.844416 0.265362 0.315643 0.567292
C37   C     C_R   0.228128 0.121302 0.704631 0.501673
C38   C     C_R   0.775177 0.881620 0.292946 0.604057
C39   C     C_R   0.841709 0.264777 0.683154 0.479318
C40   C     C_R   0.156616 0.736598 0.316286 0.605729
C41   C     C_R   0.610901 0.719304 0.784690 0.501856
C42   C     C_R   0.390605 0.282930 0.218356 0.605701
C43   C     C_R   0.282283 0.389761 0.217567 0.537713
C44   C     C_R   0.717525 0.610645 0.783562 0.501657
C45   C     C_R   0.262943 0.845761 0.315218 0.618115
C46   C     C_R   0.078084 0.390436 0.979491 -0.060986
C47   C     C_R   0.737089 0.154092 0.684803 0.463241
C48   C     C_R   0.882188 0.773096 0.292976 0.540576
C49   C     C_R   0.122115 0.230724 0.703517 0.495102
C50   C     C_R   0.731702 0.163108 0.318190 0.556754
C51   C     C_R   0.265232 0.841223 0.683059 0.476296
C52   C     C_R   0.658521 0.232531 0.183171 0.563826
C53   C     C_R   0.344416 0.765362 0.815643 0.567292
C54   C     C_R   0.728129 0.621303 0.204630 0.501676
C55   C     C_R   0.275177 0.381620 0.792947 0.604058
C56   C     C_R   0.341709 0.764777 0.183154 0.479318
C57   C     C_R   0.599687 0.908810 0.020250 -0.085251
C58   C     C_R   0.656615 0.236599 0.816286 0.605729
C59   C     C_R   0.110901 0.219304 0.284690 0.501854
C60   C     C_R   0.890605 0.782930 0.718357 0.605701
C61   C     C_R   0.782284 0.889761 0.717568 0.537711
C62   C     C_R   0.217526 0.110645 0.283562 0.501655
C63   C     C_R   0.762943 0.345761 0.815218 0.618116
C64   C     C_R   0.237089 0.654093 0.184803 0.463240
C65   C     C_R   0.382188 0.273097 0.792976 0.540576
C66   C     C_R   0.622115 0.730724 0.203516 0.495105
C67   C     C_R   0.231702 0.663108 0.818190 0.556754
C68   C     C_R   0.404575 0.094821 0.979563 -0.102088
C69   C     C_R   0.765232 0.341223 0.183059 0.476296
C70   C     C_R   0.170335 0.773345 0.649408 -0.162644
C71   C     C_R   0.832141 0.226069 0.349969 -0.216830
C72   C     C_R   0.166063 0.113031 0.681129 -0.178792
C73   C     C_R   0.841441 0.893537 0.312758 -0.162949
C74   C     C_R   0.830037 0.222140 0.649900 -0.150758
C75   C     C_R   0.167238 0.780096 0.349511 -0.273761
C76   C     C_R   0.594958 0.650468 0.800282 -0.148452
C77   C     C_R   0.407700 0.353604 0.205372 -0.160609
C78   C     C_R   0.353161 0.407593 0.205451 -0.234247
C79   C     C_R   0.258731 0.795295 0.716373 -0.098133
C80   C     C_R   0.647949 0.594883 0.798532 -0.144001
C81   C     C_R   0.220182 0.835974 0.348656 -0.261772
C82   C     C_R   0.779687 0.163934 0.651436 -0.184643
C83   C     C_R   0.894864 0.838349 0.313138 -0.244560
C84   C     C_R   0.111876 0.167666 0.681021 -0.168154
C85   C     C_R   0.772984 0.176872 0.351758 -0.208893
C86   C     C_R   0.223033 0.829535 0.649628 -0.196297
C87   C     C_R   0.670335 0.273345 0.149408 -0.162645
C88   C     C_R   0.332141 0.726069 0.849969 -0.216832
C89   C     C_R   0.666064 0.613032 0.181128 -0.178798
C90   C     C_R   0.740569 0.205903 0.283845 -0.127257
C91   C     C_R   0.341441 0.393537 0.812758 -0.162951
C92   C     C_R   0.330037 0.722140 0.149900 -0.150756
C93   C     C_R   0.667237 0.280097 0.849511 -0.273764
C94   C     C_R   0.094958 0.150468 0.300282 -0.148451
C95   C     C_R   0.907701 0.853605 0.705373 -0.160608
C96   C     C_R   0.853162 0.907593 0.705452 -0.234247
C97   C     C_R   0.147949 0.094883 0.298533 -0.144005
C98   C     C_R   0.720182 0.335974 0.848656 -0.261780
C99   C     C_R   0.279687 0.663934 0.151436 -0.184649
C100  C     C_R   0.394864 0.338349 0.813137 -0.244561
C101  C     C_R   0.185608 0.240567 0.727127 -0.097537
C102  C     C_R   0.611877 0.667666 0.181020 -0.168156
C103  C     C_R   0.272985 0.676872 0.851758 -0.208899
C104  C     C_R   0.723033 0.329535 0.149628 -0.196301
C105  C     C_R   0.499628 0.999817 0.520471 -0.006532
C106  C     C_R   0.499770 0.999933 0.479527 -0.005645
C107  C     C_R   0.002248 0.501805 0.520348 -0.003873
C108  C     C_R   0.001956 0.501658 0.479363 0.001761
C109  C     C_R   0.999628 0.499817 0.020471 -0.006531
C110  C     C_R   0.999771 0.499933 0.979527 -0.005651
C111  C     C_R   0.502248 0.001804 0.020348 -0.003873
C112  C     C_R   0.421469 0.109439 0.479594 -0.064617
C113  C     C_R   0.816477 0.761243 0.271437 -0.115769
C114  C     C_R   0.501956 0.001657 0.979364 0.001757
C115  C     C_2   0.251061 0.639405 0.888339 0.534669
C116  C     C_2   0.733534 0.380286 0.116414 0.575863
C117  C     C_2   0.464759 0.345727 0.834925 0.607611
C118  C     C_2   0.542485 0.660967 0.158661 0.612419
C119  C     C_2   0.728847 0.387524 0.881841 0.512724
C120  C     C_2   0.272469 0.609190 0.119781 0.589245
C121  C     C_2   0.868194 0.984402 0.694109 0.529056
C122  C     C_2   0.132577 0.018677 0.310968 0.573349
C123  C     C_2   0.023296 0.140493 0.319955 0.589893
C124  C     C_R   0.742257 0.202613 0.717181 -0.089946
C125  C     C_2   0.981842 0.869212 0.689722 0.600012
C126  C     C_2   0.369388 0.742823 0.113710 0.575817
C127  C     C_2   0.624278 0.265322 0.885561 0.548834
C128  C     C_2   0.662194 0.547565 0.155822 0.653116
C129  C     C_2   0.355873 0.465607 0.831177 0.596665
C130  C     C_2   0.626820 0.254098 0.114395 0.601666
C131  C     C_2   0.384886 0.733065 0.882714 0.639540
C132  C     C_2   0.751060 0.139405 0.388340 0.534657
C133  C     C_2   0.233534 0.880287 0.616414 0.575859
C134  C     C_2   0.964759 0.845726 0.334925 0.607606
C135  C     C_R   0.257540 0.797478 0.282776 -0.151704
C136  C     C_2   0.042484 0.160966 0.658662 0.612418
C137  C     C_2   0.228848 0.887523 0.381841 0.512714
C138  C     C_2   0.772470 0.109190 0.619781 0.589237
C139  C     C_2   0.368193 0.484401 0.194108 0.529059
C140  C     C_2   0.632577 0.518676 0.810967 0.573353
C141  C     C_2   0.523296 0.640493 0.819955 0.589895
C142  C     C_2   0.481841 0.369212 0.189721 0.600017
C143  C     C_2   0.869388 0.242822 0.613710 0.575819
C144  C     C_2   0.124278 0.765321 0.385562 0.548831
C145  C     C_2   0.162193 0.047564 0.655823 0.653102
C146  C     C_R   0.734117 0.679923 0.766645 -0.104227
C147  C     C_2   0.855874 0.965607 0.331177 0.596655
C148  C     C_2   0.126820 0.754098 0.614395 0.601665
C149  C     C_2   0.884885 0.233066 0.382715 0.639537
C150  C     C_2   0.610929 0.827490 0.541367 0.555792
C151  C     C_2   0.388238 0.172132 0.458639 0.572141
C152  C     C_2   0.863346 0.653872 0.540778 0.687976
C153  C     C_2   0.153892 0.362768 0.458392 0.644932
C154  C     C_2   0.387064 0.171333 0.541554 0.586780
C155  C     C_2   0.611713 0.828042 0.458430 0.569084
C156  C     C_2   0.149824 0.358201 0.541028 0.649061
C157  C     C_R   0.265745 0.320239 0.234128 -0.110427
C158  C     C_2   0.849761 0.640665 0.458928 0.527617
C159  C     C_2   0.110975 0.327519 0.041367 0.555661
C160  C     C_2   0.888178 0.672094 0.958639 0.572266
C161  C     C_2   0.363355 0.153880 0.040778 0.687982
C162  C     C_2   0.653881 0.862756 0.958392 0.644915
C163  C     C_2   0.887019 0.671308 0.041554 0.586616
C164  C     C_2   0.111785 0.328086 0.958431 0.569216
C165  C     C_2   0.649814 0.858189 0.041028 0.649058
C166  C     C_2   0.349769 0.140674 0.958928 0.527590
C167  C     C_R   0.320562 0.265950 0.234449 -0.154373
C168  C     C_R   0.679713 0.734667 0.766806 -0.115328
C169  C     C_R   0.203204 0.742639 0.283129 -0.156116
C170  C     C_R   0.796311 0.257761 0.716723 -0.095062
C171  C     C_R   0.762152 0.816074 0.271512 -0.157734
C172  C     C_R   0.907654 0.597603 0.520378 -0.103321
C173  C     C_R   0.239474 0.185316 0.727531 -0.107922
C174  C     C_R   0.796283 0.259319 0.283127 -0.154530
C175  C     C_R   0.204284 0.740513 0.716571 -0.096201
C176  C     C_R   0.758731 0.295295 0.216373 -0.098133
C177  C     C_R   0.240570 0.705903 0.783845 -0.127257
C178  C     C_R   0.685608 0.740567 0.227127 -0.097537
C179  C     C_R   0.316477 0.261243 0.771436 -0.115770
C180  C     C_R   0.242257 0.702613 0.217181 -0.089946
C181  C     C_R   0.757540 0.297478 0.782776 -0.151703
C182  C     C_R   0.234117 0.179923 0.266645 -0.104225
C183  C     C_R   0.100288 0.409539 0.479324 -0.084999
C184  C     C_R   0.765745 0.820239 0.734129 -0.110426
C185  C     C_R   0.820562 0.765950 0.734449 -0.154373
C186  C     C_R   0.179713 0.234667 0.266806 -0.115328
C187  C     C_R   0.703204 0.242639 0.783129 -0.156115
C188  C     C_R   0.296311 0.757761 0.216723 -0.095062
C189  C     C_R   0.262152 0.316074 0.771512 -0.157736
C190  C     C_R   0.739475 0.685316 0.227531 -0.107925
C191  C     C_R   0.296283 0.759319 0.783127 -0.154530
C192  C     C_R   0.704284 0.240513 0.216571 -0.096202
C193  C     C_R   0.304096 0.804009 0.749667 -0.083875
C194  C     C_R   0.421143 0.109186 0.520506 -0.070302
C195  C     C_R   0.695928 0.196197 0.250251 -0.082604
C196  C     C_R   0.196684 0.304564 0.749873 -0.072470
C197  C     C_R   0.804016 0.695979 0.249971 -0.074217
C198  C     C_R   0.696109 0.195883 0.750249 -0.085423
C199  C     C_R   0.303785 0.804169 0.249702 -0.085427
C200  C     C_R   0.803826 0.695963 0.750167 -0.071061
C201  C     C_R   0.195887 0.303933 0.250158 -0.072006
C202  C     C_R   0.303826 0.195963 0.250167 -0.071061
C203  C     C_R   0.695888 0.803933 0.750158 -0.072005
C204  C     C_R   0.196109 0.695883 0.250249 -0.085423
C205  C     C_R   0.578047 0.890410 0.479490 -0.060948
C206  C     C_R   0.803785 0.304169 0.749702 -0.085427
C207  C     C_R   0.696684 0.804564 0.249873 -0.072469
C208  C     C_R   0.304016 0.195979 0.749971 -0.074215
C209  C     C_R   0.804095 0.304009 0.249667 -0.083875
C210  C     C_R   0.195928 0.696197 0.750251 -0.082604
C211  C     C_R   0.457683 0.050812 0.581940 0.477535
C212  C     C_R   0.541937 0.949062 0.418077 0.485628
C213  C     C_R   0.051527 0.458111 0.581867 0.468643
C214  C     C_R   0.954018 0.547365 0.417917 0.506355
C215  C     C_R   0.541604 0.948758 0.581877 0.475113
C216  C     C_R   0.099694 0.408817 0.520250 -0.085253
C217  C     C_R   0.458029 0.051122 0.418104 0.508873
C218  C     C_R   0.950258 0.543024 0.581703 0.513770
C219  C     C_R   0.047229 0.453729 0.417841 0.496695
C220  C     C_R   0.957669 0.550801 0.081940 0.477517
C221  C     C_R   0.041950 0.449072 0.918076 0.485624
C222  C     C_R   0.551524 0.958108 0.081867 0.468641
C223  C     C_R   0.454020 0.047367 0.917917 0.506355
C224  C     C_R   0.041618 0.448769 0.081877 0.475094
C225  C     C_R   0.958018 0.551112 0.918104 0.508883
C226  C     C_R   0.450260 0.043027 0.081702 0.513768
C227  C     C_R   0.904570 0.594815 0.479563 -0.102102
C228  C     C_R   0.547227 0.953726 0.917841 0.496697
C229  C     C_R   0.499743 0.999842 0.601861 -0.288743
C230  C     C_R   0.500022 0.000115 0.398138 -0.272577
C231  C     C_R   0.000340 0.500121 0.601765 -0.288119
C232  C     C_R   0.000235 0.500200 0.398033 -0.260255
C233  C     C_R   0.999743 0.499842 0.101861 -0.288731
C234  C     C_R   0.000022 0.500115 0.898138 -0.272580
C235  C     C_R   0.500340 0.000121 0.101765 -0.288116
C236  C     C_R   0.500235 0.000200 0.898033 -0.260259
C237  C     C_R   0.539907 0.945641 0.540998 -0.084932
C238  C     C_R   0.077844 0.390245 0.020400 -0.056145
C239  C     C_R   0.459536 0.054133 0.458992 -0.083083
C240  C     C_R   0.953437 0.548445 0.540936 -0.049436
C241  C     C_R   0.050805 0.455008 0.458738 -0.085443
C242  C     C_R   0.459204 0.053866 0.541057 -0.082554
C243  C     C_R   0.540188 0.945873 0.458948 -0.083029
C244  C     C_R   0.051223 0.455289 0.540925 -0.084077
C245  C     C_R   0.952354 0.547733 0.458849 -0.059910
C246  C     C_R   0.039922 0.445651 0.040999 -0.084920
C247  C     C_R   0.959520 0.554121 0.958992 -0.083082
C248  C     C_R   0.453440 0.048447 0.040936 -0.049437
F1    F     F_    0.100707 0.685763 0.682611 -0.666469
F2    F     F_    0.768182 0.556570 0.785695 -0.664437
F3    F     F_    0.306935 0.905638 0.314268 -0.631777
F4    F     F_    0.693216 0.094064 0.685569 -0.683814
F5    F     F_    0.934839 0.720957 0.295665 -0.660589
F6    F     F_    0.068460 0.281996 0.701931 -0.682790
F7    F     F_    0.682859 0.107248 0.320085 -0.663011
F8    F     F_    0.310060 0.900549 0.682886 -0.686740
F9    F     F_    0.600706 0.185763 0.182611 -0.666468
F10   F     F_    0.406533 0.806136 0.813816 -0.630461
F11   F     F_    0.778492 0.566770 0.203286 -0.674374
F12   F     F_    0.906533 0.306136 0.313816 -0.630462
F13   F     F_    0.224994 0.436267 0.793847 -0.634680
F14   F     F_    0.397754 0.813531 0.181654 -0.691607
F15   F     F_    0.599858 0.188685 0.816941 -0.632004
F16   F     F_    0.059044 0.271770 0.289163 -0.656672
F17   F     F_    0.942637 0.730817 0.713448 -0.630384
F18   F     F_    0.730429 0.942274 0.713342 -0.669552
F19   F     F_    0.268183 0.056570 0.285695 -0.664439
F20   F     F_    0.806935 0.405639 0.814268 -0.631775
F21   F     F_    0.193216 0.594065 0.185569 -0.683811
F22   F     F_    0.434839 0.220957 0.795665 -0.660588
F23   F     F_    0.278491 0.066769 0.703287 -0.674380
F24   F     F_    0.568460 0.781996 0.201931 -0.682789
F25   F     F_    0.182860 0.607248 0.820085 -0.663009
F26   F     F_    0.810060 0.400549 0.182886 -0.686737
F27   F     F_    0.413279 0.095035 0.603124 -0.639895
F28   F     F_    0.586496 0.904928 0.396931 -0.633196
F29   F     F_    0.100356 0.419402 0.603289 -0.656038
F30   F     F_    0.913859 0.594970 0.396475 -0.627288
F31   F     F_    0.586244 0.904678 0.602981 -0.642644
F32   F     F_    0.413467 0.095225 0.396970 -0.630469
F33   F     F_    0.898174 0.578414 0.602598 -0.625633
F34   F     F_    0.724995 0.936267 0.293847 -0.634683
F35   F     F_    0.086531 0.405407 0.396372 -0.638737
F36   F     F_    0.913251 0.595009 0.103125 -0.639910
F37   F     F_    0.086513 0.404944 0.896929 -0.633200
F38   F     F_    0.600352 0.919396 0.103289 -0.656040
F39   F     F_    0.413863 0.094974 0.896475 -0.627287
F40   F     F_    0.086271 0.404703 0.102981 -0.642656
F41   F     F_    0.913450 0.595209 0.896969 -0.630467
F42   F     F_    0.398178 0.078420 0.102598 -0.625637
F43   F     F_    0.586527 0.905403 0.896372 -0.638736
F44   F     F_    0.897754 0.313531 0.681654 -0.691608
F45   F     F_    0.099858 0.688685 0.316941 -0.632004
F46   F     F_    0.559045 0.771770 0.789163 -0.656671
F47   F     F_    0.442637 0.230817 0.213448 -0.630383
F48   F     F_    0.230429 0.442274 0.213341 -0.669549
H1    H     H_    0.218947 0.589529 0.887254 0.177776
H2    H     H_    0.989289 0.909282 0.666909 0.105405
H3    H     H_    0.420190 0.773437 0.115223 0.091497
H4    H     H_    0.641769 0.287360 0.913232 0.046118
H5    H     H_    0.682082 0.495515 0.166448 0.095347
H6    H     H_    0.411319 0.486218 0.833787 0.116825
H7    H     H_    0.571122 0.234190 0.117439 0.131177
H8    H     H_    0.393286 0.687949 0.902552 0.116289
H9    H     H_    0.718947 0.089529 0.387254 0.177770
H10   H     H_    0.286330 0.906184 0.611882 0.107616
H11   H     H_    0.013535 0.818601 0.324353 0.133584
H12   H     H_    0.786330 0.406184 0.111882 0.107625
H13   H     H_    0.013226 0.209724 0.650055 0.093961
H14   H     H_    0.183206 0.899172 0.400916 0.065345
H15   H     H_    0.720166 0.082725 0.614535 0.106602
H16   H     H_    0.325301 0.517089 0.181200 0.147797
H17   H     H_    0.676493 0.484926 0.822014 0.128473
H18   H     H_    0.475503 0.669485 0.809494 0.091245
H19   H     H_    0.489288 0.409281 0.166907 0.105406
H20   H     H_    0.920190 0.273437 0.615223 0.091497
H21   H     H_    0.141770 0.787359 0.413232 0.046115
H22   H     H_    0.182080 0.995514 0.666450 0.095348
H23   H     H_    0.513535 0.318602 0.824353 0.133582
H24   H     H_    0.911320 0.986217 0.333787 0.116827
H25   H     H_    0.071122 0.734190 0.617439 0.131173
H26   H     H_    0.893285 0.187950 0.402552 0.116286
H27   H     H_    0.577149 0.794127 0.560245 0.076022
H28   H     H_    0.421930 0.205506 0.439723 0.075229
H29   H     H_    0.805063 0.658212 0.535157 0.050809
H30   H     H_    0.191387 0.387023 0.437667 0.101270
H31   H     H_    0.420536 0.205901 0.560043 0.075576
H32   H     H_    0.578074 0.793938 0.439781 0.073453
H33   H     H_    0.127829 0.318331 0.561181 0.115755
H34   H     H_    0.513227 0.709724 0.150055 0.093961
H35   H     H_    0.810924 0.615361 0.439208 0.112801
H36   H     H_    0.077208 0.294158 0.060252 0.076086
H37   H     H_    0.921862 0.705497 0.939733 0.075167
H38   H     H_    0.305073 0.158224 0.035157 0.050788
H39   H     H_    0.691380 0.887008 0.937668 0.101264
H40   H     H_    0.920484 0.705869 0.060053 0.075639
H41   H     H_    0.078160 0.293948 0.939793 0.073384
H42   H     H_    0.627815 0.818322 0.061182 0.115756
H43   H     H_    0.310931 0.115372 0.939208 0.112791
H44   H     H_    0.683205 0.399173 0.900916 0.065348
H45   H     H_    0.220166 0.582726 0.114534 0.106611
H46   H     H_    0.825303 0.017090 0.681202 0.147795
H47   H     H_    0.176494 0.984927 0.322015 0.128473
H48   H     H_    0.975503 0.169485 0.309494 0.091245
O1    O     O_3   0.000000 0.500000 0.750000 -0.563033
O2    O     O_R   0.060740 0.500000 0.337440 -0.597501
O3    O     O_2   0.348541 0.206847 0.963361 -0.464776
O4    O     O_R   0.500000 0.939260 0.662560 -0.595583
O5    O     O_R   0.500000 0.060740 0.337440 -0.597750
O6    O     O_R   0.560740 0.000000 0.162560 -0.578926
O7    O     O_R   0.439260 0.000000 0.837440 -0.593666
O8    O     O_R   1.000000 0.560740 0.162560 -0.593669
O9    O     O_R   1.000000 0.439260 0.837440 -0.585357
O10   O     O_R   0.439260 0.000000 0.162560 -0.587848
O11   O     O_R   0.560740 0.000000 0.837440 -0.597503
O12   O     O_R   1.000000 0.439260 0.162560 -0.595599
O13   O     O_3   0.000000 0.500000 0.250000 -0.558196
O14   O     O_R   0.000000 0.560740 0.837440 -0.597758
O15   O     O_R   0.853850 0.585450 0.727070 -0.598053
O16   O     O_R   0.146150 0.414550 0.272930 -0.598031
O17   O     O_R   0.414550 0.853850 0.727070 -0.603196
O18   O     O_R   0.585450 0.146150 0.272930 -0.583979
O19   O     O_R   0.146150 0.414550 0.727070 -0.601994
O20   O     O_R   0.853850 0.585450 0.272930 -0.602970
O21   O     O_R   0.585450 0.146150 0.727070 -0.612840
O22   O     O_R   0.414550 0.853850 0.272930 -0.608211
O23   O     O_R   0.853850 0.414550 0.272930 -0.606730
O24   O     O_3   0.500000 0.000000 0.750000 -0.558198
O25   O     O_R   0.146150 0.585450 0.727070 -0.611193
O26   O     O_R   0.414550 0.146150 0.272930 -0.599276
O27   O     O_R   0.585450 0.853850 0.727070 -0.606807
O28   O     O_R   0.146150 0.585450 0.272930 -0.593745
O29   O     O_R   0.853850 0.414550 0.727070 -0.591244
O30   O     O_R   0.585450 0.853850 0.272930 -0.606343
O31   O     O_R   0.414550 0.146150 0.727070 -0.607149
O32   O     O_R   0.353850 0.085450 0.227070 -0.598055
O33   O     O_R   0.646150 0.914550 0.772930 -0.598031
O34   O     O_R   0.914550 0.353850 0.227070 -0.603199
O35   O     O_3   0.500000 0.000000 0.250000 -0.563033
O36   O     O_R   0.085450 0.646150 0.772930 -0.583980
O37   O     O_R   0.646150 0.914550 0.227070 -0.601996
O38   O     O_R   0.353850 0.085450 0.772930 -0.602972
O39   O     O_R   0.085450 0.646150 0.227070 -0.612843
O40   O     O_R   0.914550 0.353850 0.772930 -0.608212
O41   O     O_R   0.353850 0.914550 0.772930 -0.606730
O42   O     O_R   0.646150 0.085450 0.227070 -0.611194
O43   O     O_R   0.914550 0.646150 0.772930 -0.599279
O44   O     O_R   0.085450 0.353850 0.227070 -0.606811
O45   O     O_R   0.646150 0.085450 0.772930 -0.593746
O46   O     O_R   0.060740 0.500000 0.662560 -0.578924
O47   O     O_R   0.353850 0.914550 0.227070 -0.591245
O48   O     O_R   0.085450 0.353850 0.772930 -0.606345
O49   O     O_R   0.914550 0.646150 0.227070 -0.607154
O50   O     O_2   0.264858 0.665524 0.920113 -0.570089
O51   O     O_2   0.682944 0.396781 0.095027 -0.478918
O52   O     O_2   0.468120 0.379220 0.865519 -0.527395
O53   O     O_2   0.515478 0.601676 0.151028 -0.494117
O54   O     O_2   0.787183 0.417921 0.888248 -0.467726
O55   O     O_2   0.325429 0.589940 0.100799 -0.482776
O56   O     O_2   0.927069 0.013189 0.701014 -0.552102
O57   O     O_R   0.939260 0.500000 0.337440 -0.593663
O58   O     O_2   0.071934 0.991520 0.307105 -0.600603
O59   O     O_2   0.017572 0.102979 0.349048 -0.537456
O60   O     O_2   0.035688 0.838331 0.702648 -0.530599
O61   O     O_2   0.343495 0.730167 0.081746 -0.512889
O62   O     O_2   0.569245 0.227384 0.885175 -0.442669
O63   O     O_2   0.640801 0.551872 0.122351 -0.470926
O64   O     O_2   0.306010 0.502843 0.843793 -0.511167
O65   O     O_2   0.653854 0.256176 0.082046 -0.519902
O66   O     O_2   0.419851 0.789162 0.887888 -0.478629
O67   O     O_2   0.764857 0.165524 0.420113 -0.570094
O68   O     O_R   0.500000 0.060740 0.662560 -0.593652
O69   O     O_2   0.182944 0.896781 0.595027 -0.478922
O70   O     O_2   0.968120 0.879219 0.365519 -0.527401
O71   O     O_2   0.015477 0.101675 0.651029 -0.494119
O72   O     O_2   0.287184 0.917920 0.388248 -0.467741
O73   O     O_2   0.825430 0.089939 0.600800 -0.482782
O74   O     O_2   0.427068 0.513188 0.201012 -0.552101
O75   O     O_2   0.571934 0.491519 0.807104 -0.600604
O76   O     O_2   0.517571 0.602978 0.849047 -0.537453
O77   O     O_2   0.535688 0.338331 0.202647 -0.530598
O78   O     O_2   0.843495 0.230166 0.581746 -0.512890
O79   O     O_R   0.500000 0.939260 0.337440 -0.585352
O80   O     O_2   0.069246 0.727383 0.385175 -0.442674
O81   O     O_2   0.140800 0.051870 0.622352 -0.470933
O82   O     O_2   0.806010 0.002844 0.343793 -0.511174
O83   O     O_2   0.153854 0.756176 0.582046 -0.519904
O84   O     O_2   0.919851 0.289163 0.387888 -0.478632
O85   O     O_2   0.676265 0.814600 0.538863 -0.461535
O86   O     O_2   0.322913 0.185019 0.461220 -0.433004
O87   O     O_2   0.892634 0.698109 0.562350 -0.467111
O88   O     O_2   0.155734 0.296911 0.463866 -0.476423
O89   O     O_2   0.321315 0.182333 0.539560 -0.435653
O90   O     O_R   0.939260 0.500000 0.662560 -0.587844
O91   O     O_2   0.677327 0.816351 0.460581 -0.440130
O92   O     O_2   0.215888 0.361306 0.535944 -0.521999
O93   O     O_2   0.848528 0.706838 0.463361 -0.464776
O94   O     O_2   0.176310 0.314630 0.038854 -0.461577
O95   O     O_2   0.822841 0.684936 0.961209 -0.432949
O96   O     O_2   0.392646 0.198115 0.062350 -0.467112
O97   O     O_2   0.655717 0.796899 0.963865 -0.476421
O98   O     O_2   0.821266 0.682310 0.039549 -0.435650
O99   O     O_2   0.177411 0.316449 0.960571 -0.440051
O100  O     O_2   0.715878 0.861288 0.035943 -0.522021
Zn1   Zn    Zn3+2 0.000000 0.586740 0.782740 1.173393
Zn2   Zn    Zn3+2 0.500000 0.913260 0.717260 1.153756
Zn3   Zn    Zn3+2 0.913260 0.500000 0.282740 1.171908
Zn4   Zn    Zn3+2 0.086740 0.500000 0.717260 1.160733
Zn5   Zn    Zn3+2 0.500000 0.913260 0.282740 1.165777
Zn6   Zn    Zn3+2 0.500000 0.086740 0.717260 1.151273
Zn7   Zn    Zn3+2 0.086740 0.500000 0.282740 1.174442
Zn8   Zn    Zn3+2 0.913260 0.500000 0.717260 1.165525
Zn9   Zn    Zn3+2 1.000000 0.413260 0.217260 1.153750
Zn10  Zn    Zn3+2 0.413260 0.000000 0.782740 1.171904
Zn11  Zn    Zn3+2 0.586740 0.000000 0.217260 1.160731
Zn12  Zn    Zn3+2 1.000000 0.413260 0.782740 1.165775
Zn13  Zn    Zn3+2 0.000000 0.586740 0.217260 1.151266
Zn14  Zn    Zn3+2 0.586740 0.000000 0.782740 1.174438
Zn15  Zn    Zn3+2 0.413260 0.000000 0.217260 1.165521
Zn16  Zn    Zn3+2 0.500000 0.086740 0.282740 1.173396

loop_
_geom_bond_atom_site_label_1
_geom_bond_atom_site_label_2
_ccdc_geom_bond_type
C225  C247  A    
C33   C208  S    
C177  C191  A    
C130  H7    S    
O9    Zn12  S    
C218  C240  A    
C132  H9    S    
C181  C187  A    
O8    Zn13  S    
C218  F33   S    
O23   Zn3   S    
C128  O63   D    
O35   Zn16  S    
C19   O17   A    
C87   C130  S    
C134  O70   D    
O33   Zn14  S    
C63   C98   A    
C135  C199  A    
C58   F15   S    
C117  O52   D    
C59   C186  A    
C228  F43   S    
C39   C74   A    
O46   Zn4   S    
C50   F7    S    
C127  H4    S    
C104  C116  S    
O27   Zn2   S    
C50   C90   A    
C90   C195  A    
C111  C248  A    
C156  C216  S    
C162  O97   D    
C91   C100  A    
C106  C243  A    
O41   Zn10  S    
C36   C71   A    
C122  O58   D    
O57   Zn3   S    
C142  H19   S    
C51   F8    S    
C9    O57   A    
C40   C169  A    
O4    Zn2   S    
C138  O73   D    
C59   F16   S    
C129  H6    S    
C192  C195  A    
C38   C171  A    
C150  O85   D    
C119  O54   D    
C26   O34   A    
C94   C97   A    
C180  C204  A    
C123  H48   S    
O1    Zn8   S    
C35   C163  S    
C219  C241  A    
C224  C233  A    
O40   Zn12  S    
C25   C199  S    
C79   C175  A    
C7    C223  A    
C163  H40   S    
C60   F17   S    
C15   O12   A    
C164  O99   D    
C112  C151  S    
C1    C150  S    
C220  F36   S    
C30   O28   A    
C221  F37   S    
C154  H31   S    
C72   C84   A    
C141  O76   D    
C106  C239  A    
C67   C177  A    
C16   O9    A    
C70   C148  S    
C42   C167  A    
C107  C240  A    
O45   Zn14  S    
C53   F10   S    
C152  O87   D    
C45   C81   A    
C155  C205  S    
C29   O33   A    
C91   C129  S    
C5    C46   A    
C90   C174  A    
C160  O95   D    
C12   O10   A    
C164  H41   S    
C115  H1    S    
C116  O51   D    
C222  F38   S    
C41   C76   A    
C125  H2    S    
C189  C196  A    
C12   O6    A    
C128  H5    S    
O7    Zn10  S    
C140  H17   S    
O44   Zn9   S    
C18   C201  S    
C21   C196  S    
C146  C200  A    
C23   O21   A    
C145  O81   D    
C60   C95   A    
C13   C248  A    
C82   C138  S    
C10   O68   A    
C105  C237  A    
C100  C117  S    
C48   F5    S    
C3    C228  A    
C73   C83   A    
O13   Zn7   S    
C190  C197  A    
C6    C222  A    
C68   C166  S    
C110  C247  A    
C74   C143  S    
C63   C181  A    
C6    C111  A    
C22   C197  S    
C101  C173  A    
O24   Zn14  S    
C78   C139  S    
C119  H44   S    
C61   C96   A    
C67   C103  A    
C159  H36   S    
C28   O26   A    
C25   O22   A    
C225  C234  A    
C55   C189  A    
C49   C84   A    
C16   O14   A    
C33   O31   A    
C152  C172  S    
C172  C227  A    
C150  H27   S    
C175  C210  A    
C5    C110  A    
C72   C145  S    
C149  O84   D    
C184  C185  A    
C167  C202  A    
O5    Zn16  S    
C137  H14   S    
O28   Zn7   S    
C64   C99   A    
O2    Zn7   S    
C32   O30   A    
C24   C57   A    
O19   Zn4   S    
C107  C108  A    
O20   Zn3   S    
C215  C237  A    
C34   F1    S    
C143  H20   S    
C213  C231  A    
C101  C196  A    
O12   Zn9   S    
C112  C239  A    
C17   O15   A    
O34   Zn9   S    
C211  C242  A    
C3    C24   A    
C22   O20   A    
O24   Zn10  S    
O36   Zn1   S    
C130  O65   D    
C159  O94   D    
C45   C135  A    
C139  H16   S    
C187  C198  A    
C219  C232  A    
C8    O90   A    
C220  C233  A    
O21   Zn6   S    
C64   F21   S    
C7    C68   A    
O47   Zn15  S    
C126  H3    S    
C1    C237  A    
O24   Zn2   S    
C177  C210  A    
C19   O41   A    
C217  C230  A    
C17   O43   A    
C62   C97   A    
C18   O44   A    
C179  C189  A    
C14   O11   A    
C140  O75   D    
C65   F22   S    
O39   Zn13  S    
C153  O88   D    
C112  C194  A    
C144  O80   D    
C172  C240  A    
C224  C246  A    
C225  F41   S    
O11   Zn14  S    
C149  H26   S    
C126  O61   D    
C157  C201  A    
C171  C207  A    
C148  H25   S    
C132  O67   D    
O1    Zn12  S    
C217  C239  A    
C31   O29   A    
C61   C184  A    
C54   C190  A    
C58   C187  A    
C166  O3    D    
C213  C244  A    
C76   C80   A    
C43   C157  A    
C3    C114  A    
C109  C246  A    
C226  C248  A    
C162  H39   S    
C21   O48   A    
C79   C193  A    
C48   C83   A    
O35   Zn15  S    
C147  H24   S    
O31   Zn6   S    
C11   O5    A    
C181  C206  A    
C127  O62   D    
O29   Zn8   S    
C45   F3    S    
C169  C204  A    
C11   O79   A    
C49   F6    S    
C31   O40   A    
O16   Zn7   S    
C173  C208  A    
C36   F12   S    
C51   C79   A    
C133  H10   S    
O48   Zn12  S    
C223  C236  A    
C23   O45   A    
C212  F28   S    
O37   Zn11  S    
C42   C77   A    
C2    C160  S    
O32   Zn15  S    
C37   F23   S    
C88   C131  S    
C205  C243  A    
C158  C227  S    
C92   C99   A    
C13   C68   A    
C136  H13   S    
C216  C244  A    
C12   C235  S    
C36   C174  A    
C60   C185  A    
C174  C209  A    
O79   Zn5   S    
C115  O50   D    
C4    C109  A    
C214  C232  A    
C121  H46   S    
C157  C167  A    
C18   O16   A    
C77   C78   A    
C43   C78   A    
C81   C137  S    
C158  H35   S    
C23   C198  S    
C21   O19   A    
C73   C147  S    
C9    C232  S    
C7    C114  A    
O35   Zn11  S    
C58   C93   A    
C123  O59   D    
C170  C206  A    
C212  C243  A    
C49   C101  A    
C178  C190  A    
C8    C231  S    
C57   C165  S    
C41   C168  A    
C124  C198  A    
C176  C209  A    
C182  C186  A    
C33   O38   A    
C83   C134  S    
C55   C91   A    
C34   C175  A    
C180  C188  A    
C50   C85   A    
C120  H45   S    
C139  O74   D    
C155  H32   S    
C20   O42   A    
C4    C220  A    
C125  O60   D    
C9    O2    A    
C59   C94   A    
C63   F20   S    
C34   C70   A    
C20   C195  S    
C76   C141  S    
C116  H12   S    
C4    C35   A    
C184  C203  A    
C55   F13   S    
C43   F48   S    
C142  O77   D    
C54   F11   S    
C156  O92   D    
C6    C57   A    
C74   C82   A    
C25   O47   A    
C51   C86   A    
O43   Zn1   S    
C161  H38   S    
C213  F29   S    
C222  C235  A    
O10   Zn15  S    
C44   C80   A    
C65   C179  A    
C160  H37   S    
C80   C140  S    
O90   Zn8   S    
C108  C245  A    
C27   C210  S    
C186  C201  A    
C56   F14   S    
C191  C193  A    
C227  C245  A    
C86   C133  S    
C16   C234  S    
C178  C207  A    
C238  C246  A    
C22   O49   A    
C53   C191  A    
O24   Zn6   S    
C96   C121  S    
C44   F2    S    
O26   Zn16  S    
C107  C244  A    
O15   Zn8   S    
C105  C242  A    
C30   C204  S    
C183  C216  A    
O25   Zn4   S    
C146  C168  A    
C179  C208  A    
C84   C136  S    
C141  H18   S    
C211  C229  A    
C39   F44   S    
C182  C202  A    
C136  O71   D    
C65   C100  A    
O13   Zn3   S    
C92   C126  S    
C168  C203  A    
C145  H22   S    
C117  H23   S    
C105  C106  A    
C40   C75   A    
C28   C202  S    
O13   Zn13  S    
C109  C110  A    
C47   C124  A    
C71   C149  S    
O49   Zn13  S    
C52   F9    S    
C26   O23   A    
O1    Zn4   S    
C111  C114  A    
C20   O18   A    
C135  C169  A    
C61   F18   S    
C75   C144  S    
C38   F34   S    
C8    O46   A    
C87   C104  A    
C42   F47   S    
C129  O64   D    
C28   O32   A    
C37   C72   A    
C15   O8    A    
C48   C113  A    
C89   C128  S    
C5    C221  A    
C143  O78   D    
C219  F35   S    
C29   C203  S    
C89   C102  A    
C66   C102  A    
C103  C115  S    
C95   C96   A    
C2    C247  A    
C108  C241  A    
C14   C236  S    
C98   C119  S    
C113  C171  A    
C69   F26   S    
C66   C178  A    
C211  F27   S    
C27   O25   A    
C39   C170  A    
C85   C132  S    
C64   C180  A    
O13   Zn9   S    
C176  C192  A    
C62   C182  A    
C14   O7    A    
O14   Zn1   S    
C17   C200  S    
O6    Zn11  S    
C52   C192  A    
C47   C82   A    
O30   Zn5   S    
C30   O39   A    
C153  H30   S    
C137  O72   D    
C99   C120  S    
C77   C142  S    
C159  C238  S    
C131  O66   D    
C153  C183  S    
C44   C146  A    
C27   O36   A    
C69   C176  A    
C166  H43   S    
C214  C245  A    
C1    C205  A    
C102  C118  S    
C41   F46   S    
O38   Zn10  S    
C161  O96   D    
C32   O37   A    
C71   C85   A    
C40   F45   S    
C138  H15   S    
C133  O69   D    
C217  F32   S    
C165  H42   S    
C158  O93   D    
C148  O83   D    
C56   C188  A    
C131  H8    S    
C122  H47   S    
C54   C89   A    
C144  H21   S    
C154  O89   D    
C2    C35   A    
C75   C81   A    
C188  C199  A    
O18   Zn16  S    
C10   C229  S    
C226  C235  A    
C67   F25   S    
O68   Zn6   S    
C93   C127  S    
C97   C122  S    
C62   F19   S    
C215  F31   S    
C212  C230  A    
C95   C125  S    
C118  O53   D    
C15   C233  S    
O22   Zn5   S    
C134  H11   S    
C32   C207  S    
C221  C234  A    
C47   F4    S    
C118  H34   S    
C53   C88   A    
C163  O98   D    
C223  F39   S    
C156  H33   S    
C224  F40   S    
C152  H29   S    
C19   C193  S    
C11   C230  S    
C214  F30   S    
O42   Zn11  S    
C70   C86   A    
C88   C103  A    
C69   C104  A    
C31   C206  S    
O1    Zn1   S    
C194  C242  A    
C215  C229  A    
O17   Zn2   S    
C52   C87   A    
C24   C162  S    
C151  H28   S    
C13   C161  S    
C183  C241  A    
C147  O82   D    
C29   O27   A    
C10   O4    A    
C151  O86   D    
C121  O56   D    
C120  O55   D    
C226  F42   S    
C155  O91   D    
C26   C209  S    
C46   C238  A    
C185  C200  A    
C218  C231  A    
C228  C236  A    
C165  O100  D    
C66   F24   S    
C37   C173  A    
C154  C194  S    
C56   C92   A    
C124  C170  A    
C113  C197  A    
O35   Zn5   S    
C46   C164  S    
C94   C123  S    
C93   C98   A    
C38   C73   A    
