data_mof_unit_20584.cif
_audit_creation_date              2012-12-10T16:49:21-0500
_audit_creation_method            fapswitch 2.2
_symmetry_space_group_name_H-M    P1
_symmetry_Int_Tables_number       1
_space_group_crystal_system       triclinic
_cell_length_a                    7.749401
_cell_length_b                    8.555243
_cell_length_c                    12.85767
_cell_angle_alpha                 90.046202
_cell_angle_beta                  88.114075
_cell_angle_gamma                 93.600615
_cell_volume                      850.293743975

loop_
_atom_site_label
_atom_site_type_symbol
_atom_type_description
_atom_site_fract_x
_atom_site_fract_y
_atom_site_fract_z
_atom_type_partial_charge
C1    C     C_R   0.454654 0.205216 0.497199 0.931823
C2    C     C_R   0.719500 0.512598 0.137763 0.439220
C3    C     C_R   0.601507 0.575754 0.867007 0.309380
C4    C     C_R   0.417235 0.579945 0.131909 0.315496
C5    C     C_R   0.590263 0.565021 0.974360 -0.037175
C6    C     C_R   0.427037 0.567346 0.024894 -0.037794
C7    C     C_2   0.430672 0.041743 0.495743 -0.360569
C8    C     C_2   0.569544 0.958315 0.503460 -0.364389
C9    C     C_3   0.910818 0.321781 0.164680 0.098125
C10   C     C_3   0.832163 0.200788 0.243404 -0.363331
C11   C     C_3   0.889629 0.036938 0.218940 -0.867519
C12   C     C_R   0.545432 0.794818 0.502490 0.966964
C13   C     C_3   0.075436 0.320773 0.837494 0.105339
C14   C     C_3   0.172715 0.195780 0.778086 -0.447948
C15   C     C_3   0.093235 0.031402 0.801840 -0.807853
C16   C     C_R   0.467795 0.511345 0.699801 0.932362
C17   C     C_R   0.535433 0.508116 0.300154 0.921269
C18   C     C_R   0.559121 0.535025 0.189124 -0.273763
C19   C     C_R   0.451443 0.536506 0.810688 -0.275957
C20   C     C_R   0.276656 0.548796 0.968105 -0.241196
C21   C     C_R   0.737115 0.544510 0.031712 -0.242486
C22   C     C_R   0.288563 0.515814 0.862502 0.447838
Cl1   Cl    Cl    0.233865 0.667609 0.188648 -0.604477
Cl2   Cl    Cl    0.798985 0.653153 0.807335 -0.595910
H1    H     H_    0.150701 0.543319 0.006644 0.198181
H2    H     H_    0.688706 0.198508 0.241961 0.211209
H3    H     H_    0.847803 0.999451 0.140436 0.272328
H4    H     H_    0.830166 0.952482 0.277327 0.269235
H5    H     H_    0.032621 0.035182 0.221911 0.279693
H6    H     H_    0.937321 0.309038 0.816431 0.188918
H7    H     H_    0.077191 0.299168 0.922873 0.097239
H8    H     H_    0.168342 0.217557 0.693111 0.237028
H9    H     H_    0.310336 0.202167 0.800299 0.209466
H10   H     H_    0.098379 0.005807 0.886355 0.270327
H11   H     H_    0.166787 0.943866 0.758100 0.281224
H12   H     H_    0.862234 0.536858 0.993448 0.198090
H13   H     H_    0.956522 0.020438 0.777961 0.276788
H14   H     H_    0.998475 0.615402 0.421396 0.231922
H15   H     H_    0.001425 0.384524 0.578527 0.202314
H16   H     H_    0.299464 0.990616 0.488620 0.188911
H17   H     H_    0.700772 0.009459 0.510495 0.181173
H18   H     H_    0.054078 0.322428 0.167080 0.183900
H19   H     H_    0.876165 0.285300 0.084292 0.093832
H20   H     H_    0.872847 0.234329 0.322910 0.250549
N1    N     N_2   0.054030 0.541640 0.471970 -0.145675
N2    N     N_2   0.945970 0.458360 0.528030 -0.158134
O1    O     O_R   0.609680 0.261530 0.506880 -0.629335
O2    O     O_3   0.140656 0.473747 0.808678 -0.570008
O3    O     O_R   0.390320 0.738470 0.493120 -0.606753
O4    O     O_R   0.323330 0.288220 0.488910 -0.645264
O5    O     O_R   0.676670 0.711780 0.511090 -0.618043
O6    O     O_R   0.619510 0.488830 0.661140 -0.571873
O7    O     O_R   0.380490 0.511170 0.338860 -0.564731
O8    O     O_R   0.333160 0.515520 0.643180 -0.581145
O9    O     O_R   0.666840 0.484480 0.356820 -0.596348
O10   O     O_3   0.862235 0.473879 0.192320 -0.576105
Zn1   Zn    Zn3+2 0.691200 0.482180 0.511990 0.989516
Zn2   Zn    Zn3+2 0.308800 0.517820 0.488010 1.004121

loop_
_geom_bond_atom_site_label_1
_geom_bond_atom_site_label_2
_ccdc_geom_bond_type
C13   O2    S    
C22   O2    S    
C7    H16   S    
C3    C19   A    
C19   C22   A    
O5    Zn1   S    
O7    Zn2   S    
O1    Zn1   S    
C6    C20   A    
C1    O4    A    
C17   O9    A    
C15   H10   S    
H15   N2    S    
C11   H3    S    
C8    C12   S    
C4    C18   A    
C10   H2    S    
C2    C21   A    
C17   C18   S    
C3    Cl2   S    
C7    C8    D    
C9    O10   S    
C2    O10   S    
C13   C14   S    
C9    H18   S    
C11   H4    S    
C14   H9    S    
C16   C19   S    
C15   H11   S    
C20   C22   A    
C12   O3    A    
C10   C11   S    
O9    Zn1   S    
N2    Zn1   S    
O8    Zn2   S    
C5    C6    A    
C16   O8    A    
N1    Zn2   S    
C9    H19   S    
C2    C18   A    
C20   H1    S    
C10   H20   S    
O6    Zn1   S    
O4    Zn2   S    
C17   O7    A    
C13   H6    S    
C12   O5    A    
C5    C21   A    
C8    H17   S    
C11   H5    S    
C4    C6    A    
C9    C10   S    
C21   H12   S    
C4    Cl1   S    
C14   C15   S    
C15   H13   S    
H14   N1    S    
C1    C7    S    
N1    N2    D    
C13   H7    S    
C1    O1    A    
O3    Zn2   S    
C16   O6    A    
C14   H8    S    
C3    C5    A    
