data_mof_unit_10366.cif
_audit_creation_date              2012-12-10T19:44:41-0500
_audit_creation_method            fapswitch 2.2
_symmetry_space_group_name_H-M    P1
_symmetry_Int_Tables_number       1
_space_group_crystal_system       triclinic
_cell_length_a                    8.588577
_cell_length_b                    14.931592
_cell_length_c                    14.170782
_cell_angle_alpha                 89.404489
_cell_angle_beta                  98.628397
_cell_angle_gamma                 90.153239
_cell_volume                      1796.61119859

loop_
_atom_site_label
_atom_site_type_symbol
_atom_type_description
_atom_site_fract_x
_atom_site_fract_y
_atom_site_fract_z
_atom_type_partial_charge
C1    C     C_R   0.497571 0.327481 0.500387 0.937926
C2    C     C_R   0.364516 0.476953 0.882973 -0.280970
C3    C     C_R   0.500406 0.500042 0.053510 0.128873
C4    C     C_R   0.500319 0.500150 0.946811 0.145545
C5    C     C_R   0.201004 0.499973 0.475071 1.031809
C6    C     C_R   0.798986 0.500033 0.524923 0.952828
C7    C     C_2   0.035956 0.500058 0.461583 -0.311505
C8    C     C_2   0.964012 0.500043 0.538376 -0.334580
C9    C     C_R   0.451044 0.086601 0.566645 -0.221484
C10   C     C_R   0.444724 0.912526 0.424308 -0.239261
C11   C     C_R   0.428152 0.178603 0.564618 0.456831
C12   C     C_R   0.497576 0.672417 0.499150 0.931504
C13   C     C_R   0.421870 0.820497 0.423664 0.368372
C14   C     C_R   0.506429 0.231084 0.502455 -0.174697
C15   C     C_R   0.506292 0.768652 0.498281 -0.150657
C16   C     C_R   0.601052 0.190799 0.442368 -0.231766
C17   C     C_R   0.607250 0.809282 0.572573 -0.240976
C18   C     C_R   0.618898 0.098953 0.443495 -0.131644
C19   C     C_R   0.625354 0.901152 0.573404 -0.129976
C20   C     C_R   0.544344 0.047620 0.505875 0.040868
C21   C     C_R   0.544476 0.952026 0.499131 0.058909
C22   C     C_R   0.406918 0.439290 0.097435 -0.262038
C23   C     C_R   0.635942 0.523409 0.906947 -0.263029
C24   C     C_R   0.408240 0.440530 0.196787 0.041429
C25   C     C_R   0.633113 0.523142 0.807419 0.033616
C26   C     C_R   0.592282 0.559300 0.212370 0.093560
C27   C     C_R   0.366970 0.477198 0.783977 0.067001
C28   C     C_R   0.593868 0.560680 0.113256 -0.258745
H1    H     H_    0.974099 0.500167 0.388711 0.176510
H2    H     H_    0.744691 0.540523 0.952150 0.141140
H3    H     H_    0.336040 0.393500 0.229534 0.129305
H4    H     H_    0.738252 0.541325 0.778229 0.126564
H5    H     H_    0.664423 0.606268 0.257350 0.137717
H6    H     H_    0.261754 0.458696 0.736405 0.145643
H7    H     H_    0.666235 0.609938 0.083801 0.148344
H8    H     H_    0.255885 0.459795 0.908889 0.140004
H9    H     H_    0.320297 0.278907 0.777820 0.371594
H10   H     H_    0.441772 0.770728 0.230735 0.341384
H11   H     H_    0.025796 0.500019 0.611224 0.169950
H12   H     H_    0.391227 0.044343 0.612525 0.191879
H13   H     H_    0.379769 0.954365 0.369082 0.188078
H14   H     H_    0.661718 0.230533 0.394725 0.180123
H15   H     H_    0.672491 0.769780 0.629802 0.171008
H16   H     H_    0.688794 0.067771 0.395319 0.164114
H17   H     H_    0.700126 0.932743 0.632164 0.166192
H18   H     H_    0.334695 0.390046 0.055783 0.144200
N1    N     N_R   0.500000 0.499980 0.252470 -0.092011
N2    N     N_R   0.500000 0.500020 0.747530 -0.087715
O1    O     O_R   0.500010 0.369070 0.579480 -0.538855
O2    O     O_2   0.189610 0.150691 0.665019 -0.305648
O3    O     O_3   0.398669 0.267702 0.734703 -0.539851
O4    O     O_2   0.181120 0.706414 0.376312 -0.289717
O5    O     O_2   0.173056 0.846683 0.285233 -0.292037
O6    O     O_3   0.370427 0.724457 0.250942 -0.517753
O7    O     O_R   0.499990 0.630930 0.420520 -0.564944
O8    O     O_R   0.500010 0.369060 0.420520 -0.652239
O9    O     O_R   0.499990 0.630940 0.579480 -0.637907
O10   O     O_R   0.271750 0.500000 0.560890 -0.623226
O11   O     O_R   0.728250 0.500000 0.439110 -0.632223
O12   O     O_R   0.271750 0.499990 0.401930 -0.603059
O13   O     O_R   0.728250 0.500010 0.598070 -0.642088
O14   O     O_2   0.194915 0.294906 0.581762 -0.330707
S1    S     S_3+6 0.294896 0.223416 0.636099 0.016824
S2    S     S_3+6 0.279427 0.774568 0.333234 0.037301
Zn1   Zn    Zn3+2 0.500000 0.500010 0.606140 1.001708
Zn2   Zn    Zn3+2 0.500000 0.499990 0.393860 1.002654

loop_
_geom_bond_atom_site_label_1
_geom_bond_atom_site_label_2
_ccdc_geom_bond_type
C27   N2    A    
C2    C4    A    
C17   H15   S    
C2    C27   A    
C7    H1    S    
C8    H11   S    
C18   H16   S    
N2    Zn1   S    
C5    C7    S    
N1    Zn2   S    
C26   C28   A    
H10   O6    S    
C12   C15   S    
C24   N1    A    
C25   H4    S    
C23   C25   A    
C24   H3    S    
O12   Zn2   S    
C7    C8    D    
C27   H6    S    
C10   H13   S    
O2    S1    D    
C9    C11   A    
C25   N2    A    
O14   S1    D    
C13   S2    S    
O1    Zn1   S    
C5    O10   A    
O8    Zn2   S    
C12   O9    A    
C26   N1    A    
C6    O13   A    
C3    C28   A    
C17   C19   A    
C1    O8    A    
C28   H7    S    
C11   S1    S    
C13   C15   A    
C10   C21   A    
H9    O3    S    
O5    S2    D    
C22   C24   A    
C12   O7    A    
C3    C4    S    
C23   H2    S    
O13   Zn1   S    
O10   Zn1   S    
O7    Zn2   S    
O3    S1    S    
C20   C21   S    
O6    S2    S    
C18   C20   A    
C16   C18   A    
O4    S2    D    
C2    H8    S    
C11   C14   A    
C15   C17   A    
C4    C23   A    
C3    C22   A    
C6    C8    S    
C1    C14   S    
C9    C20   A    
C5    O12   A    
C22   H18   S    
C14   C16   A    
C16   H14   S    
C1    O1    A    
C6    O11   A    
C9    H12   S    
C19   H17   S    
C26   H5    S    
O9    Zn1   S    
O11   Zn2   S    
C19   C21   A    
C10   C13   A    
