data_mof_unit_29157.cif
_audit_creation_date              2012-12-11T16:56:18-0500
_audit_creation_method            fapswitch 2.2
_symmetry_space_group_name_H-M    P1
_symmetry_Int_Tables_number       1
_space_group_crystal_system       triclinic
_cell_length_a                    6.964852
_cell_length_b                    14.529663
_cell_length_c                    16.190521
_cell_angle_alpha                 90.473866
_cell_angle_beta                  90.039551
_cell_angle_gamma                 90.017641
_cell_volume                      1638.37487684

loop_
_atom_site_label
_atom_site_type_symbol
_atom_type_description
_atom_site_fract_x
_atom_site_fract_y
_atom_site_fract_z
_atom_type_partial_charge
O1    O     O_R   0.505830 0.583360 0.413880 -0.515019
O2    O     O_R   0.175830 0.595460 0.585520 -0.539446
O3    O     O_R   0.005520 0.416640 0.586120 -0.548982
C1    C     C_R   0.344751 0.617476 0.614369 0.729875
O4    O     O_R   0.176120 0.594390 0.414490 -0.544168
O5    O     O_R   0.005810 0.415570 0.413870 -0.549622
C2    C     C_R   0.344957 0.616316 0.385980 0.721968
O6    O     O_R   0.505540 0.584430 0.586130 -0.511788
O7    O     O_3   0.339200 0.441330 0.500000 -0.391962
V1    V     V_3+5 0.064350 0.510880 0.500000 1.497951
O8    O     O_R   0.676100 0.404540 0.414480 -0.548478
C3    C     C_R   0.845078 0.382215 0.386106 0.704344
O9    O     O_R   0.675810 0.405610 0.585510 -0.548346
C4    C     C_R   0.845024 0.383808 0.613690 0.724310
V2    V     V_3+5 0.564340 0.489120 0.500000 1.494524
O10   O     O_3   0.839360 0.558670 0.500000 -0.326325
C5    C     C_2   0.721080 0.209178 0.786238 -0.119222
C6    C     C_2   0.885617 0.181836 0.822660 -0.298059
H1    H     H_    0.585639 0.180634 0.807211 0.136926
H2    H     H_    0.022717 0.209712 0.803793 0.128149
C7    C     C_2   0.708753 0.277690 0.718278 -0.124030
C8    C     C_2   0.861552 0.315627 0.680584 -0.293571
H3    H     H_    0.565309 0.296831 0.698455 0.133065
H4    H     H_    0.006129 0.297193 0.698568 0.128976
C9    C     C_R   0.739412 0.251746 0.186889 -0.006287
C10   C     C_R   0.883644 0.184542 0.184362 -0.215477
C11   C     C_R   0.026009 0.188395 0.246491 0.604217
C12   C     C_R   0.014718 0.253825 0.311174 -0.251350
H5    H     H_    0.122809 0.253012 0.359263 0.150900
C13   C     C_R   0.858210 0.315079 0.317077 -0.171949
C14   C     C_R   0.726169 0.314808 0.251845 0.084539
C15   C     C_3   0.512335 0.309883 0.252866 -0.376311
C16   C     C_3   0.526927 0.241554 0.181436 -0.316993
H6    H     H_    0.444843 0.376178 0.235187 0.152992
H7    H     H_    0.456193 0.278886 0.310530 0.191564
H8    H     H_    0.468636 0.268576 0.122494 0.161889
H9    H     H_    0.480030 0.170907 0.197245 0.240862
C17   C     C_R   0.504804 0.679940 0.742685 -0.000315
C18   C     C_R   0.353486 0.682483 0.685602 -0.066736
C19   C     C_R   0.206481 0.746923 0.700346 -0.146635
H10   H     H_    0.088973 0.752449 0.657348 0.210843
C20   C     C_R   0.217288 0.809680 0.767060 -0.181897
H11   H     H_    0.105420 0.860822 0.773926 0.127731
C21   C     C_R   0.376575 0.810431 0.820950 -0.099439
C22   C     C_R   0.516094 0.742213 0.808833 0.051073
C23   C     C_3   0.728317 0.752353 0.799659 -0.266630
C24   C     C_3   0.715520 0.684932 0.727162 0.475536
H12   H     H_    0.770723 0.823231 0.781826 0.135203
H13   H     H_    0.790103 0.617962 0.735320 0.064579
C25   C     C_R   0.511012 0.683339 0.262095 -0.011944
C26   C     C_R   0.353514 0.681492 0.315842 -0.059402
C27   C     C_R   0.201986 0.742703 0.299670 -0.165132
H14   H     H_    0.080285 0.745197 0.340582 0.207023
C28   C     C_R   0.212800 0.806131 0.234470 -0.143944
H15   H     H_    0.097123 0.854879 0.226573 0.148161
C29   C     C_R   0.376896 0.811031 0.183776 -0.070375
C30   C     C_R   0.522631 0.746513 0.197600 0.013196
C31   C     C_3   0.730685 0.763467 0.212755 -0.445001
C32   C     C_3   0.717534 0.695490 0.283155 0.510778
H16   H     H_    0.759353 0.835383 0.233295 0.201948
H17   H     H_    0.821183 0.738461 0.160695 0.135945
H18   H     H_    0.804166 0.631939 0.274296 0.019235
O11   O     O_R   0.229930 0.912420 0.917160 -0.549340
O12   O     O_R   0.559420 0.902500 0.088780 -0.538950
O13   O     O_R   0.729660 0.081330 0.089380 -0.544009
C33   C     C_R   0.390428 0.880752 0.117451 0.733668
O14   O     O_R   0.559650 0.901420 0.917750 -0.545080
O15   O     O_R   0.729880 0.080250 0.917130 -0.540455
C34   C     C_R   0.390572 0.879614 0.888739 0.691308
O16   O     O_R   0.229700 0.913500 0.089410 -0.537073
O17   O     O_3   0.396250 0.055540 0.003280 -0.369830
V3    V     V_3+5 0.671130 0.986010 0.003260 1.423342
O18   O     O_R   0.059600 0.091310 0.917720 -0.548583
C35   C     C_R   0.890884 0.113205 0.889587 0.729981
O19   O     O_R   0.059370 0.092380 0.088750 -0.514115
C36   C     C_R   0.890814 0.114223 0.117589 0.766172
V4    V     V_3+5 0.171120 0.007820 0.003230 1.445384
O20   O     O_3   0.896130 0.938240 0.003240 -0.382621
C37   C     C_2   0.836436 0.716554 0.873319 0.331150
H19   H     H_    0.942614 0.760085 0.903330 0.081049
O21   O     O_2   0.805549 0.639687 0.900368 -0.532869
F1    F     F_    0.752592 0.726609 0.652271 -0.672217
F2    F     F_    0.739544 0.737434 0.359762 -0.653317
F3    F     F_    0.166345 0.123821 0.248966 -0.707060

loop_
_geom_bond_atom_site_label_1
_geom_bond_atom_site_label_2
_ccdc_geom_bond_type
C9    C14   A    
O18   C35   A    
C1    O6    A    
C24   H13   S    
C33   O16   A    
V4    O20   S    
C27   H14   S    
C10   C11   A    
O13   C36   A    
C25   C32   S    
C12   H5    S    
C32   F2    S    
O5    C3    A    
C23   C37   S    
O15   C35   A    
V2    O10   S    
C16   H8    S    
C29   C30   A    
O14   V3    S    
C24   F1    S    
C17   C22   A    
V3    O20   S    
C28   H15   S    
O8    V2    S    
O11   C34   A    
C10   C36   S    
O1    V2    S    
O7    V1    S    
C31   H17   S    
C19   C20   A    
C6    C35   S    
O9    C4    A    
O16   V4    S    
C20   C21   A    
C9    C10   A    
C27   C28   A    
C5    C6    D    
C23   H12   S    
C17   C18   A    
C28   C29   A    
C26   C27   A    
C15   H7    S    
C18   C19   A    
C37   O21   D    
C31   C32   S    
C22   C23   S    
C5    C7    S    
O14   C34   A    
O12   C33   A    
O2    C1    A    
O19   C36   A    
C14   C15   S    
C1    C18   S    
O15   V3    S    
C25   C26   A    
C21   C34   S    
O19   V4    S    
C17   C24   S    
O3    C4    A    
C19   H10   S    
O6    V2    S    
C7    H3    S    
O9    V2    S    
C8    H4    S    
C20   H11   S    
O2    V1    S    
O17   V4    S    
C21   C22   A    
O4    C2    A    
O11   V4    S    
C23   C24   S    
C11   F3    S    
C32   H18   S    
C3    C13   S    
O1    C2    A    
C25   C30   A    
O5    V1    S    
O8    C3    A    
O13   V3    S    
C15   C16   S    
C4    C8    S    
C12   C13   A    
O7    V2    S    
C2    C26   S    
O17   V3    S    
O3    V1    S    
V1    O10   S    
C30   C31   S    
C13   C14   A    
C29   C33   S    
C5    H1    S    
C6    H2    S    
O12   V3    S    
C16   H9    S    
C37   H19   S    
O4    V1    S    
C9    C16   S    
C11   C12   A    
O18   V4    S    
C7    C8    D    
C31   H16   S    
C15   H6    S    
