data_mof_unit_8170.cif
_audit_creation_date              2012-12-11T17:36:08-0500
_audit_creation_method            fapswitch 2.2
_symmetry_space_group_name_H-M    P1
_symmetry_Int_Tables_number       1
_space_group_crystal_system       triclinic
_cell_length_a                    25.861872
_cell_length_b                    6.903972
_cell_length_c                    21.704316
_cell_angle_alpha                 90.014263
_cell_angle_beta                  96.083743
_cell_angle_gamma                 90.002926
_cell_volume                      3853.47221749

loop_
_atom_site_label
_atom_site_type_symbol
_atom_type_description
_atom_site_fract_x
_atom_site_fract_y
_atom_site_fract_z
_atom_type_partial_charge
O1    O     O_R   0.208650 0.594520 0.175450 -0.533001
O2    O     O_R   0.791350 0.405480 0.824550 -0.540065
O3    O     O_R   0.291350 0.094520 0.324550 -0.541559
O4    O     O_R   0.708650 0.905480 0.675450 -0.540017
O5    O     O_R   0.192980 0.260780 0.300160 -0.500507
O6    O     O_R   0.807020 0.739220 0.699840 -0.500621
O7    O     O_R   0.307020 0.760780 0.199840 -0.501560
O8    O     O_R   0.692980 0.239220 0.800160 -0.500624
C1    C     C_R   0.178766 0.432657 0.318422 0.728288
C2    C     C_R   0.821234 0.567343 0.681577 0.728976
C3    C     C_R   0.321169 0.932592 0.181525 0.731649
C4    C     C_R   0.678754 0.067370 0.818420 0.728761
O9    O     O_R   0.202550 0.264660 0.174420 -0.538494
O10   O     O_R   0.797450 0.735340 0.825580 -0.539960
O11   O     O_R   0.297450 0.764660 0.325580 -0.544188
O12   O     O_R   0.702550 0.235340 0.674420 -0.539926
O13   O     O_R   0.300990 0.096480 0.197920 -0.545711
O14   O     O_R   0.699010 0.903520 0.802080 -0.545884
O15   O     O_R   0.199010 0.596480 0.302080 -0.545702
O16   O     O_R   0.800990 0.403520 0.697920 -0.545951
C5    C     C_R   0.191099 0.433274 0.151099 0.717688
C6    C     C_R   0.808897 0.566733 0.848904 0.693141
C7    C     C_R   0.308897 0.933326 0.348899 0.681925
C8    C     C_R   0.691103 0.066675 0.651100 0.693354
O17   O     O_3   0.282290 0.427760 0.257860 -0.368177
O18   O     O_3   0.717710 0.572240 0.742140 -0.359154
O19   O     O_3   0.217710 0.927760 0.242140 -0.356919
O20   O     O_3   0.782290 0.072240 0.757860 -0.359217
V1    V     V_3+5 0.244010 0.152080 0.248540 1.521947
V2    V     V_3+5 0.755990 0.847920 0.751460 1.521760
V3    V     V_3+5 0.255990 0.652080 0.251460 1.514559
V4    V     V_3+5 0.744010 0.347920 0.748540 1.521748
C9    C     C_R   0.657570 0.061253 0.591774 -0.049437
C10   C     C_R   0.342429 0.938752 0.408225 -0.046640
C11   C     C_R   0.842432 0.561608 0.908238 -0.049508
C12   C     C_R   0.157560 0.438442 0.091769 -0.057762
C13   C     C_R   0.646856 0.125392 0.481836 -0.095480
C14   C     C_R   0.353146 0.874544 0.518159 -0.096185
C15   C     C_R   0.853336 0.629089 0.017983 -0.095706
C16   C     C_R   0.146672 0.371331 0.982001 -0.096002
C17   C     C_R   0.678362 0.115455 0.537765 -0.180005
C18   C     C_R   0.321641 0.884468 0.462230 -0.177087
C19   C     C_R   0.821772 0.618072 0.962118 -0.179502
C20   C     C_R   0.178234 0.382300 0.037867 -0.163661
C21   C     C_R   0.604373 0.017302 0.589594 -0.175600
C22   C     C_R   0.395620 0.982791 0.410410 -0.183246
C23   C     C_R   0.895557 0.516402 0.910493 -0.175233
C24   C     C_R   0.104424 0.483479 0.089527 -0.179069
C25   C     C_R   0.570750 0.029391 0.533099 0.066573
C26   C     C_R   0.429245 0.970675 0.466904 0.068631
C27   C     C_R   0.929248 0.529639 0.966915 0.066980
C28   C     C_R   0.070741 0.470408 0.033095 0.069123
C29   C     C_R   0.593226 0.084590 0.478592 0.062965
C30   C     C_R   0.406772 0.915418 0.521407 0.059295
C31   C     C_R   0.906906 0.587230 0.021281 0.060616
C32   C     C_R   0.093093 0.413009 0.978716 0.058751
C33   C     C_R   0.515760 0.991229 0.529077 0.004038
C34   C     C_R   0.484235 0.008849 0.470926 0.006151
C35   C     C_R   0.984190 0.490500 0.970980 0.004333
C36   C     C_R   0.015799 0.509553 0.029029 0.004860
C37   C     C_R   0.508702 0.063545 0.418556 -0.184896
C38   C     C_R   0.491293 0.936511 0.581446 -0.179789
C39   C     C_R   0.991465 0.566697 0.081254 -0.178806
C40   C     C_R   0.008530 0.433462 0.918749 -0.179446
C41   C     C_R   0.561771 0.100259 0.421902 0.252481
C42   C     C_R   0.438226 0.899754 0.578097 0.253127
C43   C     C_R   0.938442 0.604331 0.077871 0.253032
C44   C     C_R   0.061558 0.395946 0.922123 0.254329
H1    H     H_    0.409350 0.021036 0.366912 0.098067
H2    H     H_    0.590639 0.979148 0.633097 0.106689
H3    H     H_    0.090763 0.522987 0.132959 0.106266
H4    H     H_    0.909205 0.476618 0.867079 0.106580
H5    H     H_    0.280773 0.848107 0.460989 0.116990
H6    H     H_    0.719234 0.151751 0.539001 0.116522
H7    H     H_    0.219051 0.345145 0.039151 0.137812
H8    H     H_    0.780966 0.655425 0.960818 0.116119
H9    H     H_    0.665074 0.168170 0.441381 0.179531
H10   H     H_    0.334931 0.831709 0.558610 0.179310
H11   H     H_    0.835219 0.673675 0.058329 0.178569
H12   H     H_    0.164799 0.326952 0.941641 0.181840
H13   H     H_    0.487615 0.080144 0.373463 0.157276
H14   H     H_    0.512382 0.919899 0.626538 0.162692
H15   H     H_    0.012633 0.584683 0.126247 0.162501
H16   H     H_    0.987367 0.415566 0.873749 0.162259
C45   C     C_R   0.418618 0.797700 0.067262 -0.190543
C46   C     C_R   0.566857 0.201854 0.913138 -0.189038
C47   C     C_R   0.066863 0.298549 0.413108 -0.189597
C48   C     C_R   0.933137 0.701451 0.586892 -0.189524
H17   H     H_    0.429768 0.670990 0.042330 0.141036
H18   H     H_    0.543976 0.328295 0.922074 0.143660
H19   H     H_    0.043943 0.172199 0.422024 0.142779
H20   H     H_    0.956057 0.827801 0.577976 0.142889
C49   C     C_R   0.379333 0.781287 0.107041 0.614597
C50   C     C_R   0.605963 0.217869 0.873081 0.615571
C51   C     C_R   0.105973 0.282355 0.373072 0.615666
C52   C     C_R   0.894027 0.717645 0.626928 0.615662
C53   C     C_R   0.363705 0.944319 0.139866 -0.193619
C54   C     C_R   0.636465 0.055390 0.860515 -0.192597
C55   C     C_R   0.136500 0.444752 0.360521 -0.192317
C56   C     C_R   0.863499 0.555248 0.639479 -0.192596
C57   C     C_R   0.388733 0.122565 0.131576 -0.202707
C58   C     C_R   0.626297 0.877971 0.889209 -0.200077
C59   C     C_R   0.126377 0.622245 0.389220 -0.199693
C60   C     C_R   0.873623 0.377755 0.610780 -0.200012
H21   H     H_    0.378222 0.250682 0.156156 0.207957
H22   H     H_    0.648924 0.750137 0.881335 0.200463
H23   H     H_    0.149030 0.750012 0.381353 0.200741
H24   H     H_    0.850970 0.249988 0.618647 0.200425
C61   C     C_R   0.427838 0.138171 0.091748 -0.090252
C62   C     C_R   0.587169 0.862823 0.928998 -0.095833
C63   C     C_R   0.087247 0.637565 0.428990 -0.095269
C64   C     C_R   0.912753 0.362435 0.571010 -0.095370
H25   H     H_    0.446219 0.277253 0.086268 0.146326
H26   H     H_    0.580383 0.724517 0.950325 0.142774
H27   H     H_    0.080477 0.775925 0.450311 0.143409
H28   H     H_    0.919523 0.224075 0.549689 0.143247
C65   C     C_R   0.442982 0.976079 0.059248 0.024143
C66   C     C_R   0.557240 0.024516 0.941306 0.025514
C67   C     C_R   0.057282 0.475969 0.441265 0.025702
C68   C     C_R   0.942717 0.524031 0.558735 0.025687
C69   C     C_1   0.483227 0.993298 0.017583 0.005094
C70   C     C_1   0.516860 0.007995 0.982816 0.005393
C71   C     C_1   0.016859 0.492682 0.482681 0.005276
C72   C     C_1   0.983141 0.507318 0.517319 0.005201
Br1   Br    Br    0.588661 0.173921 0.345851 -0.508630
Br2   Br    Br    0.411339 0.826029 0.654143 -0.485105
Br3   Br    Br    0.911741 0.681442 0.153713 -0.491183
Br4   Br    Br    0.088271 0.319056 0.846266 -0.485140
F1    F     F_    0.355959 0.606906 0.112023 -0.704969
F2    F     F_    0.613276 0.391888 0.846306 -0.694202
F3    F     F_    0.113255 0.108282 0.346291 -0.694393
F4    F     F_    0.886745 0.891718 0.653709 -0.694356

loop_
_geom_bond_atom_site_label_1
_geom_bond_atom_site_label_2
_ccdc_geom_bond_type
O17   V3    S    
C55   C59   A    
C48   C52   A    
O1    C5    A    
C47   H19   S    
O19   V1    S    
C9    C21   A    
O3    C7    A    
C10   C18   A    
C56   C60   A    
O15   V3    S    
C62   C66   A    
C61   C65   A    
C71   C72   T    
C5    C12   S    
O7    C3    A    
C6    C11   S    
C35   C40   A    
C50   F2    S    
C36   C39   A    
C40   C44   A    
O2    V4    S    
O9    V1    S    
C14   C18   A    
O4    C8    A    
C51   C55   A    
C50   C54   A    
C57   C61   A    
C60   H24   S    
O1    V3    S    
O13   V1    S    
O17   V1    S    
C59   C63   A    
C66   C70   S    
O3    V1    S    
C65   C69   S    
C40   H16   S    
C22   H1    S    
C46   C50   A    
C17   H6    S    
C45   C49   A    
C1    O15   A    
C15   C31   A    
C48   H20   S    
C2    O16   A    
C16   C32   A    
C47   C51   A    
O2    C6    A    
C16   H12   S    
C58   H22   S    
C10   C22   A    
C21   C25   A    
C48   C68   A    
C11   C19   A    
C44   Br4   S    
C16   C20   A    
C4    C54   S    
C61   H25   S    
C52   F4    S    
C13   C29   A    
C34   C37   A    
O11   C7    A    
C38   H14   S    
C11   C23   A    
C35   C36   A    
O12   C8    A    
C51   F3    S    
C47   C67   A    
O10   V2    S    
C49   F1    S    
O5    V1    S    
C57   H21   S    
C39   C43   A    
O7    V3    S    
C38   C42   A    
O19   V3    S    
O8    V4    S    
C33   C38   A    
C46   H18   S    
C64   C68   A    
C45   H17   S    
O18   V4    S    
C15   C19   A    
C14   H10   S    
C32   C44   A    
C13   H9    S    
C42   Br2   S    
C39   H15   S    
C15   H11   S    
C37   H13   S    
C20   H7    S    
C2    C56   S    
O5    C1    A    
C43   Br3   S    
C1    C55   S    
C63   H27   S    
C14   C30   A    
O20   V4    S    
O8    C4    A    
C7    C10   S    
C26   C34   A    
O9    C5    A    
C46   C66   A    
C26   C30   A    
C45   C65   A    
C69   C70   T    
O14   V2    S    
C23   C27   A    
C63   C67   A    
O6    V2    S    
O18   V2    S    
C58   C62   A    
C27   C35   A    
C24   H3    S    
C49   C53   A    
C64   H28   S    
C29   C41   A    
C60   C64   A    
O16   V4    S    
C19   H8    S    
C62   H26   S    
C3    O13   A    
C18   H5    S    
C21   H2    S    
O6    C2    A    
C25   C33   A    
C31   C43   A    
O11   V3    S    
C30   C42   A    
C67   C71   S    
O12   V4    S    
C22   C26   A    
C8    C9    S    
C3    C53   S    
C9    C17   A    
O10   C6    A    
O20   V2    S    
C54   C58   A    
C33   C34   A    
C25   C29   A    
C52   C56   A    
C12   C24   A    
C27   C31   A    
C13   C17   A    
O4    V2    S    
C23   H4    S    
C12   C20   A    
C68   C72   S    
C37   C41   A    
C24   C28   A    
C28   C36   A    
C4    O14   A    
C59   H23   S    
C53   C57   A    
C28   C32   A    
C41   Br1   S    
