data_mof_unit_61722.cif
_audit_creation_date              2012-12-10T16:53:58-0500
_audit_creation_method            fapswitch 2.2
_symmetry_space_group_name_H-M    P1
_symmetry_Int_Tables_number       1
_space_group_crystal_system       triclinic
_cell_length_a                    30.173856
_cell_length_b                    30.489925
_cell_length_c                    21.561297
_cell_angle_alpha                 90.000014
_cell_angle_beta                  133.896808
_cell_angle_gamma                 90.0
_cell_volume                      14293.8798073

loop_
_atom_site_label
_atom_site_type_symbol
_atom_type_description
_atom_site_fract_x
_atom_site_fract_y
_atom_site_fract_z
_atom_type_partial_charge
C1    C     C_R   0.308792 0.809654 0.118002 0.986198
C2    C     C_R   0.691208 0.809654 0.881998 0.986197
C3    C     C_R   0.808792 0.309654 0.118002 0.986197
C4    C     C_R   0.191208 0.309654 0.881998 0.986198
C5    C     C_R   0.547791 0.790469 0.002223 -0.023117
C6    C     C_R   0.452204 0.790469 0.997766 -0.023115
C7    C     C_R   0.047794 0.290469 0.002229 -0.023116
C8    C     C_R   0.952206 0.290469 0.997772 -0.023116
C9    C     C_R   0.522469 0.669727 0.998463 0.333666
C10   C     C_R   0.477548 0.669727 0.001571 0.333662
C11   C     C_R   0.022460 0.169727 0.998446 0.333664
C12   C     C_R   0.977540 0.169727 0.001553 0.333663
C13   C     C_R   0.475972 0.830545 0.998436 0.326479
C14   C     C_R   0.524016 0.830546 0.001539 0.326481
C15   C     C_R   0.975978 0.330545 0.998449 0.326480
C16   C     C_R   0.024022 0.330545 0.001552 0.326480
C17   C     C_R   0.280218 0.826216 0.220496 0.620720
C18   C     C_R   0.719781 0.826216 0.779503 0.620720
C19   C     C_R   0.780218 0.326216 0.220497 0.620720
C20   C     C_R   0.219782 0.326216 0.779504 0.620720
C21   C     C_R   0.276781 0.824835 0.281500 -0.252385
C22   C     C_R   0.723217 0.824834 0.718498 -0.252385
C23   C     C_R   0.776782 0.324835 0.281501 -0.252386
C24   C     C_R   0.223218 0.324835 0.718499 -0.252386
C25   C     C_R   0.324001 0.842381 0.362679 -0.233758
C26   C     C_R   0.675997 0.842380 0.637319 -0.233758
C27   C     C_R   0.824002 0.342381 0.362680 -0.233757
C28   C     C_R   0.175998 0.342381 0.637320 -0.233758
C29   C     C_R   0.372311 0.864940 0.381177 0.448282
C30   C     C_R   0.627688 0.864940 0.618822 0.448281
C31   C     C_R   0.872312 0.364940 0.381177 0.448281
C32   C     C_R   0.127688 0.364940 0.618823 0.448281
C33   C     C_R   0.371961 0.872121 0.315501 -0.119964
C34   C     C_R   0.628039 0.872121 0.684499 -0.119965
C35   C     C_R   0.871961 0.372121 0.315501 -0.119965
C36   C     C_R   0.128039 0.372121 0.684499 -0.119965
C37   C     C_R   0.330105 0.847180 0.238967 -0.114809
C38   C     C_R   0.669894 0.847179 0.761033 -0.114808
C39   C     C_R   0.830105 0.347179 0.238967 -0.114808
C40   C     C_R   0.169895 0.347179 0.761033 -0.114808
C41   C     C_R   0.339351 0.843823 0.183252 -0.240771
C42   C     C_R   0.660649 0.843823 0.816748 -0.240772
C43   C     C_R   0.839351 0.343823 0.183252 -0.240773
C44   C     C_R   0.160649 0.343823 0.816748 -0.240772
C45   C     C_R   0.335464 0.750008 0.999771 0.784783
C46   C     C_R   0.664536 0.750008 0.000230 0.784783
C47   C     C_R   0.835464 0.250008 0.999770 0.784783
C48   C     C_R   0.164536 0.250008 0.000230 0.784784
C49   C     C_R   0.382623 0.870423 0.195347 0.260698
C50   C     C_R   0.617377 0.870424 0.804653 0.260700
C51   C     C_R   0.882623 0.370424 0.195347 0.260701
C52   C     C_R   0.117377 0.370423 0.804653 0.260699
C53   C     C_R   0.416459 0.900548 0.262203 0.608730
C54   C     C_R   0.583542 0.900548 0.737797 0.608729
C55   C     C_R   0.916459 0.400548 0.262203 0.608726
C56   C     C_R   0.083541 0.400548 0.737797 0.608729
C57   C     C_R   0.411425 0.902233 0.322381 -0.230519
C58   C     C_R   0.588575 0.902234 0.677619 -0.230520
C59   C     C_R   0.911424 0.402233 0.322381 -0.230519
C60   C     C_R   0.088575 0.402233 0.677619 -0.230520
C61   C     C_R   0.868802 0.745526 0.922835 -0.108738
C62   C     C_R   0.131198 0.745526 0.077165 -0.108739
C63   C     C_R   0.368802 0.245526 0.922835 -0.108739
C64   C     C_R   0.631198 0.245526 0.077165 -0.108739
C65   C     C_R   0.884521 0.748430 0.000994 -0.071055
C66   C     C_R   0.115479 0.748430 0.999006 -0.071055
C67   C     C_R   0.384521 0.248430 0.000994 -0.071055
C68   C     C_R   0.615479 0.248430 0.999006 -0.071055
C69   C     C_R   0.946359 0.750275 0.078982 -0.158190
C70   C     C_R   0.053641 0.750275 0.921018 -0.158187
C71   C     C_R   0.446359 0.250275 0.078982 -0.158188
C72   C     C_R   0.553640 0.250275 0.921018 -0.158189
C73   C     C_R   0.992973 0.748799 0.079476 -0.007547
C74   C     C_R   0.007027 0.748799 0.920525 -0.007548
C75   C     C_R   0.492973 0.248799 0.079475 -0.007548
C76   C     C_R   0.507027 0.248799 0.920525 -0.007548
C77   C     C_R   0.976871 0.747711 0.000327 -0.009467
C78   C     C_R   0.023129 0.747711 0.999673 -0.009467
C79   C     C_R   0.476871 0.247711 0.000327 -0.009467
C80   C     C_R   0.523129 0.247711 0.999673 -0.009467
C81   C     C_R   0.914519 0.746575 0.921783 0.024954
C82   C     C_R   0.085481 0.746575 0.078217 0.024954
C83   C     C_R   0.414519 0.246576 0.921783 0.024954
C84   C     C_R   0.585481 0.246576 0.078217 0.024955
C85   C     C_R   0.055264 0.748363 0.157274 0.640768
C86   C     C_R   0.944737 0.748363 0.842726 0.640770
C87   C     C_R   0.555263 0.248363 0.157274 0.640769
C88   C     C_R   0.444736 0.248363 0.842726 0.640769
C89   C     C_R   0.191622 0.690319 0.881758 0.813558
C90   C     C_R   0.808378 0.690319 0.118242 0.813555
C91   C     C_R   0.691622 0.190319 0.881758 0.813557
C92   C     C_R   0.308378 0.190319 0.118242 0.813556
C93   C     C_R   0.101101 0.746712 0.156453 -0.265202
C94   C     C_R   0.898899 0.746712 0.843548 -0.265202
C95   C     C_R   0.601101 0.246712 0.156452 -0.265203
C96   C     C_R   0.398899 0.246712 0.843547 -0.265202
C97   C     C_R   0.258281 0.618513 0.886696 -0.137050
C98   C     C_R   0.741720 0.618510 0.113298 -0.137047
C99   C     C_R   0.758280 0.118511 0.886699 -0.137048
C100  C     C_R   0.241720 0.118511 0.113301 -0.137048
C101  C     C_R   0.289519 0.581670 0.895338 -0.079939
C102  C     C_R   0.710483 0.581664 0.104654 -0.079921
C103  C     C_R   0.789518 0.081667 0.895342 -0.079929
C104  C     C_R   0.210482 0.081667 0.104658 -0.079929
C105  C     C_R   0.257027 0.546330 0.839746 -0.111691
C106  C     C_R   0.742976 0.546326 0.160247 -0.111686
C107  C     C_R   0.757025 0.046328 0.839749 -0.111689
C108  C     C_R   0.242975 0.046328 0.160251 -0.111689
C109  C     C_R   0.193177 0.548194 0.773402 -0.132304
C110  C     C_R   0.806826 0.548192 0.226594 -0.132304
C111  C     C_R   0.693175 0.048193 0.773404 -0.132304
C112  C     C_R   0.306825 0.048193 0.226596 -0.132304
C113  C     C_R   0.160501 0.585777 0.761673 0.099618
C114  C     C_R   0.839500 0.585775 0.238325 0.099618
C115  C     C_R   0.660501 0.085776 0.761674 0.099618
C116  C     C_R   0.339499 0.085776 0.238326 0.099618
C117  C     C_R   0.193220 0.620417 0.822236 0.042325
C118  C     C_R   0.806781 0.620415 0.177761 0.042324
C119  C     C_R   0.693219 0.120416 0.822238 0.042324
C120  C     C_R   0.306781 0.120416 0.177762 0.042325
C121  C     C_R   0.160000 0.655963 0.816288 -0.178393
C122  C     C_R   0.840000 0.655963 0.183712 -0.178395
C123  C     C_R   0.660000 0.155963 0.816288 -0.178394
C124  C     C_R   0.340000 0.155963 0.183712 -0.178394
C125  C     C_R   0.095430 0.657348 0.749295 0.371508
C126  C     C_R   0.904569 0.657349 0.250708 0.371511
C127  C     C_R   0.595430 0.157348 0.749293 0.371509
C128  C     C_R   0.404570 0.157348 0.250706 0.371510
C129  C     C_R   0.064244 0.624544 0.687652 -0.195233
C130  C     C_R   0.935756 0.624546 0.312351 -0.195236
C131  C     C_R   0.564244 0.124545 0.687651 -0.195234
C132  C     C_R   0.435756 0.124545 0.312349 -0.195234
C133  C     C_R   0.163844 0.749215 0.998962 0.908568
C134  C     C_R   0.836156 0.749215 0.001038 0.908568
C135  C     C_R   0.663844 0.249215 0.998962 0.908568
C136  C     C_R   0.336156 0.249215 0.001038 0.908568
C137  C     C_R   0.095950 0.589348 0.692184 -0.154154
C138  C     C_R   0.904051 0.589348 0.307817 -0.154150
C139  C     C_R   0.595950 0.089348 0.692184 -0.154151
C140  C     C_R   0.404050 0.089348 0.307816 -0.154152
C141  C     C_R   0.939396 0.557955 0.378597 0.789175
C142  C     C_R   0.060604 0.557955 0.621403 0.789175
C143  C     C_R   0.439396 0.057955 0.378597 0.789175
C144  C     C_R   0.560604 0.057955 0.621403 0.789175
C145  C     C_R   0.442325 0.938633 0.384603 0.920287
C146  C     C_R   0.557675 0.938633 0.615397 0.920289
C147  C     C_R   0.942325 0.438633 0.384603 0.920287
C148  C     C_R   0.057675 0.438633 0.615397 0.920288
C149  C     C_R   0.595446 0.789715 0.004638 -0.089594
C150  C     C_R   0.404548 0.789715 0.995351 -0.089587
C151  C     C_R   0.095449 0.289715 0.004644 -0.089591
C152  C     C_R   0.904551 0.289715 0.995356 -0.089591
C153  C     C_R   0.616416 0.750076 0.000647 -0.088872
C154  C     C_R   0.383585 0.750076 0.999353 -0.088878
C155  C     C_R   0.116415 0.250076 0.000647 -0.088874
C156  C     C_R   0.883584 0.250076 0.999353 -0.088875
C157  C     C_R   0.591450 0.710460 0.996615 -0.148052
C158  C     C_R   0.408557 0.710461 0.003400 -0.148056
C159  C     C_R   0.091447 0.210460 0.996607 -0.148054
C160  C     C_R   0.908553 0.210460 0.003393 -0.148054
C161  C     C_R   0.545849 0.709771 0.998325 -0.002942
C162  C     C_R   0.454160 0.709772 0.001692 -0.002945
C163  C     C_R   0.045844 0.209771 0.998317 -0.002944
C164  C     C_R   0.954156 0.209772 0.001683 -0.002944
C165  C     C_R   0.523396 0.750127 0.000162 -0.039213
C166  C     C_R   0.476605 0.750127 0.999841 -0.039211
C167  C     C_R   0.023395 0.250127 0.000160 -0.039212
C168  C     C_R   0.976605 0.250127 0.999840 -0.039212
Cu1   Cu    Cu3+1 0.280870 0.719090 0.061820 1.037907
Cu2   Cu    Cu3+1 0.719130 0.719090 0.938180 1.037901
Cu3   Cu    Cu3+1 0.780870 0.219090 0.061820 1.037904
Cu4   Cu    Cu3+1 0.219130 0.219090 0.938180 1.037904
Cu5   Cu    Cu3+1 0.219120 0.780900 0.938230 1.104445
Cu6   Cu    Cu3+1 0.780880 0.780900 0.061770 1.104446
Cu7   Cu    Cu3+1 0.719120 0.280900 0.938230 1.104445
Cu8   Cu    Cu3+1 0.280880 0.280900 0.061770 1.104446
Cu9   Cu    Cu3+1 0.544440 0.999990 0.499990 1.093437
Cu10  Cu    Cu3+1 0.455560 0.999990 0.500010 1.093439
Cu11  Cu    Cu3+1 0.044440 0.499990 0.499990 1.093435
Cu12  Cu    Cu3+1 0.955560 0.499990 0.500010 1.093441
H1    H     H_    0.615874 0.819780 0.007605 0.225749
H2    H     H_    0.384115 0.819779 0.992373 0.225746
H3    H     H_    0.115880 0.319779 0.007616 0.225747
H4    H     H_    0.884120 0.319779 0.992384 0.225748
H5    H     H_    0.820897 0.743544 0.862711 0.180341
H6    H     H_    0.179104 0.743544 0.137289 0.180340
H7    H     H_    0.320897 0.243544 0.862711 0.180341
H8    H     H_    0.679103 0.243544 0.137289 0.180341
H9    H     H_    0.957882 0.751836 0.139029 0.232499
H10   H     H_    0.042118 0.751836 0.860971 0.232501
H11   H     H_    0.457882 0.251836 0.139029 0.232500
H12   H     H_    0.542118 0.251836 0.860971 0.232500
H13   H     H_    0.148891 0.746046 0.217082 0.175730
H14   H     H_    0.851109 0.746046 0.782918 0.175730
H15   H     H_    0.648891 0.246046 0.217082 0.175730
H16   H     H_    0.351109 0.246046 0.782918 0.175730
H17   H     H_    0.285840 0.645298 0.930802 0.142103
H18   H     H_    0.714159 0.645294 0.069192 0.142106
H19   H     H_    0.785840 0.145296 0.930805 0.142105
H20   H     H_    0.214160 0.145296 0.069195 0.142105
H21   H     H_    0.339129 0.580287 0.946109 0.201691
H22   H     H_    0.660873 0.580280 0.053880 0.201688
H23   H     H_    0.839128 0.080283 0.946115 0.201689
H24   H     H_    0.160872 0.080284 0.053885 0.201689
H25   H     H_    0.281409 0.517410 0.847789 0.162202
H26   H     H_    0.718595 0.517404 0.152202 0.162202
H27   H     H_    0.781407 0.017407 0.847794 0.162202
H28   H     H_    0.218593 0.017407 0.152206 0.162203
H29   H     H_    0.169973 0.519535 0.732961 0.146056
H30   H     H_    0.830030 0.519532 0.267037 0.146053
H31   H     H_    0.669971 0.019533 0.732962 0.146054
H32   H     H_    0.330029 0.019533 0.267038 0.146054
H33   H     H_    0.609163 0.680352 0.994150 0.180059
H34   H     H_    0.390849 0.680353 0.005875 0.180068
H35   H     H_    0.109157 0.180353 0.994138 0.180064
H36   H     H_    0.890843 0.180353 0.005862 0.180063
H37   H     H_    0.014671 0.626773 0.635095 0.198688
H38   H     H_    0.985329 0.626776 0.364910 0.198685
H39   H     H_    0.514671 0.126775 0.635093 0.198686
H40   H     H_    0.485329 0.126775 0.364907 0.198686
H41   H     H_    0.238637 0.808434 0.266952 0.178672
H42   H     H_    0.761361 0.808433 0.733045 0.178673
H43   H     H_    0.738638 0.308434 0.266953 0.178673
H44   H     H_    0.261362 0.308434 0.733047 0.178672
H45   H     H_    0.323753 0.837495 0.412192 0.211342
H46   H     H_    0.676245 0.837495 0.587806 0.211343
H47   H     H_    0.823754 0.337495 0.412193 0.211343
H48   H     H_    0.176247 0.337495 0.587807 0.211343
O1    O     O_R   0.321150 0.768980 0.142380 -0.572022
O2    O     O_R   0.678850 0.768980 0.857620 -0.572022
O3    O     O_R   0.821150 0.268980 0.142380 -0.572022
O4    O     O_R   0.178850 0.268980 0.857620 -0.572022
O5    O     O_R   0.917390 0.545090 0.409880 -0.595710
O6    O     O_R   0.082610 0.545090 0.590120 -0.595714
O7    O     O_R   0.417390 0.045090 0.409880 -0.595712
O8    O     O_R   0.582610 0.045090 0.590120 -0.595712
O9    O     O_R   0.492440 0.954900 0.409820 -0.482463
O10   O     O_R   0.507560 0.954900 0.590180 -0.482462
O11   O     O_R   0.992440 0.454900 0.409820 -0.482462
O12   O     O_R   0.007560 0.454900 0.590180 -0.482462
O13   O     O_R   0.417370 0.954920 0.409860 -0.595504
O14   O     O_R   0.582630 0.954920 0.590140 -0.595506
O15   O     O_R   0.917370 0.454920 0.409860 -0.595504
O16   O     O_R   0.082630 0.454920 0.590140 -0.595506
O17   O     O_R   0.269000 0.821180 0.038020 -0.546529
O18   O     O_R   0.731000 0.821180 0.961980 -0.546530
O19   O     O_R   0.769000 0.321180 0.038020 -0.546530
O20   O     O_R   0.231000 0.321180 0.961980 -0.546530
O21   O     O_R   0.340930 0.723880 0.052190 -0.589306
O22   O     O_R   0.659070 0.723880 0.947810 -0.589308
O23   O     O_R   0.840930 0.223880 0.052190 -0.589307
O24   O     O_R   0.159070 0.223880 0.947810 -0.589307
O25   O     O_R   0.288780 0.776070 0.947820 -0.573520
O26   O     O_R   0.711220 0.776070 0.052180 -0.573518
O27   O     O_R   0.788780 0.276070 0.947820 -0.573519
O28   O     O_R   0.211220 0.276070 0.052180 -0.573520
O29   O     O_R   0.230990 0.678810 0.962030 -0.599396
O30   O     O_R   0.769010 0.678810 0.037970 -0.599400
O31   O     O_R   0.730990 0.178810 0.962030 -0.599398
O32   O     O_R   0.269010 0.178810 0.037970 -0.599398
O33   O     O_R   0.178840 0.731000 0.857670 -0.539325
O34   O     O_R   0.821160 0.731000 0.142330 -0.539322
O35   O     O_R   0.678840 0.231000 0.857670 -0.539323
O36   O     O_R   0.321160 0.231000 0.142330 -0.539323
O37   O     O_R   0.211210 0.723910 0.052230 -0.578085
O38   O     O_R   0.788790 0.723910 0.947770 -0.578084
O39   O     O_R   0.711210 0.223910 0.052230 -0.578084
O40   O     O_R   0.288790 0.223910 0.947770 -0.578085
O41   O     O_R   0.159060 0.776110 0.947860 -0.557191
O42   O     O_R   0.840940 0.776110 0.052140 -0.557192
O43   O     O_R   0.659060 0.276110 0.947860 -0.557192
O44   O     O_R   0.340940 0.276110 0.052140 -0.557191
O45   O     O_R   0.992470 0.545080 0.409840 -0.564674
O46   O     O_R   0.007530 0.545080 0.590160 -0.564673
O47   O     O_R   0.492470 0.045080 0.409840 -0.564673
O48   O     O_R   0.507530 0.045080 0.590160 -0.564673
F1    F     F_    0.453953 0.928628 0.267452 -0.573299
F2    F     F_    0.546049 0.928629 0.732549 -0.573297
F3    F     F_    0.953952 0.428628 0.267451 -0.573297
F4    F     F_    0.046048 0.428628 0.732548 -0.573297
F5    F     F_    0.071859 0.749091 0.234088 -0.618416
F6    F     F_    0.928141 0.749091 0.765912 -0.618415
F7    F     F_    0.571859 0.249091 0.234088 -0.618415
F8    F     F_    0.428141 0.249091 0.765912 -0.618416
Cl1   Cl    Cl    0.051054 0.698943 0.741437 -0.548644
Cl2   Cl    Cl    0.948945 0.698946 0.258569 -0.548641
Cl3   Cl    Cl    0.551054 0.198945 0.741433 -0.548642
Cl4   Cl    Cl    0.448945 0.198945 0.258566 -0.548642
Cl5   Cl    Cl    0.549165 0.618845 0.995323 -0.559494
Cl6   Cl    Cl    0.450863 0.618846 0.004733 -0.559484
Cl7   Cl    Cl    0.049151 0.118845 0.995294 -0.559489
Cl8   Cl    Cl    0.950849 0.118845 0.004705 -0.559489
Cl9   Cl    Cl    0.446674 0.881416 0.996631 -0.415142
Cl10  Cl    Cl    0.553305 0.881417 0.003326 -0.415127
Cl11  Cl    Cl    0.946685 0.381417 0.996653 -0.415134
Cl12  Cl    Cl    0.053315 0.381417 0.003348 -0.415134
Cl13  Cl    Cl    0.395037 0.867071 0.126589 -0.486757
Cl14  Cl    Cl    0.604965 0.867073 0.873413 -0.486757
Cl15  Cl    Cl    0.895036 0.367072 0.126588 -0.486758
Cl16  Cl    Cl    0.104963 0.367072 0.873411 -0.486757
F9    F     F_    0.232753 0.809321 0.141777 -0.711982
F10   F     F_    0.767246 0.809320 0.858222 -0.711982
F11   F     F_    0.732753 0.309321 0.141777 -0.711982
F12   F     F_    0.267247 0.309321 0.858223 -0.711981
Cl17  Cl    Cl    0.437307 0.873179 0.491058 -0.550844
Cl18  Cl    Cl    0.562693 0.873179 0.508941 -0.550845
Cl19  Cl    Cl    0.937307 0.373179 0.491058 -0.550844
Cl20  Cl    Cl    0.062693 0.373179 0.508942 -0.550844

loop_
_geom_bond_atom_site_label_1
_geom_bond_atom_site_label_2
_ccdc_geom_bond_type
C99   C103  A    
C55   F3    S    
C55   C59   A    
C56   F4    S    
Cu10  O10   S    
C28   H48   S    
C6    C166  A    
Cu4   O4    S    
Cu6   O18   S    
C21   H41   S    
C4    O4    A    
C63   H7    S    
C154  C158  A    
C57   C145  S    
C20   C40   A    
Cu5   O17   S    
C29   C33   A    
C100  C104  A    
C5    C149  A    
Cu1   O21   S    
C149  C153  A    
C46   O22   A    
C8    C168  A    
C152  C156  A    
C31   Cl19  S    
C70   C74   A    
Cu3   O39   S    
C151  C155  A    
C107  H27   S    
Cu7   O19   S    
C54   F2    S    
C85   F5    S    
C109  H29   S    
C41   C49   A    
C25   C29   A    
C125  Cl1   S    
C27   C31   A    
C127  Cl3   S    
C28   C32   A    
C128  Cl4   S    
C150  H2    S    
C30   C34   A    
C98   C102  A    
C17   C21   A    
C48   O24   A    
C19   C23   A    
Cu6   O34   S    
C78   C82   A    
C147  O15   A    
C68   C72   A    
C135  O43   A    
C136  O44   A    
C49   Cl13  S    
C92   O36   A    
C1    C41   S    
C48   C155  S    
C115  C139  A    
C113  C137  A    
C89   O33   A    
C3    O3    A    
C130  C138  A    
C104  H24   S    
C91   O35   A    
C70   H10   S    
Cu9   O9    S    
Cu2   Cu6   S    
C46   C153  S    
C148  O12   A    
C138  C141  S    
C106  H26   S    
C133  O37   A    
C119  C123  A    
C144  O48   A    
C67   C136  S    
C30   Cl18  S    
C50   Cl14  S    
C1    O17   A    
Cu5   O41   S    
C27   H47   S    
C66   C70   A    
C52   C56   A    
C49   C53   A    
C25   H45   S    
C51   C55   A    
C97   C117  A    
C127  C131  A    
C99   C119  A    
C61   C65   A    
C129  C137  A    
C141  O5    A    
C34   C58   A    
Cu12  O12   S    
C134  O42   A    
C103  C107  A    
C45   C154  S    
C60   C148  S    
C75   C79   A    
C161  C165  A    
C59   C147  S    
C137  C142  S    
Cu3   O23   S    
C140  C143  S    
C141  O45   A    
C108  H28   S    
C10   Cl6   S    
C20   F12   S    
C21   C25   A    
C64   C68   A    
C8    C152  A    
Cu11  O45   S    
C118  C122  A    
C130  H38   S    
Cu7   O35   S    
C85   C93   A    
Cu8   O36   S    
C64   C84   A    
C146  O10   A    
C87   C95   A    
C129  H37   S    
C9    C10   A    
C110  C114  A    
C47   O23   A    
C102  H22   S    
C62   H6    S    
Cu10  O13   S    
C44   C52   A    
C91   O31   A    
C91   C123  S    
C13   C14   A    
C88   F8    S    
C11   C163  A    
C105  C109  A    
C98   C118  A    
C87   F7    S    
Cu3   O3    S    
C159  H35   S    
C62   C66   A    
C155  C159  A    
C97   H17   S    
C156  C160  A    
Cu5   O25   S    
C17   C37   A    
C116  C120  A    
C132  H40   S    
C84   C95   A    
C135  O39   A    
C121  C125  A    
C125  C129  A    
C123  C127  A    
C146  O14   A    
C61   H5    S    
C86   F6    S    
C9    C161  A    
C73   C85   A    
C64   H8    S    
C42   C50   A    
C113  C117  A    
C100  H20   S    
C75   C87   A    
C23   H43   S    
C26   C30   A    
C115  C119  A    
C126  Cl2   S    
C22   C26   A    
C112  C116  A    
Cu12  O15   S    
C7    C167  A    
C73   C77   A    
C18   C22   A    
C107  C111  A    
C68   C135  S    
C24   C28   A    
C32   C36   A    
C151  H3    S    
C147  O11   A    
C158  H34   S    
C13   Cl9   S    
C136  O40   A    
C52   Cl16  S    
Cu3   O31   S    
C61   C81   A    
C81   C94   A    
C2    C42   S    
C83   C96   A    
Cu2   O2    S    
C114  C138  A    
C37   C41   A    
C90   O34   A    
C77   C81   A    
C131  C139  A    
C2    O2    A    
C40   C44   A    
C10   C162  A    
C148  O16   A    
Cu1   Cu5   S    
C71   H11   S    
C72   H12   S    
Cu4   Cu8   S    
C149  H1    S    
C88   C96   A    
C80   C84   A    
C51   Cl15  S    
Cu6   O42   S    
C77   C78   A    
C53   F1    S    
C22   H42   S    
C50   C54   A    
C16   Cl12  S    
C160  C164  A    
C92   C124  S    
C106  C110  A    
C14   Cl10  S    
C47   C156  S    
C126  C130  A    
C160  H36   S    
Cu2   O22   S    
C35   C59   A    
Cu11  O11   S    
C162  C166  A    
Cu6   O26   S    
C69   C73   A    
C65   C134  S    
C124  C128  A    
C11   Cl7   S    
C62   C82   A    
C82   C93   A    
C143  O47   A    
C110  H30   S    
C3    O19   A    
Cu11  O6    S    
Cu9   O8    S    
C144  O8    A    
C76   C80   A    
Cu8   O20   S    
C167  C168  A    
C53   C57   A    
C4    C44   S    
C18   C38   A    
C33   C37   A    
C108  C112  A    
C63   C83   A    
C35   C39   A    
C47   O27   A    
C12   C164  A    
C164  C168  A    
C15   Cl11  S    
C5    C14   A    
C7    C151  A    
C7    C16   A    
C17   F9    S    
Cu12  O5    S    
C8    C15   A    
C19   F11   S    
C12   Cl8   S    
C157  C161  A    
C104  C108  A    
Cu9   O47   S    
Cu10  O48   S    
C32   Cl20  S    
C95   H15   S    
Cu1   O37   S    
C93   H13   S    
C105  H25   S    
C132  C140  A    
C2    O18   A    
C79   C83   A    
C43   C51   A    
C89   C121  S    
C26   H46   S    
C65   C69   A    
C67   C71   A    
C153  C157  A    
C111  H31   S    
Cu11  Cu12  S    
C6    C150  A    
C56   C60   A    
C96   H16   S    
Cu9   Cu10  S    
C74   C78   A    
C99   H19   S    
C46   O26   A    
C134  O38   A    
C9    Cl5   S    
C165  C166  A    
Cu2   O38   S    
C94   H14   S    
C72   C76   A    
C3    C43   S    
C112  H32   S    
C48   O28   A    
C38   C42   A    
Cu10  O7    S    
C15   C16   A    
C131  H39   S    
C143  O7    A    
C117  C121  A    
C4    O20   A    
Cu12  O46   S    
C86   C94   A    
C20   C24   A    
C145  O9    A    
Cu7   O27   S    
C100  C120  A    
C23   C27   A    
Cu4   O32   S    
C142  O46   A    
Cu5   O33   S    
Cu11  O16   S    
C109  C113  A    
C45   O21   A    
Cu9   O14   S    
Cu1   O29   S    
C90   C122  S    
C128  C132  A    
C92   O32   A    
C24   H44   S    
C101  C105  A    
C63   C67   A    
C98   H18   S    
C36   C40   A    
C89   O29   A    
Cu2   O30   S    
C69   H9    S    
C101  H21   S    
C39   C43   A    
Cu3   Cu7   S    
Cu4   O24   S    
C122  C126  A    
C163  C167  A    
Cu8   O28   S    
C66   C133  S    
C139  C144  S    
C133  O41   A    
C145  O13   A    
C29   Cl17  S    
C74   C86   A    
C114  C118  A    
C19   C39   A    
C5    C165  A    
C159  C163  A    
C152  H4    S    
Cu7   O43   S    
Cu8   O44   S    
C54   C58   A    
C76   C88   A    
C33   C57   A    
C34   C38   A    
C36   C60   A    
C11   C12   A    
C58   C146  S    
C157  H33   S    
Cu4   O40   S    
C6    C13   A    
C71   C75   A    
C18   F10   S    
Cu1   O1    S    
C102  C106  A    
C31   C35   A    
C103  H23   S    
C158  C162  A    
C79   C80   A    
C1    O1    A    
C142  O6    A    
C150  C154  A    
C111  C115  A    
C97   C101  A    
C120  C124  A    
C45   O25   A    
C116  C140  A    
C90   O30   A    
