data_mof_unit_48537.cif
_audit_creation_date              2012-10-26T19:46:31-0400
_audit_creation_method            fapswitch 2.2
_symmetry_space_group_name_H-M    P1
_symmetry_Int_Tables_number       1
_space_group_crystal_system       triclinic
_cell_length_a                    10.850227
_cell_length_b                    9.51858
_cell_length_c                    15.091451
_cell_angle_alpha                 90.15293
_cell_angle_beta                  90.270126
_cell_angle_gamma                 90.033348
_cell_volume                      1558.60310153

loop_
_atom_site_label
_atom_site_type_symbol
_atom_type_description
_atom_site_fract_x
_atom_site_fract_y
_atom_site_fract_z
_atom_type_partial_charge
C1    C     C_R   0.262379 0.499977 0.499895 0.607545
C2    C     C_R   0.936395 0.603458 0.548653 0.055743
C3    C     C_R   0.935401 0.397365 0.450947 0.060221
C4    C     C_R   0.065414 0.602260 0.549404 0.059444
C5    C     C_R   0.576950 0.415357 0.093678 0.385761
C6    C     C_R   0.394065 0.433631 0.902559 0.387872
C7    C     C_R   0.587765 0.561815 0.907887 0.442250
C8    C     C_R   0.400291 0.571926 0.094497 0.441139
C9    C     C_R   0.580236 0.417189 0.186212 0.073168
C10   C     C_R   0.397206 0.434701 0.809909 0.070803
C11   C     C_R   0.591666 0.564365 0.815708 0.066481
C12   C     C_R   0.737805 0.500073 0.500120 0.605775
C13   C     C_R   0.402759 0.575459 0.186871 0.066167
C14   C     C_R   0.493999 0.498583 0.233201 -0.053928
C15   C     C_R   0.496108 0.500290 0.766372 -0.051784
C16   C     C_R   0.487854 0.493344 0.048029 0.064986
C17   C     C_R   0.489443 0.496593 0.951277 0.064501
C18   C     C_R   0.871894 0.500252 0.499989 0.060759
C19   C     C_R   0.128623 0.500033 0.499889 0.060938
C20   C     C_R   0.497893 0.499797 0.329981 0.581982
C21   C     C_R   0.499623 0.500171 0.669883 0.581323
C22   C     C_R   0.419924 0.074147 0.447400 0.027782
C23   C     C_R   0.580038 0.925879 0.552639 0.026602
C24   C     C_R   0.580033 0.074697 0.552656 0.029314
C25   C     C_R   0.419668 0.925354 0.447612 0.026836
C26   C     C_R   0.064436 0.398191 0.450202 0.054287
Cu1   Cu    Cu3+1 0.500000 0.640660 0.500000 0.979026
Cu2   Cu    Cu3+1 0.500000 0.359340 0.500000 1.005808
F1    F     F_    0.660972 0.338039 0.048215 -0.578193
F2    F     F_    0.299190 0.369798 0.944992 -0.574480
F3    F     F_    0.679907 0.623371 0.955397 -0.543262
F4    F     F_    0.313953 0.647540 0.049866 -0.542053
H1    H     H_    0.355982 0.129969 0.405104 0.136861
H2    H     H_    0.664632 0.712395 0.735380 0.246543
H3    H     H_    0.352915 0.737428 0.266169 0.241000
H4    H     H_    0.265951 0.589919 0.277612 0.227435
H5    H     H_    0.106590 0.312264 0.330590 0.243808
H6    H     H_    0.107619 0.197109 0.416748 0.230868
H7    H     H_    0.892969 0.806856 0.574220 0.232377
H8    H     H_    0.897206 0.701798 0.664902 0.247913
H9    H     H_    0.893764 0.302368 0.333843 0.243241
H10   H     H_    0.891100 0.194618 0.423352 0.233141
H11   H     H_    0.109662 0.803470 0.582411 0.235304
H12   H     H_    0.643987 0.870091 0.594912 0.126966
H13   H     H_    0.109516 0.688727 0.668823 0.247968
H14   H     H_    0.644104 0.130995 0.594882 0.121251
H15   H     H_    0.354955 0.869173 0.405940 0.108732
H16   H     H_    0.759302 0.374287 0.210602 0.272688
H17   H     H_    0.664312 0.233558 0.215302 0.276152
H18   H     H_    0.293487 0.265455 0.777746 0.277167
H19   H     H_    0.216686 0.420145 0.777378 0.274107
H20   H     H_    0.736064 0.553667 0.731906 0.231740
N1    N     N_R   0.500000 0.852070 0.500000 -0.226848
N2    N     N_3   0.133158 0.701836 0.602310 -0.592054
N3    N     N_R   0.500000 0.147930 0.500000 -0.229380
N4    N     N_3   0.673315 0.339526 0.232578 -0.564915
N5    N     N_3   0.299305 0.371231 0.759735 -0.575806
N6    N     N_3   0.695626 0.628147 0.773679 -0.528817
N7    N     N_3   0.310094 0.655165 0.232009 -0.523865
N8    N     N_3   0.131157 0.298787 0.397057 -0.626580
N9    N     N_3   0.870248 0.707465 0.598483 -0.637065
N10   N     N_3   0.868110 0.294690 0.400256 -0.585465
O1    O     O_R   0.319640 0.618740 0.499990 -0.488428
O2    O     O_R   0.680360 0.381260 0.500010 -0.483217
O3    O     O_R   0.680360 0.618740 0.500010 -0.482276
O4    O     O_R   0.319640 0.381260 0.499990 -0.478504
O5    O     O_R   0.499990 0.618780 0.371460 -0.518248
O6    O     O_R   0.500010 0.381220 0.628540 -0.485771
O7    O     O_R   0.500010 0.618780 0.628540 -0.502703
O8    O     O_R   0.499990 0.381220 0.371460 -0.468131

loop_
_geom_bond_atom_site_label_1
_geom_bond_atom_site_label_2
_ccdc_geom_bond_type
C6    C10   A    
C7    C17   A    
C2    C4    A    
C23   C24   A    
Cu1   N1    S    
C5    C9    A    
C8    C13   A    
Cu1   O3    S    
C2    C18   A    
H17   N4    S    
C12   O3    A    
H10   N10   S    
C20   O5    A    
Cu2   O4    S    
Cu1   O7    S    
C2    N9    S    
H16   N4    S    
C9    C14   A    
H4    N7    S    
C24   H14   S    
C10   N5    S    
C19   C26   A    
C1    O4    A    
C8    C16   A    
C9    N4    S    
C13   C14   A    
C24   N3    A    
C7    C11   A    
C4    C19   A    
C20   O8    A    
C22   N3    A    
H20   N6    S    
H9    N10   S    
H6    N8    S    
C1    O1    A    
C11   C15   A    
C6    F2    S    
Cu2   N3    S    
C25   N1    A    
H13   N2    S    
C23   N1    A    
C5    F1    S    
C10   C15   A    
C21   O6    A    
C12   O2    A    
H2    N6    S    
C1    C19   S    
H5    N8    S    
Cu1   O5    S    
C23   H12   S    
C11   N6    S    
C14   C20   S    
H19   N5    S    
C15   C21   S    
H7    N9    S    
C7    F3    S    
Cu2   O2    S    
C3    C18   A    
H3    N7    S    
C3    N10   S    
C12   C18   S    
Cu1   Cu2   S    
C22   H1    S    
C6    C17   A    
C25   H15   S    
Cu1   O1    S    
C5    C16   A    
H11   N2    S    
C4    N2    S    
C13   N7    S    
H18   N5    S    
C26   N8    S    
C3    C26   A    
Cu2   O8    S    
H8    N9    S    
C21   O7    A    
C16   C17   S    
Cu2   O6    S    
C22   C25   A    
C8    F4    S    
