data_mof_unit_56747.cif
_audit_creation_date              2013-03-05T15:55:06-0500
_audit_creation_method            fapswitch 2.2
_symmetry_space_group_name_H-M    P1
_symmetry_Int_Tables_number       1
_space_group_crystal_system       triclinic
_cell_length_a                    13.490814
_cell_length_b                    13.988499
_cell_length_c                    30.077767
_cell_angle_alpha                 97.952238
_cell_angle_beta                  90.493302
_cell_angle_gamma                 118.674489
_cell_volume                      4913.74499413

loop_
_atom_site_label
_atom_site_type_symbol
_atom_site_description
_atom_site_fract_x
_atom_site_fract_y
_atom_site_fract_z
_atom_type_partial_charge
O1    O     O_R   0.493980 0.188910 0.559650 -0.534150
O2    O     O_R   0.678640 0.153520 0.554450 -0.529141
C1    C     C_R   0.721937 0.099468 0.569008 0.814126
O3    O     O_R   0.698130 0.004030 0.549500 -0.511533
O4    O     O_R   0.481060 0.827210 0.535360 -0.508511
C2    C     C_R   0.383715 0.786910 0.550598 0.893476
O5    O     O_R   0.309260 0.811560 0.537660 -0.506400
O6    O     O_R   0.341620 0.023400 0.546290 -0.529553
C3    C     C_R   0.397640 0.119111 0.569563 0.795686
O7    O     O_R   0.493030 0.185890 0.461780 -0.534516
O8    O     O_R   0.677760 0.150720 0.463730 -0.511559
C4    C     C_R   0.722611 0.096720 0.443306 0.892957
O9    O     O_R   0.697180 0.001010 0.451640 -0.525281
O10   O     O_R   0.480180 0.824400 0.444640 -0.540254
C5    C     C_R   0.381635 0.783645 0.424551 0.828283
O11   O     O_R   0.308310 0.808540 0.439800 -0.494057
O12   O     O_R   0.340740 0.020600 0.455570 -0.504455
C6    C     C_R   0.395813 0.114084 0.442592 0.900974
Cr1   Cr    Cr6+3 0.583430 0.162610 0.509470 1.026194
Cr2   Cr    Cr6+3 0.584210 0.916680 0.495400 1.031651
Cr3   Cr    Cr6+3 0.332380 0.920740 0.495100 1.062612
O13   O     O_3   0.500010 0.000010 0.499990 -0.371378
H1    H     H_    0.154332 0.579838 0.796205 0.208185
C7    C     C_R   0.365755 0.726554 0.589264 -0.292834
C8    C     C_R   0.459121 0.727288 0.612241 0.363756
C9    C     C_R   0.449711 0.698892 0.654992 -0.217777
C10   C     C_R   0.349321 0.667865 0.675281 -0.123812
C11   C     C_R   0.252684 0.655688 0.651826 0.446638
C12   C     C_R   0.259488 0.680782 0.607998 0.279838
C13   C     C_R   0.223690 0.596013 0.819973 -0.149612
C14   C     C_R   0.201263 0.571185 0.862926 0.361182
C15   C     C_R   0.402299 0.630059 0.879962 0.341692
C16   C     C_R   0.423605 0.659366 0.836667 0.355843
C17   C     C_R   0.332665 0.637055 0.806565 -0.083291
C18   C     C_1   0.345722 0.648952 0.760516 0.149246
C19   C     C_1   0.348755 0.656041 0.721436 0.096299
C20   C     C_R   0.290415 0.586512 0.893683 -0.284146
H2    H     H_    0.522796 0.705042 0.673251 0.199929
C21   C     C_3   0.220571 0.134930 0.722505 -0.232522
C22   C     C_3   0.242372 0.064833 0.752938 0.274771
H3    H     H_    0.138369 0.112762 0.704486 0.192622
C23   C     C_1   0.295097 0.198156 0.876418 -0.109138
C24   C     C_1   0.365547 0.137787 0.613688 -0.119055
C25   C     C_3   0.291299 0.239042 0.758236 0.379701
C26   C     C_3   0.312162 0.168964 0.788311 -0.110460
C27   C     C_3   0.401436 0.262786 0.735551 -0.210072
C28   C     C_3   0.331148 0.157546 0.700575 -0.068903
C29   C     C_3   0.422110 0.192195 0.765914 0.260769
C30   C     C_3   0.352418 0.087755 0.730761 0.406948
C31   C     C_1   0.302826 0.180171 0.836791 0.160255
C32   C     C_1   0.346370 0.148762 0.652457 0.102187
H4    H     H_    0.465712 0.344259 0.727854 0.194959
C33   C     C_3   0.923883 0.260851 0.733012 0.412637
C34   C     C_3   0.841062 0.269629 0.766428 -0.068518
H5    H     H_    0.844892 0.347189 0.783377 0.203086
H6    H     H_    0.660447 0.173763 0.724385 0.205484
C35   C     C_1   0.896025 0.203882 0.878237 -0.085625
C36   C     C_1   0.772504 0.132916 0.614155 -0.082970
C37   C     C_3   0.934427 0.175944 0.757732 -0.248371
C38   C     C_3   0.849196 0.182840 0.790399 0.019755
C39   C     C_3   0.832219 0.082564 0.727096 0.438937
C40   C     C_3   0.823860 0.167055 0.702279 -0.012839
C41   C     C_3   0.747458 0.087643 0.760007 -0.192515
C42   C     C_3   0.739624 0.174259 0.735098 -0.212157
C43   C     C_1   0.868876 0.192839 0.838958 0.092361
C44   C     C_1   0.801949 0.152419 0.653617 0.106247
H7    H     H_    0.675578 0.016357 0.771644 0.151304
H8    H     H_    0.013613 0.175393 0.767476 0.189245
C45   C     C_3   0.238189 0.591410 0.258620 -0.285180
C46   C     C_3   0.252656 0.680423 0.230069 0.409077
H9    H     H_    0.158506 0.529089 0.270338 0.146181
H10   H     H_    0.367127 0.854426 0.275469 0.173377
C47   C     C_1   0.308396 0.607546 0.111362 -0.145383
C48   C     C_1   0.363694 0.733299 0.378530 -0.085094
C49   C     C_3   0.320700 0.568704 0.229377 0.415734
C50   C     C_3   0.332518 0.655699 0.200645 -0.012112
C51   C     C_3   0.425695 0.656178 0.260785 -0.249356
C52   C     C_3   0.343450 0.681591 0.289503 -0.033580
C53   C     C_3   0.434246 0.743451 0.232334 0.407446
C54   C     C_3   0.354949 0.771394 0.261508 -0.227018
C55   C     C_1   0.324019 0.635170 0.151512 0.079619
C56   C     C_1   0.352526 0.703775 0.338539 0.067799
H11   H     H_    0.496246 0.645413 0.273927 0.157569
H12   H     H_    0.203416 0.027048 0.161593 0.151417
C57   C     C_R   0.358082 0.132313 0.399537 -0.341320
C58   C     C_R   0.407233 0.241118 0.389720 0.338729
C59   C     C_R   0.403754 0.258566 0.344795 0.347544
C60   C     C_R   0.348325 0.166633 0.310224 -0.213217
C61   C     C_R   0.284885 0.060253 0.320751 0.361592
C62   C     C_R   0.290517 0.042236 0.365036 0.246933
C63   C     C_R   0.266686 0.097005 0.147867 -0.283089
C64   C     C_R   0.252114 0.107034 0.102542 0.523901
C65   C     C_R   0.425173 0.284167 0.115314 -0.240461
C66   C     C_R   0.443198 0.270139 0.158880 0.434895
C67   C     C_R   0.359377 0.180489 0.176252 -0.038487
C68   C     C_1   0.360453 0.179139 0.223736 0.041178
C69   C     C_1   0.356663 0.177219 0.263458 0.088451
C70   C     C_R   0.325238 0.207833 0.088192 -0.204492
H13   H     H_    0.486704 0.358953 0.103864 0.203513
H14   H     H_    0.924402 0.388036 0.196269 0.136932
C71   C     C_R   0.796354 0.141786 0.406409 -0.363536
C72   C     C_R   0.821248 0.071757 0.375311 0.345388
C73   C     C_R   0.868948 0.106502 0.335395 0.268632
C74   C     C_R   0.896346 0.211972 0.326857 -0.188763
C75   C     C_R   0.882666 0.286082 0.359210 0.393514
C76   C     C_R   0.836552 0.252657 0.399676 0.260681
C77   C     C_R   0.948082 0.332179 0.176787 -0.210182
C78   C     C_R   0.957736 0.331262 0.129998 0.413079
C79   C     C_R   0.991578 0.173627 0.127029 0.376760
C80   C     C_R   0.988644 0.181242 0.173765 -0.198736
C81   C     C_R   0.966072 0.259159 0.198390 -0.003530
C82   C     C_1   0.949190 0.254140 0.245085 -0.002838
C83   C     C_1   0.929195 0.239945 0.283166 0.131113
C84   C     C_R   0.980361 0.251191 0.104701 -0.235899
H15   H     H_    0.001498 0.124051 0.190757 0.155362
O14   O     O_R   0.969650 0.150960 0.933380 -0.539850
O15   O     O_R   0.187740 0.180870 0.937580 -0.528250
C85   C     C_R   0.283636 0.232378 0.922041 0.788414
O16   O     O_R   0.358510 0.327410 0.940870 -0.553468
O17   O     O_R   0.324180 0.507870 0.953930 -0.529807
C86   C     C_R   0.263331 0.543383 0.936755 0.895065
O18   O     O_R   0.170560 0.527890 0.952050 -0.508770
O19   O     O_R   0.987620 0.318470 0.945550 -0.506923
C87   C     C_R   0.944833 0.221868 0.922906 0.832928
O20   O     O_R   0.976400 0.159270 0.031530 -0.516408
O21   O     O_R   0.194000 0.188570 0.028560 -0.505494
C88   C     C_R   0.294496 0.242446 0.048378 0.835201
O22   O     O_R   0.365260 0.335720 0.039020 -0.554280
O23   O     O_R   0.330440 0.515580 0.044910 -0.528062
C89   C     C_R   0.275400 0.558915 0.065137 0.775772
O24   O     O_R   0.177310 0.536200 0.050190 -0.551132
O25   O     O_R   0.993870 0.326170 0.036530 -0.507439
C90   C     C_R   0.002869 0.253092 0.056263 0.869789
Cr4   Cr    Cr6+3 0.086810 0.177030 0.983130 1.013613
Cr5   Cr    Cr6+3 0.337180 0.419300 0.994610 0.956077
Cr6   Cr    Cr6+3 0.084840 0.422330 0.995830 1.018149
O26   O     O_3   0.169610 0.339550 0.991190 -0.377848
Cl1   Cl    Cl    0.056519 0.510945 0.873330 -0.587639
O27   O     O_3   0.382090 0.007636 0.711940 -0.548577
C91   C     C_3   0.410717 0.964246 0.746372 -0.195468
H16   H     H_    0.345598 0.936708 0.771009 0.176919
H17   H     H_    0.494777 0.024722 0.763889 0.187890
H18   H     H_    0.417376 0.891240 0.730763 0.141173
Cl2   Cl    Cl    0.554489 0.238502 0.797017 -0.659216
Cl3   Cl    Cl    0.253606 0.342501 0.777674 -0.623604
Cl4   Cl    Cl    0.039663 0.375286 0.714641 -0.529670
O28   O     O_3   0.827341 0.985798 0.703424 -0.536209
C92   C     C_3   0.836327 0.922964 0.734416 -0.085188
H19   H     H_    0.763687 0.894941 0.755730 0.153292
H20   H     H_    0.918107 0.969495 0.755786 0.156560
H21   H     H_    0.834158 0.848134 0.715326 0.197372
O29   O     O_3   0.166687 0.696331 0.211153 -0.559295
C93   C     C_3   0.085999 0.683511 0.242486 -0.189795
H22   H     H_    0.126090 0.738274 0.275333 0.213514
H23   H     H_    0.036442 0.595887 0.247320 0.121931
H24   H     H_    0.024997 0.706118 0.228741 0.154880
O30   O     O_3   0.533536 0.819730 0.215279 -0.542753
C94   C     C_3   0.607967 0.898676 0.251177 -0.120259
H25   H     H_    0.631059 0.859316 0.276126 0.179822
H26   H     H_    0.571543 0.949275 0.267935 0.108962
H27   H     H_    0.686923 0.955736 0.237312 0.199516
O31   O     O_3   0.302625 0.464001 0.208883 -0.544666
C95   C     C_3   0.281208 0.395955 0.241918 -0.144172
H28   H     H_    0.204061 0.383310 0.258928 0.129791
H29   H     H_    0.355569 0.429609 0.267046 0.171129
H30   H     H_    0.264616 0.313588 0.225056 0.157472
O32   O     O_3   0.161781 0.025585 0.073296 -0.521178
C96   C     C_3   0.152707 0.920918 0.073865 -0.213357
H31   H     H_    0.236760 0.923855 0.073655 0.132565
H32   H     H_    0.100705 0.864784 0.042970 0.170275
H33   H     H_    0.107864 0.884759 0.103105 0.135163
O33   O     O_3   0.224799 0.971311 0.286748 -0.539312
C97   C     C_3   0.117184 0.961722 0.278152 -0.107564
H34   H     H_    0.123451 0.039148 0.269431 0.144706
H35   H     H_    0.065805 0.937497 0.307418 0.192750
H36   H     H_    0.071722 0.896173 0.248724 0.150044
O34   O     O_3   0.150045 0.614329 0.670850 -0.507004
C98   C     C_3   0.139904 0.703441 0.694237 -0.000983
H37   H     H_    0.150256 0.764977 0.672273 0.164524
H38   H     H_    0.201617 0.744364 0.724477 0.105147
H39   H     H_    0.053716 0.670811 0.706087 0.193927
Cl5   Cl    Cl    0.214446 0.904002 0.374368 -0.608197
O35   O     O_3   0.452766 0.329469 0.424991 -0.530475
C99   C     C_3   0.571341 0.393502 0.423703 -0.005930
H40   H     H_    0.591101 0.467741 0.408454 0.146785
H41   H     H_    0.611354 0.347184 0.405866 0.102816
H42   H     H_    0.611000 0.422897 0.458830 0.178218
Cl6   Cl    Cl    0.568212 0.370642 0.191391 -0.688523
O36   O     O_3   0.446436 0.365530 0.336199 -0.541966
C100  C     C_3   0.545387 0.397083 0.313030 -0.223123
H43   H     H_    0.526855 0.407220 0.278687 0.218510
H44   H     H_    0.580417 0.338889 0.310892 0.109425
H45   H     H_    0.612510 0.478927 0.330135 0.152762
O37   O     O_3   0.933326 0.399010 0.107597 -0.533592
C101  C     C_3   0.992662 0.509887 0.129247 -0.103584
H46   H     H_    0.080554 0.534435 0.142040 0.141955
H47   H     H_    0.945140 0.524782 0.156831 0.143512
H48   H     H_    0.999228 0.563865 0.104387 0.160964
O38   O     O_3   0.919945 0.393450 0.352230 -0.511358
C102  C     C_3   0.828668 0.399075 0.331900 -0.150828
H49   H     H_    0.758544 0.378720 0.354269 0.132132
H50   H     H_    0.796469 0.344048 0.298683 0.109488
H51   H     H_    0.858974 0.484885 0.325914 0.168842
Cl7   Cl    Cl    0.834791 0.353967 0.441474 -0.558213
O39   O     O_3   0.790738 0.965458 0.381785 -0.519736
C103  C     C_3   0.883710 0.967796 0.404789 -0.042334
H52   H     H_    0.907864 0.022160 0.438206 0.112437
H53   H     H_    0.958211 0.994479 0.384424 0.150606
H54   H     H_    0.858868 0.883032 0.410818 0.160272
Cl8   Cl    Cl    0.132495 0.652029 0.577880 -0.499840
O40   O     O_3   0.012226 0.093944 0.103371 -0.523492
C104  C     C_3   0.915575 0.989353 0.101972 -0.085506
H55   H     H_    0.836703 0.988700 0.090139 0.125411
H56   H     H_    0.906719 0.961749 0.135335 0.113816
H57   H     H_    0.926017 0.928351 0.077591 0.172545
Cl9   Cl    Cl    0.890193 0.014459 0.295324 -0.730977
Cl10  Cl    Cl    0.592539 0.765603 0.591032 -0.548625
Cl11  Cl    Cl    0.563400 0.724526 0.820318 -0.643257
O41   O     O_3   0.490573 0.646791 0.909478 -0.537753
C105  C     C_3   0.519277 0.562348 0.897218 -0.009783
H58   H     H_    0.444138 0.479866 0.885293 0.130125
H59   H     H_    0.561515 0.554751 0.927300 0.143928
H60   H     H_    0.580452 0.583916 0.871055 0.187561
Cl12  Cl    Cl    0.135191 0.935402 0.764852 -0.674285

loop_
_geom_bond_atom_site_label_1
_geom_bond_atom_site_label_2
_geom_bond_distance
_ccdc_geom_bond_type
O20   Cr4   2.044975 S    
O6    C3    1.270531 A    
C37   C38   1.548060 S    
C59   C60   1.409952 A    
O30   C94   1.407432 S    
C74   C83   1.436105 S    
C34   H5    1.110130 S    
C8    Cl10  1.767068 S    
C67   C68   1.430994 S    
C64   O32   1.388818 S    
C91   H18   1.107938 S    
O28   C92   1.408271 S    
C49   C50   1.536333 S    
O21   C88   1.281656 A    
C5    C48   1.425318 S    
Cr4   O26   1.969954 S    
C105  H59   1.109257 S    
C98   H37   1.113764 S    
C33   C37   1.545427 S    
C64   C70   1.410126 A    
O19   C87   1.270084 A    
C28   C30   1.539275 S    
O4    Cr2   1.929011 S    
C34   C38   1.540921 S    
C51   C52   1.553585 S    
C16   Cl11  1.766279 S    
C4    O9    1.275379 A    
O8    Cr1   1.926089 S    
C9    C10   1.385059 A    
C65   C66   1.387879 A    
C22   Cl12  1.781398 S    
C38   C41   1.542821 S    
C11   C12   1.403078 A    
C95   H29   1.111088 S    
C92   H20   1.112168 S    
O23   C89   1.275399 A    
C13   C14   1.382467 A    
C103  H53   1.112899 S    
C26   C29   1.541034 S    
O14   Cr4   2.031128 S    
C51   H11   1.110123 S    
C5    O11   1.266649 A    
O8    C4    1.276998 A    
C27   H4    1.110165 S    
C99   H40   1.108194 S    
C29   Cl2   1.782591 S    
C39   C41   1.539647 S    
C17   C18   1.420186 S    
C27   C28   1.545248 S    
C78   C84   1.422297 A    
C45   H9    1.109973 S    
C85   O16   1.265478 A    
C105  H58   1.115471 S    
C40   C42   1.541966 S    
C100  H45   1.108836 S    
O23   Cr5   1.914986 S    
C36   C44   1.199715 T    
C96   H33   1.110796 S    
C95   H28   1.110767 S    
C99   H41   1.115106 S    
C102  H49   1.110938 S    
C81   C82   1.430657 S    
C77   C78   1.413292 A    
C92   H21   1.109186 S    
C7    C8    1.426505 A    
C45   C49   1.546744 S    
H12   C63   1.083017 S    
C93   H23   1.111343 S    
C11   O34   1.384152 S    
C65   H13   1.083202 S    
C60   C69   1.434408 S    
C94   H27   1.108803 S    
C59   O36   1.385654 S    
C101  H48   1.109163 S    
C96   H32   1.109277 S    
O37   C101  1.410851 S    
O38   C102  1.410588 S    
C97   H34   1.113606 S    
Cr3   O13   1.976885 S    
C94   H26   1.111684 S    
C45   C52   1.550705 S    
C45   C46   1.546437 S    
C48   C56   1.199912 T    
O15   Cr4   1.927749 S    
O21   Cr4   1.914490 S    
C47   C55   1.200178 T    
C82   C83   1.200390 T    
C25   C27   1.546009 S    
O6    Cr3   1.913514 S    
C41   H7    1.109816 S    
C51   C53   1.546494 S    
C22   C26   1.542089 S    
C57   C62   1.419551 A    
C27   C29   1.548000 S    
C3    C24   1.428138 S    
C6    C57   1.485167 S    
C37   C39   1.540521 S    
C13   C17   1.384891 A    
C41   C42   1.553456 S    
C46   C54   1.541847 S    
C72   C73   1.402273 A    
C15   O41   1.384895 S    
C71   C72   1.419464 A    
C62   Cl5   1.766872 S    
C12   Cl8   1.768840 S    
C95   H30   1.106210 S    
O1    C3    1.265252 A    
C91   H16   1.111188 S    
C25   Cl3   1.781047 S    
O24   Cr6   2.025858 S    
O22   Cr5   2.035467 S    
O32   C96   1.412069 S    
C40   C44   1.457090 S    
C103  H52   1.113467 S    
O25   C90   1.302977 A    
C28   C32   1.460141 S    
C8    C9    1.386752 A    
C57   C58   1.415144 A    
O1    Cr1   2.042882 S    
C76   Cl7   1.769007 S    
O36   C100  1.413552 S    
O16   Cr5   2.033674 S    
C1    O3    1.264237 A    
C80   C81   1.388642 A    
C23   C85   1.424435 S    
C93   H24   1.108269 S    
C18   C19   1.192631 T    
O3    Cr2   2.026683 S    
C94   H25   1.112751 S    
O35   C99   1.413640 S    
H1    C13   1.085514 S    
C100  H43   1.104412 S    
O10   Cr2   1.909490 S    
C37   H8    1.109198 S    
C33   C40   1.529931 S    
C52   C56   1.456152 S    
C79   O40   1.381413 S    
O40   C104  1.412013 S    
O10   C5    1.273206 A    
C104  H57   1.108942 S    
O7    Cr1   2.032532 S    
O25   Cr6   1.926495 S    
C2    C7    1.484682 S    
C68   C69   1.199737 T    
Cr1   O13   1.969728 S    
H6    C42   1.109583 S    
O12   C6    1.276049 A    
C46   O29   1.410569 S    
C66   C67   1.398214 A    
C15   C20   1.420427 A    
C104  H55   1.114542 S    
C14   Cl1   1.767909 S    
C7    C12   1.419714 A    
C49   C51   1.545923 S    
O18   Cr6   2.043826 S    
C86   O18   1.265781 A    
C2    O5    1.281426 A    
C97   H35   1.112537 S    
C79   C84   1.417250 A    
C23   C31   1.199638 T    
C20   C86   1.479429 S    
C66   Cl6   1.758660 S    
C96   H31   1.114907 S    
C104  H56   1.111465 S    
C38   C43   1.457549 S    
C49   O31   1.410482 S    
C46   C50   1.533938 S    
C58   O35   1.388395 S    
C53   C54   1.545893 S    
Cr2   O13   1.974089 S    
C78   O37   1.390305 S    
C88   O22   1.266448 A    
C61   C62   1.397502 A    
O41   C105  1.414965 S    
O33   C97   1.410562 S    
C21   C28   1.543492 S    
O31   C95   1.406941 S    
C97   H36   1.107600 S    
O20   C90   1.295726 A    
C71   C76   1.422012 A    
Cr5   O26   1.977294 S    
O39   C103  1.411529 S    
C47   C89   1.425140 S    
C70   C88   1.478209 S    
H14   C77   1.082592 S    
C100  H44   1.115959 S    
O14   C87   1.264327 A    
O9    Cr2   2.045858 S    
O2    Cr1   1.915919 S    
C58   C59   1.410239 A    
C77   C81   1.394017 A    
C9    H2    1.085060 S    
C25   C26   1.537596 S    
C61   O33   1.384487 S    
C35   C43   1.200649 T    
Cr6   O26   1.974112 S    
C50   C55   1.458634 S    
C53   O30   1.409828 S    
C98   H38   1.110698 S    
O27   C91   1.407880 S    
O11   Cr3   2.028458 S    
C33   C34   1.546125 S    
C21   C25   1.549896 S    
C91   H17   1.106809 S    
C10   C19   1.420246 S    
C75   C76   1.406539 A    
C99   H42   1.109317 S    
O19   Cr6   1.909795 S    
O17   Cr5   1.920202 S    
C15   C16   1.409800 A    
C30   O27   1.412670 S    
O2    C1    1.271085 A    
C39   O28   1.410880 S    
C4    C71   1.493131 S    
H10   C54   1.110449 S    
O5    Cr3   2.039409 S    
O15   C85   1.272920 A    
C35   C87   1.426264 S    
C103  H54   1.109209 S    
C24   C32   1.201679 T    
O4    C2    1.274327 A    
C34   C42   1.555137 S    
C26   C31   1.457927 S    
O7    C6    1.274540 A    
C102  H51   1.109285 S    
C29   C30   1.540637 S    
C65   C70   1.407766 A    
C33   Cl4   1.779796 S    
C84   C90   1.492021 S    
C16   C17   1.399139 A    
C89   O24   1.265295 A    
C52   C54   1.555328 S    
C92   H19   1.112048 S    
C39   C40   1.528837 S    
C72   O39   1.382950 S    
O12   Cr3   1.920506 S    
C98   H39   1.109136 S    
C63   C67   1.400258 A    
C101  H46   1.112104 S    
C21   C22   1.551236 S    
C1    C36   1.424844 S    
C14   C20   1.423683 A    
C75   O38   1.384551 S    
C50   C53   1.528324 S    
C60   C61   1.399996 A    
C21   H3    1.110336 S    
C80   H15   1.084461 S    
C102  H50   1.112772 S    
O34   C98   1.410712 S    
C73   C74   1.400861 A    
O17   C86   1.281621 A    
O29   C93   1.407961 S    
C101  H47   1.110099 S    
C93   H22   1.113206 S    
C79   C80   1.397302 A    
C73   Cl9   1.767263 S    
C105  H60   1.108751 S    
C63   C64   1.411238 A    
C22   C30   1.539874 S    
C74   C75   1.401168 A    
C10   C11   1.401491 A    
