data_mof_unit_45562.cif
_audit_creation_date              2013-03-05T16:10:48-0500
_audit_creation_method            fapswitch 2.2
_symmetry_space_group_name_H-M    P1
_symmetry_Int_Tables_number       1
_space_group_crystal_system       triclinic
_cell_length_a                    22.463606
_cell_length_b                    7.09413
_cell_length_c                    19.381347
_cell_angle_alpha                 90.010335
_cell_angle_beta                  99.446074
_cell_angle_gamma                 90.00903
_cell_volume                      3046.72639526

loop_
_atom_site_label
_atom_site_type_symbol
_atom_site_description
_atom_site_fract_x
_atom_site_fract_y
_atom_site_fract_z
_atom_type_partial_charge
O1    O     O_R   0.443980 0.494320 0.557430 -0.573485
O2    O     O_R   0.556020 0.994320 0.442570 -0.573484
O3    O     O_R   0.441210 0.822520 0.414610 -0.590683
O4    O     O_R   0.558790 0.322520 0.585390 -0.590836
C1    C     C_R   0.426676 0.655450 0.388858 0.959609
C2    C     C_R   0.573327 0.155511 0.611148 0.959653
O5    O     O_R   0.436920 0.823940 0.555180 -0.579229
O6    O     O_R   0.563080 0.323940 0.444820 -0.579246
O7    O     O_R   0.551700 0.995760 0.584140 -0.591412
O8    O     O_R   0.448300 0.495760 0.415860 -0.591406
C3    C     C_R   0.421599 0.655315 0.574831 0.948181
C4    C     C_R   0.578401 0.155316 0.425169 0.948239
O9    O     O_3   0.537660 0.661290 0.509340 -0.278666
O10   O     O_3   0.462340 0.161290 0.490660 -0.278558
V1    V     V_3+5 0.493010 0.935560 0.498270 1.202278
V2    V     V_3+5 0.506990 0.435560 0.501730 1.202211
C5    C     C_R   0.756412 0.936398 0.212616 -0.271118
C6    C     C_R   0.243584 0.436431 0.787381 -0.271115
H1    H     H_    0.761875 0.808080 0.183964 0.173983
H2    H     H_    0.238120 0.308136 0.816032 0.173976
C7    C     C_R   0.793275 0.091795 0.204542 0.123694
C8    C     C_R   0.206721 0.591803 0.795456 0.123685
C9    C     C_R   0.786652 0.257097 0.242130 -0.148381
C10   C     C_R   0.213345 0.757074 0.757869 -0.148410
H3    H     H_    0.814621 0.378811 0.236599 0.127230
H4    H     H_    0.185374 0.878765 0.763400 0.127236
C11   C     C_R   0.743865 0.267109 0.287236 -0.137503
C12   C     C_R   0.256133 0.767076 0.712763 -0.137495
H5    H     H_    0.739571 0.396940 0.315456 0.172294
H6    H     H_    0.260428 0.896882 0.684545 0.172307
C13   C     C_R   0.706797 0.112174 0.295857 -0.025867
C14   C     C_R   0.293200 0.612166 0.704141 -0.025880
C15   C     C_R   0.713263 0.943518 0.258163 0.349802
C16   C     C_R   0.286734 0.443542 0.741835 0.349793
C17   C     C_1   0.838268 0.080657 0.158321 0.025486
C18   C     C_1   0.161730 0.580668 0.841678 0.025452
C19   C     C_1   0.661740 0.131611 0.341887 0.146628
C20   C     C_1   0.338258 0.631598 0.658113 0.146648
C21   C     C_1   0.623991 0.144929 0.380064 -0.212171
C22   C     C_1   0.376008 0.644922 0.619936 -0.212106
C23   C     C_1   0.876095 0.071543 0.120111 -0.285587
C24   C     C_1   0.123903 0.571550 0.879889 -0.285603
C25   C     C_R   0.634243 0.202940 0.802884 0.348614
C26   C     C_R   0.365981 0.699316 0.196951 0.348198
H7    H     H_    0.549173 0.245057 0.736052 0.179054
H8    H     H_    0.451098 0.741260 0.263764 0.179330
H9    H     H_    0.719163 0.197565 0.918857 0.186077
H10   H     H_    0.281013 0.693842 0.080991 0.186177
C27   C     C_R   0.616533 0.150179 0.677535 -0.201417
C28   C     C_R   0.383476 0.649817 0.322480 -0.201274
C29   C     C_R   0.911433 0.057474 0.760354 -0.158539
C30   C     C_R   0.088485 0.559482 0.239648 -0.158605
C31   C     C_R   0.875865 0.075902 0.695024 -0.106767
C32   C     C_R   0.124030 0.578881 0.304952 -0.106790
C33   C     C_R   0.813716 0.101278 0.688894 -0.172838
C34   C     C_R   0.186206 0.603632 0.311072 -0.172738
C35   C     C_R   0.784536 0.101319 0.748360 0.125538
C36   C     C_R   0.215438 0.601966 0.251645 0.125477
C37   C     C_R   0.822268 0.097099 0.815552 0.099617
C38   C     C_R   0.177743 0.596765 0.184443 0.099589
C39   C     C_R   0.719951 0.119388 0.743640 0.052192
C40   C     C_R   0.280053 0.619219 0.256377 0.052154
C41   C     C_R   0.696373 0.161115 0.806117 -0.039041
C42   C     C_R   0.303745 0.658976 0.193806 -0.039006
C43   C     C_R   0.735325 0.164258 0.870757 -0.108929
C44   C     C_R   0.264806 0.661589 0.129151 -0.108762
C45   C     C_R   0.796372 0.125888 0.875623 -0.223526
C46   C     C_R   0.203706 0.624061 0.124335 -0.223505
C47   C     C_R   0.677559 0.096606 0.680083 -0.044836
C48   C     C_R   0.322367 0.597321 0.320036 -0.044597
C49   C     C_R   0.596185 0.206697 0.738349 -0.241122
C50   C     C_R   0.403992 0.704091 0.261519 -0.241652
C51   C     C_R   0.885759 0.071587 0.821048 -0.166534
C52   C     C_R   0.114221 0.571944 0.178954 -0.166432
H11   H     H_    0.959708 0.038820 0.763692 0.107286
H12   H     H_    0.040183 0.541466 0.236312 0.107256
H13   H     H_    0.790521 0.131609 0.637073 0.133003
H14   H     H_    0.209385 0.634874 0.362826 0.133067
H15   H     H_    0.896839 0.074448 0.648560 0.118045
H16   H     H_    0.103018 0.578743 0.351393 0.118044
H17   H     H_    0.823719 0.127125 0.927135 0.116386
H18   H     H_    0.176381 0.624717 0.072808 0.116189
O11   O     O_R   0.051730 0.724670 0.084120 -0.585599
O12   O     O_R   0.948270 0.224670 0.915880 -0.585642
O13   O     O_R   0.063080 0.393540 0.944820 -0.586111
O14   O     O_R   0.936920 0.893540 0.055180 -0.586100
C53   C     C_R   0.078240 0.562137 0.924952 0.961792
C54   C     C_R   0.921759 0.062136 0.075048 0.961822
O15   O     O_R   0.058800 0.395030 0.085390 -0.585981
O16   O     O_R   0.941200 0.895030 0.914610 -0.585958
O17   O     O_R   0.943980 0.223310 0.057440 -0.586577
O18   O     O_R   0.056020 0.723310 0.942560 -0.586524
C55   C     C_R   0.072839 0.563589 0.111250 0.913089
C56   C     C_R   0.927154 0.063528 0.888751 0.913057
O19   O     O_3   0.962360 0.556290 0.990650 -0.274934
O20   O     O_3   0.037640 0.056290 0.009350 -0.274890
V3    V     V_3+5 0.006980 0.281990 0.001730 1.174247
V4    V     V_3+5 0.993020 0.781990 0.998270 1.174316
N1    N     N_R   0.676804 0.779359 0.264921 0.233656
O21   O     O_R   0.657330 0.743232 0.323153 -0.422642
O22   O     O_R   0.667253 0.655841 0.214651 -0.358582
N2    N     N_R   0.323192 0.279410 0.735077 0.233632
O23   O     O_R   0.342667 0.243244 0.676844 -0.422626
O24   O     O_R   0.332743 0.155947 0.785345 -0.358732
N3    N     N_R   0.608764 0.242637 0.864623 0.238702
O25   O     O_R   0.612821 0.118247 0.914511 -0.333516
O26   O     O_R   0.571467 0.382901 0.864789 -0.321305
N4    N     N_R   0.391651 0.735964 0.135096 0.238923
O27   O     O_R   0.386863 0.610620 0.085461 -0.334378
O28   O     O_R   0.429848 0.873714 0.134657 -0.320284
N5    N     N_3   0.694563 0.005637 0.620151 -0.215998
H19   H     H_    0.668746 0.883237 0.609594 0.140675
H20   H     H_    0.684844 0.095942 0.577123 0.071982
N6    N     N_3   0.305199 0.508128 0.380212 -0.216148
H21   H     H_    0.330843 0.385558 0.391156 0.140125
H22   H     H_    0.315012 0.599325 0.422981 0.071983

loop_
_geom_bond_atom_site_label_1
_geom_bond_atom_site_label_2
_geom_bond_distance
_ccdc_geom_bond_type
C36   C40   1.444466 A    
C44   C46   1.386087 A    
C41   C43   1.405639 A    
C11   H5    1.083478 S    
C31   C33   1.393283 A    
C18   C24   1.217052 T    
N5    H19   1.045472 S    
O1    C3    1.314015 A    
O2    C4    1.313992 A    
C2    O7    1.307867 A    
N6    H21   1.045480 S    
O19   V4    1.739544 S    
O18   V4    1.960491 S    
C48   N6    1.434284 S    
O5    C3    1.318169 A    
N3    O26   1.301241 A    
C16   N2    1.441908 S    
O12   V3    1.988091 S    
H9    C43   1.080642 S    
C31   H15   1.082738 S    
C29   H11   1.083831 S    
C30   C52   1.396070 A    
C33   H13   1.074652 S    
O14   C54   1.318255 A    
C35   C37   1.432803 A    
H7    C49   1.084413 S    
C36   C38   1.432750 A    
O11   C55   1.313666 A    
C34   H14   1.074621 S    
N4    O27   1.301307 A    
C40   C48   1.437021 A    
C25   N3    1.436474 S    
C38   C52   1.424272 A    
C39   C41   1.429980 A    
C28   C50   1.391201 A    
C40   C42   1.430168 A    
C37   C45   1.399242 A    
N4    O28   1.301308 A    
C43   C45   1.386091 A    
O11   V4    1.988302 S    
O20   V4    2.183108 S    
C13   C15   1.421598 A    
C9    C11   1.403183 A    
C37   C51   1.424254 A    
H8    C50   1.084413 S    
O5    V1    1.971635 S    
O6    V2    1.971633 S    
C27   C47   1.415678 A    
C53   O18   1.314874 A    
C52   C55   1.479557 S    
N2    O23   1.301170 A    
C5    C15   1.414975 A    
C51   C56   1.479617 S    
O14   V4    1.971598 S    
C30   C32   1.388032 A    
O16   C56   1.314545 A    
C32   H16   1.082767 S    
C26   N4    1.436750 S    
C32   C34   1.393274 A    
O13   C53   1.318280 A    
C25   C41   1.418177 A    
C29   C51   1.396078 A    
C12   C14   1.405286 A    
O4    C2    1.306289 A    
C30   H12   1.083860 S    
C11   C13   1.405274 A    
C5    C7    1.402792 A    
C13   C19   1.461394 S    
O15   V3    2.001723 S    
C15   N1    1.441903 S    
C42   C44   1.405671 A    
O4    V2    2.001904 S    
N1    O21   1.301147 A    
C54   O17   1.314857 A    
O6    C4    1.318137 A    
O20   V3    1.739792 S    
N5    H20   1.045951 S    
O1    V2    1.960664 S    
O12   C56   1.313784 A    
O17   V3    1.960474 S    
N2    O24   1.301585 A    
O2    V1    1.960650 S    
C6    C16   1.414985 A    
N1    O22   1.301583 A    
C45   H17   1.082997 S    
C14   C20   1.461403 S    
C7    C9    1.401196 A    
C8    C10   1.401191 A    
C1    C28   1.479390 S    
C26   C42   1.418473 A    
O3    V1    2.001523 S    
C39   C47   1.437063 A    
C23   C54   1.453793 S    
C25   C49   1.394655 A    
C6    C8    1.402808 A    
C10   C12   1.403183 A    
C10   H4    1.083428 S    
O3    C1    1.306374 A    
N6    H22   1.045968 S    
O19   V3    2.183459 S    
C35   C39   1.444351 A    
C7    C17   1.458576 S    
C8    C18   1.458568 S    
N3    O25   1.301273 A    
C46   H18   1.082999 S    
C4    C21   1.453386 S    
C33   C35   1.416348 A    
C28   C48   1.415567 A    
C1    O8    1.307724 A    
C19   C21   1.217146 T    
O8    V2    1.992630 S    
C20   C22   1.217158 T    
C47   N5    1.434227 S    
C12   H6    1.083451 S    
C5    H1    1.083657 S    
C34   C36   1.416400 A    
C26   C50   1.394806 A    
C6    H2    1.083645 S    
C9    H3    1.083404 S    
C2    C27   1.479547 S    
O15   C55   1.314659 A    
C3    C22   1.453402 S    
C17   C23   1.217053 T    
O13   V3    1.971600 S    
C38   C46   1.399244 A    
C27   C49   1.391289 A    
O9    V2    1.739820 S    
H10   C44   1.080628 S    
O10   V1    1.740070 S    
C24   C53   1.453785 S    
C29   C31   1.388063 A    
O16   V4    2.002106 S    
O7    V1    1.992411 S    
C14   C16   1.421583 A    
