data_mof_unit_59120.cif
_audit_creation_date              2013-03-05T16:35:52-0500
_audit_creation_method            fapswitch 2.2
_symmetry_space_group_name_H-M    P1
_symmetry_Int_Tables_number       1
_space_group_crystal_system       triclinic
_cell_length_a                    23.64672
_cell_length_b                    9.091979
_cell_length_c                    7.783209
_cell_angle_alpha                 90.860734
_cell_angle_beta                  89.955147
_cell_angle_gamma                 90.002271
_cell_volume                      1673.16543686

loop_
_atom_site_label
_atom_site_type_symbol
_atom_site_description
_atom_site_fract_x
_atom_site_fract_y
_atom_site_fract_z
_atom_type_partial_charge
O1    O     O_R   0.500000 0.288390 0.642760 -0.578020
O2    O     O_R   0.500000 0.711610 0.357240 -0.579274
O3    O     O_R   0.500000 0.711610 0.642760 -0.579562
O4    O     O_R   0.500000 0.288390 0.357240 -0.572375
C1    C     C_R   0.499995 0.220006 0.499210 0.849834
C2    C     C_R   0.499990 0.779993 0.500791 0.838648
O5    O     O_R   0.417880 0.500000 0.642820 -0.610348
O6    O     O_R   0.582120 0.500000 0.357180 -0.563061
O7    O     O_R   0.582120 0.500000 0.642820 -0.561165
O8    O     O_R   0.417880 0.500000 0.357180 -0.548365
C3    C     C_R   0.208126 0.500258 0.497558 0.063040
C4    C     C_R   0.791335 0.499484 0.498223 0.102252
C5    C     C_R   0.390549 0.500623 0.500304 0.861937
C6    C     C_R   0.609338 0.499855 0.499914 0.897691
Cu1   Cu    Cu3+1 0.500000 0.500000 0.669080 1.017624
Cu2   Cu    Cu3+1 0.500000 0.500000 0.330920 1.036503
C7    C     C_R   0.296774 0.559493 0.642440 0.011021
C8    C     C_R   0.701875 0.436695 0.359491 0.002286
C9    C     C_R   0.297903 0.441616 0.357925 0.036971
C10   C     C_R   0.702129 0.562117 0.639075 0.002717
C11   C     C_R   0.327711 0.500518 0.500767 -0.197681
C12   C     C_R   0.671965 0.499503 0.499563 -0.137567
C13   C     C_R   0.880839 0.630285 0.511478 0.726462
C14   C     C_R   0.118626 0.369750 0.480798 0.727367
C15   C     C_R   0.880943 0.369258 0.482624 0.726731
C16   C     C_R   0.118596 0.630719 0.511091 0.722060
N1    N     N_R   0.852390 0.499672 0.497427 -0.453253
N2    N     N_R   0.147085 0.500235 0.496202 -0.454692
C17   C     C_R   0.940105 0.368295 0.461082 -0.145588
C18   C     C_R   0.059389 0.631895 0.531501 -0.145602
C19   C     C_R   0.940036 0.631657 0.531826 -0.145371
C20   C     C_R   0.059439 0.368564 0.460133 -0.145864
C21   C     C_R   0.969930 0.500058 0.496233 -0.108214
C22   C     C_R   0.029562 0.500187 0.495909 -0.107236
C23   C     C_R   0.970054 0.242143 0.403045 0.378096
C24   C     C_R   0.029390 0.758140 0.589151 0.377129
C25   C     C_R   0.969950 0.758020 0.589272 0.378377
C26   C     C_R   0.029492 0.242284 0.402519 0.377347
C27   C     C_1   0.499991 0.065355 0.498914 -0.153372
C28   C     C_1   0.499989 0.934643 0.501093 -0.153743
C29   C     C_R   0.237606 0.554981 0.641911 0.440289
C30   C     C_R   0.761242 0.442363 0.355951 0.367409
C31   C     C_R   0.238490 0.445677 0.354654 0.373186
C32   C     C_R   0.761509 0.556499 0.641240 0.367630
N3    N     N_1   0.500000 0.500000 0.076820 -0.037713
N4    N     N_1   0.500000 0.500000 0.923180 -0.042222
O9    O     O_2   0.851735 0.757515 0.502977 -0.390994
O10   O     O_2   0.147709 0.242442 0.488479 -0.389632
O11   O     O_2   0.851989 0.241816 0.491621 -0.390586
O12   O     O_2   0.147701 0.758012 0.503540 -0.388217
Cl1   Cl    Cl    0.934496 0.090207 0.306613 -0.326238
Cl2   Cl    Cl    0.064834 0.910311 0.685493 -0.326105
Cl3   Cl    Cl    0.934373 0.909912 0.685914 -0.326065
Cl4   Cl    Cl    0.064998 0.090407 0.305609 -0.325047
Cl5   Cl    Cl    0.200606 0.617194 0.826574 -0.409835
Cl6   Cl    Cl    0.797651 0.378987 0.170564 -0.462971
Cl7   Cl    Cl    0.202252 0.383170 0.168766 -0.454622
Cl8   Cl    Cl    0.798289 0.619968 0.825732 -0.462387
N5    N     N_3   0.324168 0.628952 0.786743 -0.490537
H1    H     H_    0.351453 0.710677 0.742694 0.236489
H2    H     H_    0.346934 0.550268 0.854188 0.246967
N6    N     N_3   0.671715 0.363004 0.223371 -0.532220
H3    H     H_    0.685336 0.253621 0.216697 0.267377
H4    H     H_    0.681603 0.413201 0.107420 0.261449
N7    N     N_3   0.328171 0.374360 0.217525 -0.529575
H5    H     H_    0.317694 0.429092 0.104879 0.266639
H6    H     H_    0.315126 0.264777 0.205168 0.266249
N8    N     N_3   0.672219 0.635648 0.775949 -0.531620
H7    H     H_    0.682446 0.585569 0.891661 0.261759
H8    H     H_    0.685760 0.745115 0.782202 0.267399

loop_
_geom_bond_atom_site_label_1
_geom_bond_atom_site_label_2
_geom_bond_distance
_ccdc_geom_bond_type
Cu2   N3    1.977713 S    
O4    Cu2   1.937888 S    
O6    C6    1.284356 A    
O7    C6    1.284602 A    
C19   C21   1.413451 A    
C16   C18   1.408955 A    
N6    H3    1.045916 S    
O1    Cu1   1.931767 S    
C13   N1    1.367802 A    
C15   N1    1.367825 A    
C7    C11   1.421126 A    
O2    Cu2   1.931767 S    
C17   C23   1.416035 A    
C16   N2    1.367668 A    
C24   Cl2   1.774432 S    
C18   C24   1.416372 A    
O3    C2    1.275993 A    
C25   Cl3   1.774431 S    
C6    C12   1.480925 S    
C16   O12   1.348515 S    
O5    Cu1   1.952757 S    
C21   C22   1.410097 A    
O7    Cu1   1.952436 S    
C5    C11   1.485903 S    
N5    H1    1.045580 S    
C4    C32   1.409481 A    
O8    Cu2   1.952438 S    
N3    N4    1.195813 T    
C23   Cl1   1.774352 S    
C14   C20   1.408933 A    
O2    C2    1.270444 A    
C3    N2    1.443452 S    
C7    N5    1.435157 S    
O1    C1    1.270435 A    
O4    C1    1.276009 A    
C24   C25   1.405563 A    
C10   C32   1.405218 A    
C10   C12   1.412281 A    
C9    N7    1.434947 S    
C13   C19   1.408905 A    
C7    C29   1.399734 A    
C20   C26   1.416243 A    
C8    C30   1.405037 A    
C15   C17   1.408864 A    
C15   O11   1.348546 S    
C3    C31   1.407520 A    
N5    H2    1.043511 S    
C13   O9    1.348546 S    
C18   C22   1.413664 A    
C4    N1    1.443769 S    
N6    H4    1.043773 S    
Cu1   Cu2   2.631971 S    
C14   O10   1.348520 S    
C17   C21   1.413443 A    
O5    C5    1.284303 A    
C2    C28   1.406037 S    
O3    Cu1   1.937887 S    
C14   N2    1.367662 A    
N8    H8    1.045940 S    
N7    H5    1.044583 S    
O6    Cu2   1.952754 S    
C3    C29   1.407203 A    
C32   Cl8   1.768709 S    
C27   C28   1.188808 T    
C1    C27   1.406050 S    
C31   Cl7   1.768535 S    
C23   C26   1.405522 A    
C29   Cl5   1.767716 S    
C4    C30   1.409330 A    
Cu1   N4    1.977713 S    
C30   Cl6   1.768715 S    
C20   C22   1.413695 A    
C8    C12   1.412447 A    
N7    H6    1.046048 S    
C10   N8    1.435115 S    
C8    N6    1.435193 S    
C19   C25   1.416059 A    
C9    C31   1.405660 A    
N8    H7    1.043825 S    
C9    C11   1.415275 A    
O8    C5    1.287373 A    
C26   Cl4   1.774379 S    
