data_mof_unit_17550.cif
_audit_creation_date              2012-12-11T14:35:55-0500
_audit_creation_method            fapswitch 2.2
_symmetry_space_group_name_H-M    P1
_symmetry_Int_Tables_number       1
_space_group_crystal_system       triclinic
_cell_length_a                    13.475413
_cell_length_b                    13.484978
_cell_length_c                    27.499507
_cell_angle_alpha                 90.826318
_cell_angle_beta                  90.064729
_cell_angle_gamma                 60.039182
_cell_volume                      4328.75856463

loop_
_atom_site_label
_atom_site_type_symbol
_atom_type_description
_atom_site_fract_x
_atom_site_fract_y
_atom_site_fract_z
_atom_type_partial_charge
C1    C     C_R   0.620160 0.101502 0.570230 0.545585
C2    C     C_1   0.648959 0.705966 0.658621 -0.059050
C3    C     C_3   0.090330 0.134181 0.738132 -0.101828
C4    C     C_R   0.599535 0.779775 0.568843 0.544943
C5    C     C_3   0.182164 0.060279 0.776059 -0.100506
C6    C     C_1   0.097049 0.201027 0.901812 -0.017171
C7    C     C_1   0.229702 0.138331 0.617660 -0.016436
C8    C     C_3   0.055229 0.242557 0.770000 -0.101308
C9    C     C_3   0.147492 0.168483 0.807079 0.052730
C10   C     C_3   0.144362 0.263079 0.743354 -0.099100
C11   C     C_3   0.179068 0.154991 0.712254 0.052694
C12   C     C_1   0.630747 0.732935 0.616567 -0.016388
C13   C     C_3   0.236158 0.189268 0.781132 -0.102053
C14   C     C_3   0.271363 0.080873 0.749307 -0.102983
C15   C     C_1   0.124837 0.181754 0.859568 -0.059539
C16   C     C_R   0.277734 0.121944 0.569728 0.544944
C17   C     C_1   0.201771 0.147317 0.659829 -0.059172
C18   C     C_3   0.627575 0.277579 0.740262 -0.101663
C19   C     C_3   0.554357 0.257954 0.778261 -0.099962
C20   C     C_1   0.691422 0.207491 0.903000 -0.018084
C21   C     C_1   0.635089 0.133800 0.618411 -0.016617
C22   C     C_3   0.736085 0.205683 0.771071 -0.101183
C23   C     C_3   0.698596 0.561879 0.767796 -0.101115
C24   C     C_3   0.662710 0.185790 0.808236 0.052925
C25   C     C_3   0.758708 0.095538 0.743334 -0.099208
C26   C     C_3   0.650446 0.167585 0.713294 0.052687
C27   C     C_3   0.685573 0.075862 0.781217 -0.102475
C28   C     C_R   0.622341 0.099256 0.431146 0.547055
C29   C     C_3   0.577036 0.147690 0.750434 -0.102995
C30   C     C_1   0.674491 0.196404 0.860757 -0.059745
C31   C     C_1   0.643358 0.152754 0.660744 -0.059210
C32   C     C_R   0.735474 0.706498 0.359624 -0.134580
C33   C     C_R   0.746984 0.689270 0.309273 0.018510
C34   C     C_3   0.679155 0.655215 0.805628 0.052716
C35   C     C_R   0.758718 0.672226 0.207097 0.021427
C36   C     C_R   0.846056 0.675802 0.233754 -0.126502
C37   C     C_R   0.839990 0.684541 0.284439 -0.148803
C38   C     C_R   0.766207 0.656740 0.156191 0.251991
C39   C     C_R   0.682385 0.641193 0.132009 -0.000715
C40   C     C_R   0.602465 0.775045 0.430560 0.546374
C41   C     C_R   0.560258 0.696463 0.357734 -0.131219
C42   C     C_R   0.567337 0.685232 0.307584 0.018442
C43   C     C_R   0.659972 0.683597 0.283007 0.069291
C44   C     C_R   0.479082 0.683201 0.281581 -0.129516
C45   C     C_3   0.589309 0.649837 0.740996 -0.099117
C46   C     C_R   0.481545 0.681236 0.231150 -0.121894
C47   C     C_R   0.574095 0.677633 0.206421 0.000625
C48   C     C_R   0.664268 0.678137 0.232144 0.022787
C49   C     C_R   0.581471 0.664818 0.156454 -0.180286
C50   C     C_R   0.638473 0.716800 0.383364 -0.005065
C51   C     C_R   0.219694 0.053101 0.357657 -0.134130
C52   C     C_R   0.277403 0.120661 0.431253 0.547926
C53   C     C_R   0.191353 0.067996 0.308381 0.013587
C54   C     C_R   0.149883 0.095647 0.207935 0.015837
C55   C     C_R   0.178973 0.991113 0.229631 -0.126256
C56   C     C_3   0.662894 0.684464 0.710952 0.052807
C57   C     C_R   0.200557 0.977060 0.279512 -0.125456
C58   C     C_R   0.126365 0.111723 0.158184 -0.134336
C59   C     C_R   0.096835 0.217308 0.137359 -0.006005
C60   C     C_R   0.173324 0.251762 0.364835 -0.129214
C61   C     C_R   0.148030 0.267050 0.315674 0.014081
C62   C     C_R   0.159191 0.174296 0.287032 0.062629
C63   C     C_R   0.118449 0.371725 0.294252 -0.127430
C64   C     C_3   0.772060 0.596894 0.736979 -0.101497
C65   C     C_R   0.102797 0.383777 0.244293 -0.123494
C66   C     C_R   0.114214 0.292071 0.215520 0.009292
C67   C     C_3   0.570077 0.742722 0.779544 -0.102279
C68   C     C_R   0.141034 0.187252 0.236812 0.061957
C69   C     C_R   0.095548 0.305115 0.165914 -0.124683
C70   C     C_R   0.216115 0.143412 0.385236 -0.004990
C71   C     C_R   0.567677 0.238013 0.363321 -0.133506
C72   C     C_R   0.573641 0.256328 0.313670 0.015220
C73   C     C_R   0.583690 0.287787 0.213234 0.014209
C74   C     C_R   0.505114 0.378551 0.243063 -0.125772
C75   C     C_R   0.499214 0.362534 0.292905 -0.127158
C76   C     C_3   0.752860 0.689820 0.775657 -0.100700
C77   C     C_R   0.595536 0.304020 0.163869 -0.134288
C78   C     C_3   0.643465 0.777818 0.748773 -0.103093
C79   C     C_R   0.678715 0.213022 0.135417 -0.005849
C80   C     C_R   0.727808 0.043821 0.353759 -0.127375
C81   C     C_R   0.731451 0.058963 0.304261 0.011738
C82   C     C_R   0.653743 0.165197 0.283905 0.062102
C83   C     C_R   0.809295 0.967826 0.274663 -0.124292
C84   C     C_R   0.809883 0.981333 0.224749 -0.131115
C85   C     C_R   0.734790 0.087188 0.204235 0.012836
C86   C     C_R   0.656593 0.179922 0.233719 0.063387
C87   C     C_R   0.742135 0.103505 0.155101 -0.137379
C88   C     C_1   0.697131 0.608097 0.900180 -0.018119
C89   C     C_1   0.688117 0.634164 0.858007 -0.060258
C90   C     C_R   0.643007 0.130740 0.383126 -0.002498
C91   C     C_R   0.049358 0.236083 0.949761 0.544097
C92   C     C_R   0.711583 0.562976 0.948186 0.537569
C93   C     C_R   0.722153 0.225320 0.950930 0.543075
C94   C     C_R   0.046609 0.246369 0.088916 0.546185
C95   C     C_R   0.707115 0.576437 0.086092 0.552490
C96   C     C_R   0.718256 0.234179 0.089333 0.546614
C97   C     C_3   0.840695 0.754373 0.117556 -0.009781
C98   C     C_3   0.798390 0.779489 0.065000 -0.252993
C99   C     C_3   0.782229 0.894260 0.048610 -0.475060
Cr1   Cr    Cr6+3 0.417550 0.169090 0.500530 1.021519
Cr2   Cr    Cr6+3 0.669180 0.913420 0.499920 1.019652
Cr3   Cr    Cr6+3 0.413260 0.917540 0.499520 1.019968
Cr4   Cr    Cr6+3 0.909170 0.177380 0.020380 1.012919
Cr5   Cr    Cr6+3 0.912710 0.429210 0.018220 1.039382
Cr6   Cr    Cr6+3 0.657170 0.432570 0.019030 1.016369
H1    H     H_    0.819743 0.706696 0.790510 0.102925
H2    H     H_    0.854855 0.536718 0.719018 0.102956
H3    H     H_    0.796952 0.720591 0.379547 0.118530
H4    H     H_    0.919515 0.671281 0.215628 0.130948
H5    H     H_    0.907829 0.687963 0.304212 0.092001
H6    H     H_    0.513515 0.659643 0.137497 0.137697
H7    H     H_    0.412472 0.679810 0.211504 0.093925
H8    H     H_    0.407217 0.685285 0.300219 0.090699
H9    H     H_    0.486410 0.701839 0.376033 0.127155
H10   H     H_    0.127005 0.044070 0.136153 0.117025
H11   H     H_    0.252174 0.969358 0.373464 0.125277
H12   H     H_    0.296357 0.211479 0.799225 0.102635
H13   H     H_    0.185985 0.920069 0.207989 0.100769
H14   H     H_    0.620717 0.866999 0.740351 0.100358
H15   H     H_    0.225164 0.894994 0.295444 0.100985
H16   H     H_    0.071871 0.387378 0.150301 0.161791
H17   H     H_    0.081625 0.464759 0.228152 0.111700
H18   H     H_    0.110111 0.443284 0.315943 0.101347
H19   H     H_    0.168752 0.322121 0.386263 0.127749
H20   H     H_    0.546166 0.388684 0.148651 0.124618
H21   H     H_    0.502201 0.305204 0.386017 0.118122
H22   H     H_    0.448700 0.461878 0.227903 0.103616
H23   H     H_    0.128350 0.346615 0.729391 0.103880
H24   H     H_    0.437308 0.433368 0.315247 0.101993
H25   H     H_    0.805552 0.032637 0.133173 0.120588
H26   H     H_    0.487225 0.802893 0.797471 0.102594
H27   H     H_    0.869412 0.886118 0.290124 0.101007
H28   H     H_    0.786074 0.960491 0.368585 0.130469
H29   H     H_    0.522378 0.632939 0.726212 0.103962
H30   H     H_    0.721255 0.472718 0.776208 0.098734
H31   H     H_    0.198136 0.976826 0.790096 0.103496
H32   H     H_    0.030129 0.112041 0.719996 0.102793
H33   H     H_    0.360660 0.014095 0.740195 0.100557
H34   H     H_    0.965946 0.309425 0.779080 0.099434
H35   H     H_    0.470249 0.324363 0.793212 0.103804
H36   H     H_    0.923645 0.753080 0.119902 0.136702
H37   H     H_    0.780065 0.825415 0.142331 0.117551
H38   H     H_    0.861497 0.710378 0.040542 0.179553
H39   H     H_    0.715158 0.781663 0.061886 0.154073
H40   H     H_    0.714835 0.965085 0.070980 0.150316
H41   H     H_    0.755126 0.908011 0.009989 0.152553
H42   H     H_    0.863705 0.895638 0.051899 0.152116
H43   H     H_    0.871112 0.910039 0.202393 0.090571
H44   H     H_    0.604222 0.360255 0.722968 0.102377
H45   H     H_    0.511315 0.123761 0.741343 0.100240
H46   H     H_    0.708993 0.993131 0.798478 0.101847
H47   H     H_    0.842885 0.029097 0.728443 0.103812
H48   H     H_    0.801890 0.229517 0.780130 0.099357
O1    O     O_R   0.301710 0.195650 0.554160 -0.508613
O2    O     O_R   0.635520 0.542770 0.964420 -0.508423
O3    O     O_R   0.665950 0.325030 0.970100 -0.493470
O4    O     O_R   0.522390 0.158990 0.550460 -0.495258
O5    O     O_R   0.816620 0.158530 0.074540 -0.523312
O6    O     O_R   0.004460 0.188870 0.069750 -0.500834
O7    O     O_R   0.025800 0.341780 0.072300 -0.506872
O8    O     O_R   0.807650 0.528950 0.067500 -0.451278
O9    O     O_R   0.633420 0.550490 0.071810 -0.536089
O10   O     O_R   0.664000 0.332180 0.069640 -0.500249
O11   O     O_3   0.826350 0.346390 0.019210 -0.246039
O12   O     O_R   0.658900 0.818120 0.449760 -0.502711
O13   O     O_R   0.694390 0.003530 0.554040 -0.506921
O14   O     O_R   0.657700 0.819660 0.549320 -0.495237
O15   O     O_R   0.501930 0.803280 0.552920 -0.507888
O16   O     O_R   0.318170 0.023580 0.549580 -0.494607
O17   O     O_R   0.303010 0.193990 0.446760 -0.519688
O18   O     O_R   0.523600 0.157450 0.450900 -0.498934
O19   O     O_R   0.695690 0.001860 0.446640 -0.523260
O20   O     O_3   0.860643 0.644884 0.131073 -0.567374
O21   O     O_R   0.503220 0.801620 0.445520 -0.523379
O22   O     O_R   0.319370 0.022040 0.450020 -0.502372
O23   O     O_3   0.499990 0.000010 0.499990 -0.243307
O24   O     O_R   0.818720 0.150820 0.967160 -0.511418
O25   O     O_R   0.006410 0.181720 0.970200 -0.495842
O26   O     O_R   0.027890 0.334070 0.964920 -0.508682
O27   O     O_R   0.809600 0.521790 0.967960 -0.503821

loop_
_geom_bond_atom_site_label_1
_geom_bond_atom_site_label_2
_ccdc_geom_bond_type
C5    H31   S    
C66   C68   A    
C20   C93   S    
C63   C65   A    
C1    C21   S    
C94   O6    A    
C23   C45   S    
C46   H7    S    
C98   H38   S    
C27   C29   S    
C41   C42   A    
C96   O5    A    
C35   C36   A    
C18   C26   S    
C24   C27   S    
C41   H9    S    
C2    C12   T    
C79   C87   A    
C97   C98   S    
C47   C49   A    
C20   C30   T    
C85   C86   A    
C5    C9    S    
C21   C31   T    
Cr4   O11   S    
C74   H22   S    
C8    H34   S    
C87   H25   S    
C36   C37   A    
C76   C78   S    
C95   O8    A    
C38   C39   A    
C11   C14   S    
Cr5   O26   S    
C54   C68   A    
Cr3   O23   S    
C6    C91   S    
C91   O25   A    
C56   C78   S    
Cr2   O19   S    
C61   C63   A    
C18   C19   S    
C73   C74   A    
Cr2   O14   S    
C9    C13   S    
C92   O27   A    
C76   H1    S    
C29   H45   S    
C54   C55   A    
C16   O16   A    
C28   O19   A    
C11   C17   S    
C32   C50   A    
C88   C92   S    
C45   C56   S    
C8    C9    S    
C7    C17   T    
C22   C25   S    
C91   O26   A    
Cr1   O23   S    
C27   H46   S    
C56   C64   S    
C71   H21   S    
C3    H32   S    
C59   C94   S    
C60   C70   A    
C4    C12   S    
C18   H44   S    
C43   C48   A    
C49   H6    S    
Cr3   O16   S    
C85   C87   A    
C6    C15   T    
C26   C31   S    
C13   C14   S    
Cr1   O18   S    
C80   C90   A    
C61   C62   A    
C67   C78   S    
C42   C44   A    
Cr5   O7    S    
C72   C75   A    
C10   H23   S    
C35   C48   A    
Cr1   O4    S    
C81   C83   A    
C44   C46   A    
C81   C82   A    
C77   C79   A    
C64   C76   S    
C97   H37   S    
C79   C96   S    
C97   O20   S    
C74   C75   A    
Cr1   O17   S    
C33   C43   A    
C47   C48   A    
C14   H33   S    
C35   C38   A    
C52   C70   S    
C84   C85   A    
C3    C8    S    
C95   O9    A    
C52   O17   A    
Cr5   O8    S    
C93   O24   A    
C19   H35   S    
C38   O20   S    
C25   C26   S    
C82   C86   A    
C33   C37   A    
C80   H28   S    
C4    O15   A    
C60   C61   A    
Cr4   O24   S    
C84   H43   S    
C45   C67   S    
C53   C62   A    
C28   O18   A    
C63   H18   S    
C83   C84   A    
C69   H16   S    
C23   C34   S    
C39   C95   S    
Cr6   O10   S    
C45   H29   S    
Cr6   O11   S    
C65   H17   S    
Cr2   O12   S    
Cr3   O22   S    
C52   O22   A    
C97   H36   S    
C5    C14   S    
C59   C69   A    
C57   H15   S    
C23   C64   S    
C51   C70   A    
C99   H41   S    
C44   H8    S    
C98   C99   S    
C25   H47   S    
C16   O1    A    
C58   H10   S    
C22   C24   S    
C37   H5    S    
C42   C43   A    
C19   C29   S    
C41   C50   A    
C77   H20   S    
C64   H2    S    
C54   C58   A    
Cr1   O1    S    
C99   H42   S    
C46   C47   A    
C7    C16   S    
C94   O7    A    
C98   H39   S    
C18   C22   S    
C40   O12   A    
C93   O3    A    
C67   H26   S    
C80   C81   A    
C3    C5    S    
C10   C13   S    
C53   C57   A    
C34   C67   S    
Cr5   O11   S    
C13   H12   S    
C39   C49   A    
Cr4   O5    S    
C60   H19   S    
Cr3   O21   S    
C23   H30   S    
C25   C27   S    
C51   H11   S    
C4    O14   A    
C62   C68   A    
Cr4   O25   S    
C32   C33   A    
C55   C57   A    
C19   C24   S    
C58   C59   A    
C34   C89   S    
C83   H27   S    
C2    C56   S    
C40   O21   A    
Cr4   O6    S    
Cr5   O27   S    
C71   C90   A    
Cr6   O2    S    
C1    O13   A    
C40   C50   S    
C1    O4    A    
C78   H14   S    
C92   O2    A    
C99   H40   S    
Cr2   O13   S    
C24   C30   S    
C73   C86   A    
C3    C11   S    
C10   C11   S    
Cr3   O15   S    
C66   C69   A    
C71   C72   A    
Cr6   O3    S    
C88   C89   T    
C26   C29   S    
C8    C10   S    
C65   C66   A    
C32   H3    S    
C36   H4    S    
C73   C77   A    
Cr6   O9    S    
Cr2   O23   S    
C28   C90   S    
C51   C53   A    
C55   H13   S    
C72   C82   A    
C75   H24   S    
C9    C15   S    
C34   C76   S    
C22   H48   S    
C96   O10   A    
