data_mof_unit_8745.cif
_audit_creation_date              2012-12-11T15:52:20-0500
_audit_creation_method            fapswitch 2.2
_symmetry_space_group_name_H-M    P1
_symmetry_Int_Tables_number       1
_space_group_crystal_system       triclinic
_cell_length_a                    11.167808
_cell_length_b                    11.158263
_cell_length_c                    18.840492
_cell_angle_alpha                 90.028198
_cell_angle_beta                  89.890604
_cell_angle_gamma                 119.975626
_cell_volume                      2033.7293888

loop_
_atom_site_label
_atom_site_type_symbol
_atom_type_description
_atom_site_fract_x
_atom_site_fract_y
_atom_site_fract_z
_atom_type_partial_charge
C1    C     C_R   0.521528 0.457634 0.147619 0.600374
C2    C     C_3   0.041466 0.744125 0.457587 0.150410
C3    C     C_3   0.702353 0.958332 0.457398 0.150251
C4    C     C_3   0.256194 0.297281 0.457812 0.150476
C5    C     C_R   0.523617 0.451957 0.356234 0.584485
C6    C     C_R   0.547933 0.071584 0.356220 0.584286
C7    C     C_R   0.928313 0.476343 0.356233 0.584425
C8    C     C_R   0.457009 0.517922 0.646981 0.562926
C9    C     C_R   0.061061 0.543034 0.646956 0.569091
C10   C     C_R   0.482082 0.939035 0.646981 0.560763
C11   C     C_R   0.496013 0.961960 0.931320 -0.004558
C12   C     C_R   0.542330 0.062987 0.147957 0.601248
C13   C     C_R   0.064958 0.548375 0.934372 0.001060
C14   C     C_R   0.467091 0.504955 0.931048 0.005758
C15   C     C_R   0.011406 0.504100 0.081508 0.048546
C16   C     C_R   0.494934 0.993376 0.080288 0.046874
C17   C     C_R   0.500859 0.506073 0.079805 0.049400
C18   C     C_R   0.411776 0.003717 0.963605 -0.083773
C19   C     C_R   0.013028 0.418059 0.964141 -0.075189
C20   C     C_R   0.593755 0.590015 0.962676 -0.079670
C21   C     C_R   0.977422 0.396639 0.034119 -0.091385
C22   C     C_R   0.420616 0.029183 0.034752 -0.092725
C23   C     C_R   0.937297 0.479410 0.148006 0.596786
C24   C     C_R   0.610964 0.579796 0.033649 -0.087344
C25   C     C_R   0.551865 0.917159 0.052109 -0.028213
C26   C     C_R   0.093185 0.639176 0.056254 -0.021322
C27   C     C_R   0.367854 0.451019 0.052272 -0.029291
C28   C     C_R   0.097049 0.661296 0.981754 -0.086983
C29   C     C_R   0.573584 0.922396 0.977382 -0.077047
C30   C     C_R   0.350427 0.428014 0.977713 -0.082281
C31   C     C_3   0.372086 0.110820 0.948405 -0.069156
C32   C     C_3   0.905421 0.272247 0.945005 -0.067938
C33   C     C_3   0.741870 0.633642 0.946793 -0.075255
C34   C     C_R   0.449596 0.522231 0.855526 0.603917
C35   C     C_3   0.862629 0.252728 0.024306 -0.133761
C36   C     C_3   0.390638 0.144077 0.028744 -0.129568
C37   C     C_3   0.756640 0.612452 0.026860 -0.130112
C38   C     C_R   0.513386 0.010979 0.579371 -0.002735
C39   C     C_R   0.989365 0.502479 0.579341 -0.003476
C40   C     C_R   0.497666 0.486526 0.579367 -0.002514
C41   C     C_R   0.957398 0.483952 0.431534 0.053714
C42   C     C_R   0.526462 0.042543 0.431553 0.054135
C43   C     C_R   0.516059 0.473278 0.431564 0.054230
C44   C     C_R   0.629127 0.028807 0.541176 0.023966
C45   C     C_R   0.108924 0.571157 0.860285 0.567894
C46   C     C_R   0.971417 0.600452 0.541318 0.023836
C47   C     C_R   0.399775 0.370633 0.541375 0.023713
C48   C     C_R   0.958495 0.591652 0.469122 0.003541
C49   C     C_R   0.633040 0.041493 0.468970 0.003869
C50   C     C_R   0.408525 0.366624 0.469164 0.003336
C51   C     C_R   0.424332 0.053530 0.470458 -0.108348
C52   C     C_R   0.946607 0.370808 0.470306 -0.107862
C53   C     C_R   0.629169 0.575458 0.470253 -0.108316
C54   C     C_R   0.963308 0.380373 0.544375 -0.143150
C55   C     C_R   0.417396 0.037061 0.544547 -0.143683
C56   C     C_R   0.477848 0.927422 0.855603 0.587618
C57   C     C_R   0.619683 0.582481 0.544341 -0.143558
C58   C     C_2   0.598017 0.845445 0.102271 0.244056
C59   C     C_2   0.161334 0.753535 0.108684 0.252580
C60   C     C_2   0.251156 0.408239 0.103149 0.246478
C61   C     C_2   0.109511 0.793712 0.958687 0.263154
C62   C     C_2   0.689451 0.904075 0.953072 0.283031
C63   C     C_2   0.215923 0.311128 0.954619 0.272449
C64   C     C_2   0.471383 0.224982 0.901800 0.267057
C65   C     C_2   0.796306 0.258087 0.894726 0.275240
C66   C     C_2   0.762969 0.540411 0.898538 0.276276
C67   C     C_3   0.698808 0.942953 0.537282 0.168994
C68   C     C_2   0.891552 0.155713 0.066203 0.202788
C69   C     C_2   0.262865 0.110227 0.070402 0.201819
C70   C     C_2   0.849225 0.739728 0.068868 0.205176
C71   C     C_3   0.057075 0.755982 0.537453 0.169059
C72   C     C_3   0.244345 0.300916 0.537699 0.169316
Cr1   Cr    Cr6+3 0.769160 0.541570 0.250690 1.016909
Cr2   Cr    Cr6+3 0.458430 0.227590 0.250690 1.015480
Cr3   Cr    Cr6+3 0.772410 0.230840 0.250690 1.017068
Cr4   Cr    Cr6+3 0.541570 0.769160 0.749310 1.094212
Cr5   Cr    Cr6+3 0.227590 0.458430 0.749310 1.103501
Cr6   Cr    Cr6+3 0.230840 0.772410 0.749310 1.100035
H1    H     H_    0.265428 0.064054 0.927950 0.247894
H2    H     H_    0.966832 0.298136 0.572975 0.180249
H3    H     H_    0.331745 0.033578 0.573289 0.180193
H4    H     H_    0.701834 0.668183 0.572913 0.180307
H5    H     H_    0.633871 0.834753 0.556174 0.169586
H6    H     H_    0.165244 0.799177 0.556112 0.168981
H7    H     H_    0.201115 0.365938 0.556552 0.169214
H8    H     H_    0.981942 0.790378 0.434413 0.149001
H9    H     H_    0.807988 0.017773 0.433961 0.148913
H10   H     H_    0.210010 0.191532 0.434528 0.149037
H11   H     H_    0.697198 0.852392 0.097173 0.118894
H12   H     H_    0.950354 0.209743 0.925816 0.240890
H13   H     H_    0.156699 0.847204 0.104218 0.106644
H14   H     H_    0.157293 0.310056 0.099157 0.115905
H15   H     H_    0.157258 0.879377 0.993439 0.155031
H16   H     H_    0.719520 0.846263 0.985465 0.141967
H17   H     H_    0.129976 0.278422 0.988840 0.149690
H18   H     H_    0.552802 0.316683 0.925722 0.071842
H19   H     H_    0.694155 0.223393 0.914277 0.085139
H20   H     H_    0.801206 0.477436 0.920198 0.093983
H21   H     H_    0.894586 0.159783 0.123523 0.162126
H22   H     H_    0.261992 0.102594 0.127625 0.161496
H23   H     H_    0.802169 0.741351 0.927435 0.238681
H24   H     H_    0.842776 0.739075 0.126151 0.160293
H25   H     H_    0.821653 0.988215 0.617318 0.353654
H26   H     H_    0.012232 0.833932 0.617732 0.353507
H27   H     H_    0.166655 0.178039 0.617930 0.353341
H28   H     H_    0.153674 0.794271 0.372742 0.348885
H29   H     H_    0.640024 0.845789 0.372793 0.348633
H30   H     H_    0.205823 0.359435 0.373228 0.348290
H31   H     H_    0.760181 0.242461 0.035741 0.078071
H32   H     H_    0.481832 0.245187 0.042977 0.084132
H33   H     H_    0.768479 0.521790 0.039902 0.079645
H34   H     H_    0.347284 0.068813 0.443767 0.159292
H35   H     H_    0.931280 0.278399 0.443512 0.159113
H36   H     H_    0.721473 0.652526 0.443395 0.159144
O1    O     O_R   0.911480 0.572650 0.170990 -0.533894
O2    O     O_R   0.528970 0.640340 0.824320 -0.482916
O3    O     O_R   0.111370 0.471030 0.824320 -0.462185
O4    O     O_R   0.359660 0.888630 0.824320 -0.486289
O5    O     O_R   0.909980 0.572450 0.331530 -0.531400
O6    O     O_R   0.427550 0.337530 0.331530 -0.531659
O7    O     O_R   0.662470 0.090020 0.331530 -0.531785
O8    O     O_R   0.572450 0.909980 0.668470 -0.530196
O9    O     O_R   0.337530 0.427550 0.668470 -0.530581
O10   O     O_R   0.090020 0.662470 0.668470 -0.528524
O11   O     O_R   0.638950 0.528780 0.324500 -0.507251
O12   O     O_R   0.427350 0.338830 0.170990 -0.532630
O13   O     O_R   0.471220 0.110170 0.324500 -0.507096
O14   O     O_R   0.889830 0.361050 0.324500 -0.507439
O15   O     O_R   0.528780 0.638950 0.675500 -0.503640
O16   O     O_R   0.110170 0.471220 0.675500 -0.500963
O17   O     O_R   0.361050 0.889830 0.675500 -0.505796
O18   O     O_3   0.666667 0.333333 0.250560 -0.288525
O19   O     O_3   0.333333 0.666667 0.749440 -0.333206
O20   O     O_2   0.525064 0.781095 0.152585 -0.419830
O21   O     O_2   0.220361 0.740464 0.160049 -0.416315
O22   O     O_2   0.262596 0.483086 0.153058 -0.416734
O23   O     O_R   0.661170 0.088520 0.170990 -0.530939
O24   O     O_2   0.049366 0.805609 0.907742 -0.433284
O25   O     O_2   0.766521 0.969390 0.904375 -0.435407
O26   O     O_2   0.201369 0.236283 0.904413 -0.430573
O27   O     O_2   0.461592 0.214293 0.837319 -0.422250
O28   O     O_2   0.820975 0.281342 0.831528 -0.416324
O29   O     O_2   0.740816 0.538056 0.835006 -0.419589
O30   O     O_2   0.915805 0.073483 0.036804 -0.445075
O31   O     O_2   0.157143 0.087319 0.040946 -0.451074
O32   O     O_2   0.930429 0.846673 0.039553 -0.445526
O33   O     O_3   0.832153 0.012631 0.566211 -0.688190
O34   O     O_R   0.572650 0.911480 0.829010 -0.445586
O35   O     O_3   0.987438 0.819716 0.566706 -0.687859
O36   O     O_3   0.180650 0.167484 0.566827 -0.688551
O37   O     O_3   0.167589 0.782765 0.423714 -0.700812
O38   O     O_3   0.614762 0.832027 0.423828 -0.701088
O39   O     O_3   0.217574 0.384947 0.424203 -0.701019
O40   O     O_R   0.338830 0.427350 0.829010 -0.439477
O41   O     O_R   0.088520 0.661170 0.829010 -0.421400
O42   O     O_R   0.640340 0.528970 0.175680 -0.520275
O43   O     O_R   0.471030 0.111370 0.175680 -0.523605
O44   O     O_R   0.888630 0.359660 0.175680 -0.521301

loop_
_geom_bond_atom_site_label_1
_geom_bond_atom_site_label_2
_ccdc_geom_bond_type
C44   C49   A    
C40   C47   A    
C13   C45   S    
C11   C18   A    
C67   H5    S    
C51   H34   S    
Cr1   O5    S    
Cr2   O18   S    
C69   O31   D    
C63   O26   D    
H28   O37   S    
H30   O39   S    
C72   H7    S    
C3    C49   S    
H25   O33   S    
Cr2   O12   S    
C9    O16   A    
C58   O20   D    
H27   O36   S    
C3    O38   S    
C33   H23   S    
Cr6   O4    S    
C6    O13   A    
Cr5   O3    S    
C27   C60   S    
C31   C36   S    
C61   H15   S    
C61   O24   D    
C39   C54   A    
C64   O27   D    
C34   O2    A    
C23   O44   A    
C63   H17   S    
C9    C39   S    
C9    O10   A    
Cr3   O14   S    
C59   O21   D    
C10   O17   A    
C43   C53   A    
C32   H12   S    
C38   C55   A    
C20   C24   A    
C13   C28   A    
C2    H8    S    
C70   O32   D    
C62   O25   D    
C55   H3    S    
Cr6   O10   S    
C26   C59   S    
C60   O22   D    
C41   C52   A    
C35   H31   S    
C42   C51   A    
C28   C61   S    
C34   O40   A    
C4    O39   S    
C5    C43   S    
Cr1   O18   S    
Cr3   O7    S    
C37   C70   S    
C27   C30   A    
Cr5   O19   S    
C14   C30   A    
C12   C16   S    
C19   C32   S    
C26   C28   A    
C58   H11   S    
C52   C54   A    
C33   C66   S    
C47   C50   A    
C54   H2    S    
C60   H14   S    
C25   C29   A    
C16   C25   A    
C46   C48   A    
C17   C24   A    
C13   C19   A    
C5    O6    A    
C3    H9    S    
C17   C27   A    
C32   C35   S    
C14   C20   A    
C1    O12   A    
C64   H18   S    
Cr3   O23   S    
C53   C57   A    
C15   C26   A    
C66   O29   D    
C2    C48   S    
C52   H35   S    
C12   O43   A    
C33   C37   S    
C53   H36   S    
C4    C50   S    
H26   O35   S    
C56   O34   A    
C1    O42   A    
Cr6   O17   S    
C38   C44   A    
Cr5   O9    S    
C7    O5    A    
Cr5   O40   S    
Cr4   O15   S    
Cr2   O13   S    
C24   C37   S    
C8    O9    A    
C45   O41   A    
C59   H13   S    
C11   C29   A    
C46   C71   S    
C39   C46   A    
C21   C35   S    
C20   C33   S    
Cr3   O44   S    
C72   O36   S    
C62   H16   S    
C36   H32   S    
C7    O14   A    
C25   C58   S    
H29   O38   S    
C2    C71   S    
C4    C72   S    
Cr2   O6    S    
Cr3   O18   S    
C71   H6    S    
C45   O3    A    
C2    O37   S    
C29   C62   S    
C16   C22   A    
C40   C57   A    
Cr2   O43   S    
C19   C21   A    
C18   C22   A    
C56   O4    A    
C31   C64   S    
C12   O23   A    
C3    C67   S    
C10   O8    A    
C14   C34   S    
Cr4   O19   S    
C70   H24   S    
C43   C50   A    
C31   H1    S    
C4    H10   S    
C22   C36   S    
C1    C17   S    
Cr1   O1    S    
C10   C38   S    
Cr4   O8    S    
C66   H20   S    
C68   H21   S    
C65   H19   S    
C67   O33   S    
C65   O28   D    
C71   O35   S    
C35   C68   S    
Cr1   O11   S    
Cr1   O42   S    
C15   C23   S    
Cr4   O2    S    
C41   C48   A    
C68   O30   D    
C51   C55   A    
Cr5   O16   S    
C7    C41   S    
C36   C69   S    
Cr6   O41   S    
Cr6   O19   S    
C47   C72   S    
C37   H33   S    
C42   C49   A    
C23   O1    A    
C69   H22   S    
C15   C21   A    
Cr4   O34   S    
C6    C42   S    
C5    O11   A    
C8    O15   A    
C57   H4    S    
C44   C67   S    
C18   C31   S    
C8    C40   S    
C6    O7    A    
C30   C63   S    
C11   C56   S    
C32   C65   S    
