data_mof_unit_68132.cif
_audit_creation_date              2013-03-05T15:58:27-0500
_audit_creation_method            fapswitch 2.2
_symmetry_space_group_name_H-M    P1
_symmetry_Int_Tables_number       1
_space_group_crystal_system       triclinic
_cell_length_a                    7.508637
_cell_length_b                    14.866821
_cell_length_c                    15.984468
_cell_angle_alpha                 90.058149
_cell_angle_beta                  90.070129
_cell_angle_gamma                 89.673499
_cell_volume                      1784.307951

loop_
_atom_site_label
_atom_site_type_symbol
_atom_site_description
_atom_site_fract_x
_atom_site_fract_y
_atom_site_fract_z
_atom_type_partial_charge
O1    O     O_R   0.388780 0.834790 0.412340 -0.613019
O2    O     O_R   0.111220 0.165210 0.912340 -0.622021
O3    O     O_R   0.888780 0.665210 0.587660 -0.614523
O4    O     O_R   0.611220 0.334790 0.087660 -0.614437
O5    O     O_R   0.059040 0.845930 0.587040 -0.541031
O6    O     O_R   0.440960 0.154070 0.087040 -0.542986
O7    O     O_R   0.559040 0.654070 0.412960 -0.528214
O8    O     O_R   0.940960 0.345930 0.912960 -0.543498
C1    C     C_R   0.225628 0.867863 0.614415 1.040574
C2    C     C_R   0.274426 0.132862 0.114907 1.041131
C3    C     C_R   0.726089 0.633362 0.384299 1.071770
C4    C     C_R   0.773140 0.368591 0.886867 1.010787
O9    O     O_R   0.059070 0.845930 0.412970 -0.520625
O10   O     O_R   0.440930 0.154070 0.912970 -0.514937
O11   O     O_R   0.559070 0.654070 0.587030 -0.525459
O12   O     O_R   0.940930 0.345930 0.087030 -0.524098
O13   O     O_R   0.888760 0.665210 0.412340 -0.590109
O14   O     O_R   0.611240 0.334790 0.912340 -0.560580
O15   O     O_R   0.388760 0.834790 0.587660 -0.568780
O16   O     O_R   0.111240 0.165210 0.087660 -0.570871
C5    C     C_R   0.228424 0.871844 0.389365 0.963807
C6    C     C_R   0.271404 0.128997 0.888771 0.967728
C7    C     C_R   0.729079 0.628425 0.611437 0.976317
C8    C     C_R   0.771346 0.372093 0.109842 0.963599
O17   O     O_3   0.222280 0.690700 0.500000 -0.300799
O18   O     O_3   0.277720 0.309300 0.000000 -0.266891
O19   O     O_3   0.722280 0.809300 0.500000 -0.278449
O20   O     O_3   0.777720 0.190700 0.000000 -0.280551
V1    V     V_3+5 0.947430 0.761000 0.500000 1.304015
V2    V     V_3+5 0.552570 0.239000 0.000000 1.321448
V3    V     V_3+5 0.447430 0.739000 0.500000 1.309307
V4    V     V_3+5 0.052570 0.261000 0.000000 1.312566
C9    C     C_3   0.888297 0.578299 0.742336 -0.434960
C10   C     C_3   0.604272 0.425495 0.237469 -0.500459
C11   C     C_3   0.396877 0.924776 0.260736 -0.461232
C12   C     C_3   0.102220 0.077967 0.759209 -0.482874
H1    H     H_    0.013751 0.581731 0.706458 0.277165
H2    H     H_    0.478135 0.424295 0.203432 0.269803
H3    H     H_    0.521228 0.922274 0.296139 0.268489
H4    H     H_    0.976629 0.083906 0.793724 0.264366
H5    H     H_    0.860065 0.647287 0.766412 0.207138
H6    H     H_    0.622705 0.355115 0.260057 0.215384
H7    H     H_    0.378528 0.854932 0.236996 0.217886
H8    H     H_    0.122880 0.147378 0.734877 0.193696
C13   C     C_3   0.907128 0.512613 0.817893 0.385886
C14   C     C_3   0.594504 0.487970 0.315485 0.411707
C15   C     C_3   0.410478 0.988612 0.183183 0.381731
C16   C     C_3   0.088314 0.012903 0.682123 0.392788
H9    H     H_    0.875879 0.551235 0.875734 0.129977
H10   H     H_    0.637868 0.445977 0.368982 0.144712
H11   H     H_    0.373946 0.948879 0.126720 0.128751
H12   H     H_    0.124091 0.052070 0.625340 0.126008
H13   H     H_    0.923566 0.352675 0.731860 0.082869
H14   H     H_    0.554905 0.629996 0.214771 0.136054
H15   H     H_    0.442077 0.130011 0.284890 0.134576
H16   H     H_    0.057861 0.871543 0.783553 0.136159
C17   C     C_3   0.791528 0.449413 0.646344 0.432248
C18   C     C_3   0.739002 0.550311 0.140589 0.410113
C19   C     C_3   0.259621 0.050563 0.357450 0.410628
C20   C     C_3   0.238618 0.951628 0.856422 0.405881
C21   C     C_3   0.570402 0.545134 0.729834 -0.212833
C22   C     C_3   0.923175 0.447348 0.233824 -0.204410
C23   C     C_3   0.079076 0.947191 0.264163 -0.209943
C24   C     C_3   0.420566 0.054547 0.763661 -0.205448
C25   C     C_3   0.744518 0.550422 0.678605 -0.288098
C26   C     C_3   0.758056 0.448802 0.176260 -0.251970
C27   C     C_3   0.242468 0.948532 0.322171 -0.262139
C28   C     C_3   0.256456 0.053351 0.821102 -0.253846
H17   H     H_    0.458207 0.523697 0.689401 0.268901
H18   H     H_    0.046810 0.454023 0.196725 0.273086
H19   H     H_    0.956316 0.955460 0.301528 0.277958
H20   H     H_    0.543058 0.045272 0.801200 0.277306
H21   H     H_    0.537045 0.613011 0.753141 0.234161
H22   H     H_    0.932064 0.381818 0.266089 0.218751
H23   H     H_    0.069670 0.881079 0.232869 0.219690
H24   H     H_    0.431981 0.121292 0.733437 0.221941
C29   C     C_3   0.767822 0.433805 0.811091 -0.437825
C30   C     C_3   0.729139 0.567675 0.307025 -0.404930
C31   C     C_3   0.272426 0.067337 0.191505 -0.409154
C32   C     C_3   0.227160 0.934280 0.690609 -0.414820
C33   C     C_3   0.791169 0.382469 0.726057 0.322130
C34   C     C_3   0.696918 0.615142 0.219213 0.303332
C35   C     C_3   0.301257 0.115070 0.279292 0.301708
C36   C     C_3   0.198493 0.886897 0.778315 0.308449
C37   C     C_3   0.586871 0.481951 0.806861 -0.328146
C38   C     C_3   0.912676 0.521355 0.302215 -0.372192
C39   C     C_3   0.090341 0.020248 0.194896 -0.349685
C40   C     C_3   0.408833 0.981744 0.693982 -0.349906
H25   H     H_    0.563923 0.520951 0.865463 0.189131
H26   H     H_    0.947243 0.491273 0.363634 0.192590
H27   H     H_    0.058717 0.989612 0.133033 0.197292
H28   H     H_    0.439516 0.012632 0.632231 0.197129
H29   H     H_    0.483887 0.430750 0.803993 0.307712
H30   H     H_    0.010411 0.572982 0.288721 0.312601
H31   H     H_    0.990915 0.072056 0.207168 0.314267
H32   H     H_    0.508573 0.929981 0.705971 0.313752
S1    S     S_3+6 0.637628 0.416430 0.563701 -0.025741
O21   O     O_2   0.459780 0.386668 0.595912 -0.204183
O22   O     O_2   0.607228 0.496014 0.509246 -0.356846
O23   O     O_3   0.728545 0.335572 0.503316 -0.521713
H33   H     H_    0.630416 0.314701 0.466771 0.387191
S2    S     S_3+6 0.942358 0.582224 0.084725 -0.046626
O24   O     O_2   0.085002 0.614654 0.142371 -0.247631
O25   O     O_2   0.012063 0.502842 0.037854 -0.302473
O26   O     O_3   0.902136 0.662773 0.013168 -0.527442
H34   H     H_    0.017239 0.671565 0.984162 0.405198
S3    S     S_3+6 0.055348 0.083611 0.412041 -0.043752
O27   O     O_2   0.914445 0.119515 0.354939 -0.239272
O28   O     O_2   0.983608 0.002777 0.454147 -0.299937
O29   O     O_3   0.093832 0.160387 0.487299 -0.521417
H35   H     H_    0.977949 0.168704 0.515874 0.409243
S4    S     S_3+6 0.441733 0.918480 0.912166 -0.045504
O30   O     O_2   0.583716 0.882609 0.855671 -0.238645
O31   O     O_2   0.513122 0.998861 0.955266 -0.299034
O32   O     O_3   0.401147 0.841804 0.987025 -0.529021
H36   H     H_    0.516916 0.832593 0.015557 0.406791
S5    S     S_3+6 0.673400 0.276229 0.719148 -0.009644
O33   O     O_2   0.739907 0.214847 0.787049 -0.308430
O34   O     O_2   0.476618 0.288181 0.730061 -0.310146
O35   O     O_3   0.715345 0.225278 0.627408 -0.454130
H37   H     H_    0.600638 0.198840 0.609438 0.386663
S6    S     S_3+6 0.783356 0.728095 0.217219 0.000233
O36   O     O_2   0.677470 0.782874 0.278226 -0.313252
O37   O     O_2   0.974164 0.730378 0.244977 -0.299975
O38   O     O_3   0.760215 0.774235 0.121910 -0.473040
H38   H     H_    0.874367 0.805029 0.110627 0.399262
S7    S     S_3+6 0.214443 0.228459 0.281094 -0.000894
O39   O     O_2   0.324426 0.283437 0.222431 -0.314524
O40   O     O_2   0.025816 0.231527 0.250179 -0.305481
O41   O     O_3   0.230220 0.273456 0.377332 -0.445538
H39   H     H_    0.113714 0.302999 0.387734 0.401253
S8    S     S_3+6 0.286152 0.773768 0.780609 0.000259
O42   O     O_2   0.175688 0.718479 0.722146 -0.311016
O43   O     O_2   0.475005 0.770193 0.750092 -0.303132
O44   O     O_3   0.270524 0.729762 0.877076 -0.469611
H40   H     H_    0.387432 0.700788 0.888018 0.397226
S9    S     S_3+6 0.139545 0.483658 0.826806 -0.061938
O45   O     O_2   0.241269 0.567338 0.809713 -0.275288
O46   O     O_2   0.194871 0.453867 0.912284 -0.243588
O47   O     O_3   0.199055 0.405481 0.756504 -0.555997
H41   H     H_    0.195728 0.348029 0.787832 0.370047
S10   S     S_3+6 0.365530 0.516807 0.336541 -0.048985
O48   O     O_2   0.254887 0.439972 0.307816 -0.291690
O49   O     O_2   0.331302 0.527140 0.428110 -0.243114
O50   O     O_3   0.302904 0.612208 0.287954 -0.559085
H42   H     H_    0.267950 0.655118 0.332601 0.384480
S11   S     S_3+6 0.640756 0.018622 0.167660 -0.061182
O51   O     O_2   0.747491 0.939950 0.196285 -0.294320
O52   O     O_2   0.689170 0.032047 0.078183 -0.243595
O53   O     O_3   0.699554 0.111968 0.219974 -0.555879
H43   H     H_    0.717547 0.159319 0.177363 0.384188
S12   S     S_3+6 0.858368 0.982242 0.666709 -0.064455
O54   O     O_2   0.751265 0.061167 0.694415 -0.293385
O55   O     O_2   0.810556 0.967611 0.577269 -0.243435
O56   O     O_3   0.799304 0.889437 0.719589 -0.555648
H44   H     H_    0.782449 0.841513 0.677325 0.384560
N1    N     N_2   0.972683 0.442331 0.611960 -0.137361
H45   H     H_    0.022796 0.377476 0.609700 0.227295
C41   C     C_3   0.029154 0.491559 0.539132 -0.549102
H46   H     H_    0.086226 0.443873 0.492653 0.257399
H47   H     H_    0.133294 0.539752 0.558408 0.272713
H48   H     H_    0.919220 0.526858 0.507788 0.203410
N2    N     N_2   0.601294 0.561478 0.075790 -0.160218
H49   H     H_    0.599217 0.625648 0.051278 0.247581
C42   C     C_3   0.421826 0.528517 0.082624 -0.785908
H50   H     H_    0.337084 0.563202 0.035549 0.312394
H51   H     H_    0.366805 0.542292 0.145012 0.300055
H52   H     H_    0.415284 0.456507 0.067382 0.287514
N3    N     N_2   0.396164 0.061878 0.422660 -0.160056
H53   H     H_    0.397095 0.126251 0.446837 0.245150
C43   C     C_3   0.576167 0.028347 0.416709 -0.788121
H54   H     H_    0.659994 0.064353 0.462960 0.311265
H55   H     H_    0.632481 0.040558 0.354512 0.304720
H56   H     H_    0.583332 0.956635 0.433189 0.290799
N4    N     N_2   0.100669 0.940804 0.920853 -0.158566
H57   H     H_    0.098961 0.876600 0.945266 0.247362
C44   C     C_3   0.921029 0.974634 0.913789 -0.771452
H58   H     H_    0.835737 0.938243 0.958979 0.312055
H59   H     H_    0.866651 0.963537 0.851006 0.303556
H60   H     H_    0.913327 0.046034 0.931176 0.288344

loop_
_geom_bond_atom_site_label_1
_geom_bond_atom_site_label_2
_geom_bond_distance
_ccdc_geom_bond_type
O17   V3    1.840511 S    
C43   H54   1.109579 S    
C40   H32   1.087743 S    
O18   V4    1.840511 S    
N1    H45   1.033632 S    
C39   H27   1.114164 S    
O19   V1    1.832978 S    
C9    C13   1.559692 S    
N3    H53   1.031791 S    
O1    C5    1.371071 A    
O3    C7    1.374943 A    
N2    H49   1.031727 S    
C10   H6    1.115043 S    
C15   C31   1.564674 S    
C32   C36   1.585068 S    
C11   C15   1.565765 S    
C10   C26   1.555205 S    
S4    O31   1.481460 D    
S1    O21   1.501017 D    
C9    C25   1.541607 S    
O44   H40   0.991046 S    
C14   S10   1.801590 S    
O7    C3    1.369194 A    
C22   C38   1.551984 S    
C42   H50   1.110346 S    
C24   C28   1.537795 S    
H13   C33   1.089917 S    
N2    C42   1.440829 S    
C19   C35   1.607812 S    
S5    O34   1.497590 D    
O50   H42   0.991353 S    
O4    C8    1.372962 A    
C21   H17   1.109177 S    
O32   H36   0.990047 S    
C33   S5    1.817736 S    
O1    V3    2.044683 S    
O13   V1    2.046231 S    
C22   H18   1.107165 S    
S2    O26   1.682660 S    
O2    V4    2.043442 S    
O3    V1    2.048913 S    
O29   H35   0.990278 S    
C38   H30   1.086879 S    
S11   O51   1.486316 D    
C19   C27   1.623513 S    
C37   H29   1.089046 S    
C18   C26   1.619296 S    
C40   H28   1.113971 S    
C2    O16   1.383739 A    
S8    O42   1.497056 D    
C44   H59   1.095658 S    
C39   H31   1.087463 S    
O2    C6    1.368113 A    
S3    O27   1.493170 D    
C41   H47   1.106832 S    
C18   S2    1.834786 S    
C13   H9    1.112414 S    
C11   H7    1.114395 S    
O15   V3    2.043471 S    
C8    C26   1.560164 S    
C30   C38   1.539034 S    
O11   C7    1.385877 A    
S9    O45   1.489209 D    
C29   C37   1.533547 S    
O12   C8    1.378719 A    
C5    C27   1.571217 S    
O10   C6    1.383031 A    
N3    C43   1.441129 S    
S10   O50   1.682146 S    
C42   H51   1.098515 S    
O10   V2    2.058599 S    
C18   N2    1.471506 S    
C31   C39   1.540607 S    
S4    O30   1.493776 D    
S9    O47   1.675089 S    
C1    O15   1.385295 A    
H16   C36   1.084973 S    
O5    V1    2.058612 S    
C43   H56   1.099468 S    
C23   C27   1.537131 S    
S11   O52   1.490057 D    
O7    V3    2.054138 S    
C22   C26   1.543108 S    
O8    V4    2.054483 S    
C12   H4    1.096217 S    
S11   O53   1.680396 S    
O47   H41   0.991000 S    
N4    C44   1.441223 S    
S1    O22   1.485986 D    
S5    O35   1.679132 S    
C17   C25   1.624324 S    
C14   C30   1.568020 S    
C37   H25   1.114210 S    
C15   H11   1.113043 S    
C21   H21   1.102911 S    
C36   S8    1.802982 S    
C19   S3    1.830090 S    
C1    C32   1.567187 S    
C11   H3    1.091697 S    
S7    O40   1.499958 D    
O5    C1    1.365811 A    
C20   S4    1.830799 S    
C3    C30   1.573923 S    
C21   C25   1.545925 S    
S9    O46   1.494431 D    
C30   C34   1.589309 S    
C41   H46   1.111058 S    
S12   O56   1.680779 S    
C29   C33   1.567685 S    
O8    C4    1.367283 A    
C44   H60   1.098224 S    
C17   S1    1.822710 S    
C4    C29   1.552577 S    
C13   S9    1.800569 S    
C24   H24   1.107892 S    
C41   H48   1.096533 S    
O9    C5    1.383781 A    
S2    O25   1.490009 D    
C6    C28   1.563966 S    
C23   H19   1.105168 S    
C21   C37   1.553764 S    
C10   C14   1.555727 S    
S8    O43   1.500786 D    
O6    V2    2.061730 S    
S12   O55   1.489678 D    
C42   H52   1.099059 S    
C16   S12   1.804783 S    
C38   H26   1.109117 S    
O38   H38   0.990855 S    
S3    O29   1.683322 S    
C17   C33   1.617603 S    
C12   H8    1.114890 S    
S6    O37   1.499875 D    
S7    O39   1.496825 D    
H14   C34   1.089962 S    
S1    O23   1.683044 S    
O35   H37   0.990884 S    
O16   V4    2.044715 S    
O9    V1    2.061715 S    
C17   N1    1.470870 S    
C3    O13   1.386297 A    
C23   C39   1.554480 S    
C10   H2    1.091914 S    
C35   S7    1.804130 S    
O6    C2    1.366593 A    
C2    C31   1.565541 S    
C12   C28   1.564294 S    
O11   V3    2.054466 S    
O12   V4    2.054119 S    
O26   H34   0.990653 S    
C14   H10   1.106839 S    
O53   H43   0.989957 S    
C9    H5    1.114407 S    
C7    C25   1.584811 S    
S6    O38   1.679815 S    
C18   C34   1.613476 S    
O41   H39   0.990787 S    
S7    O41   1.681161 S    
C32   C40   1.540248 S    
N4    H57   1.031718 S    
S5    O33   1.501875 D    
C31   C35   1.586975 S    
C20   C36   1.604854 S    
C16   C32   1.567688 S    
S3    O28   1.482309 D    
C23   H23   1.104959 S    
S8    O44   1.680125 S    
O20   V2    1.832979 S    
O23   H33   0.990751 S    
C34   S6    1.804094 S    
C12   C16   1.569475 S    
S10   O49   1.494007 D    
C24   H20   1.105605 S    
S2    O24   1.493738 D    
C9    H1    1.104884 S    
C11   C27   1.559076 S    
O14   V2    2.048946 S    
C43   H55   1.096546 S    
C16   H12   1.112885 S    
S12   O54   1.486171 D    
C20   C28   1.621089 S    
N1    C41   1.441191 S    
C44   H58   1.109266 S    
C15   S11   1.805655 S    
C4    O14   1.380111 A    
O56   H44   0.989890 S    
C20   N4    1.471166 S    
S10   O48   1.488165 D    
C22   H22   1.104416 S    
C13   C29   1.578636 S    
S6    O36   1.496399 D    
C19   N3    1.471369 S    
H15   C35   1.085254 S    
C24   C40   1.555034 S    
S4    O32   1.682766 S    
O4    V2    2.046196 S    
