data_mof_unit_65960.cif
_audit_creation_date              2012-12-10T18:24:08-0500
_audit_creation_method            fapswitch 2.2
_symmetry_space_group_name_H-M    P1
_symmetry_Int_Tables_number       1
_space_group_crystal_system       triclinic
_cell_length_a                    16.099848
_cell_length_b                    16.089467
_cell_length_c                    16.089292
_cell_angle_alpha                 95.858611
_cell_angle_beta                  84.389581
_cell_angle_gamma                 90.100049
_cell_volume                      4125.96534782

loop_
_atom_site_label
_atom_site_type_symbol
_atom_type_description
_atom_site_fract_x
_atom_site_fract_y
_atom_site_fract_z
_atom_type_partial_charge
C1    C     C_R   0.510671 0.724330 0.510737 0.505933
C2    C     C_1   0.485084 0.186269 0.485036 0.016874
C3    C     C_1   0.515082 0.483477 0.184673 0.016855
C4    C     C_R   0.489324 0.275684 0.489285 0.507412
C5    C     C_2   0.523226 0.474603 0.018866 -0.119277
C6    C     C_2   0.476864 0.525447 0.981147 -0.120262
C7    C     C_1   0.481322 0.520557 0.890865 -0.042558
C8    C     C_1   0.518751 0.479484 0.109149 -0.041817
C9    C     C_1   0.484965 0.516555 0.815342 0.015711
C10   C     C_R   0.510739 0.488196 0.274552 0.506591
C11   C     C_R   0.489262 0.511829 0.725466 0.506718
C12   C     C_1   0.111342 0.522299 0.522483 -0.028987
C13   C     C_R   0.724288 0.488046 0.488088 0.506356
C14   C     C_R   0.275722 0.511910 0.511874 0.506261
C15   C     C_1   0.813607 0.484008 0.484068 0.009838
C16   C     C_2   0.978597 0.478506 0.478513 -0.112579
C17   C     C_2   0.021206 0.529860 0.530224 0.022102
C18   C     C_3   0.976198 0.594200 0.594992 -0.255416
C19   C     C_3   0.034047 0.647069 0.648648 -0.429522
C20   C     C_1   0.888659 0.481157 0.481202 -0.053151
C21   C     C_1   0.186401 0.516977 0.517039 -0.000912
C22   C     C_1   0.514963 0.813747 0.515085 0.015707
C23   C     C_2   0.523030 0.978686 0.523226 -0.119430
C24   C     C_2   0.477039 0.021332 0.476972 -0.119944
C25   C     C_1   0.481472 0.111137 0.481416 -0.041727
C26   C     C_1   0.518597 0.888881 0.518757 -0.042685
H1    H     H_    0.011791 0.432968 0.432622 0.125653
H2    H     H_    0.931779 0.561442 0.637611 0.152554
H3    H     H_    0.435608 0.988963 0.435306 0.137614
H4    H     H_    0.564464 0.011052 0.564891 0.138975
H5    H     H_    0.435099 0.571240 0.017956 0.137569
H6    H     H_    0.564990 0.428809 0.982057 0.139106
H7    H     H_    0.069989 0.606620 0.684491 0.162925
H8    H     H_    0.077842 0.682896 0.608407 0.162772
H9    H     H_    0.996277 0.692055 0.694002 0.139834
H10   H     H_    0.939642 0.636962 0.562125 0.152514
O1    O     O_3   0.500000 0.500000 0.500000 -0.437417
O2    O     O_R   0.689040 0.536050 0.444000 -0.534865
O3    O     O_R   0.315570 0.560650 0.560630 -0.537170
O4    O     O_R   0.679800 0.444450 0.536560 -0.535540
O5    O     O_R   0.315590 0.458850 0.458810 -0.534366
O6    O     O_R   0.458170 0.444480 0.314880 -0.534752
O7    O     O_R   0.445130 0.560630 0.690220 -0.535496
O8    O     O_R   0.559450 0.679320 0.457680 -0.534968
O9    O     O_R   0.537250 0.315570 0.537220 -0.535367
O10   O     O_R   0.458120 0.689530 0.559970 -0.535650
O11   O     O_R   0.445170 0.315580 0.445130 -0.534639
O12   O     O_R   0.559480 0.536070 0.314410 -0.534531
O13   O     O_R   0.537220 0.458810 0.680490 -0.535838
Zn1   Zn    Zn3+2 0.430930 0.430930 0.430910 0.952203
Zn2   Zn    Zn3+2 0.575680 0.561790 0.430230 0.951540
Zn3   Zn    Zn3+2 0.562480 0.430910 0.562480 0.950496
Zn4   Zn    Zn3+2 0.430910 0.576380 0.576380 0.948755

loop_
_geom_bond_atom_site_label_1
_geom_bond_atom_site_label_2
_ccdc_geom_bond_type
C12   C17   S    
C5    C8    S    
C2    C4    S    
C23   C24   D    
C19   H8    S    
C11   O7    A    
C6    C7    S    
C11   O13   A    
C10   O6    A    
O5    Zn1   S    
C1    O8    A    
C16   C20   S    
O13   Zn3   S    
O1    Zn4   S    
C5    H6    S    
C16   H1    S    
O10   Zn4   S    
C6    H5    S    
C1    C22   S    
C3    C10   S    
C19   H9    S    
O1    Zn1   S    
C9    C11   S    
C13   O2    A    
O3    Zn4   S    
O6    Zn1   S    
C14   O5    A    
C5    C6    D    
O8    Zn2   S    
C17   C18   S    
O11   Zn1   S    
C4    O9    A    
C13   C15   S    
C10   O12   A    
C15   C20   T    
O1    Zn2   S    
C1    O10   A    
C23   H4    S    
C2    C25   T    
C18   H2    S    
C24   C25   S    
C14   C21   S    
C3    C8    T    
C22   C26   T    
C23   C26   S    
C7    C9    T    
O1    Zn3   S    
C24   H3    S    
C18   C19   S    
C13   O4    A    
O2    Zn2   S    
O9    Zn3   S    
C14   O3    A    
O4    Zn3   S    
C18   H10   S    
C12   C21   T    
O7    Zn4   S    
O12   Zn2   S    
C19   H7    S    
C16   C17   D    
C4    O11   A    
