data_mof_unit_38495.cif
_audit_creation_date              2013-03-05T16:12:06-0500
_audit_creation_method            fapswitch 2.2
_symmetry_space_group_name_H-M    P1
_symmetry_Int_Tables_number       1
_space_group_crystal_system       triclinic
_cell_length_a                    9.88828
_cell_length_b                    10.660937
_cell_length_c                    16.606211
_cell_angle_alpha                 90.049198
_cell_angle_beta                  84.429507
_cell_angle_gamma                 90.403938
_cell_volume                      1742.28854265

loop_
_atom_site_label
_atom_site_type_symbol
_atom_site_description
_atom_site_fract_x
_atom_site_fract_y
_atom_site_fract_z
_atom_type_partial_charge
O1    O     O_R   0.385380 0.683250 0.500010 -0.632209
O2    O     O_R   0.614620 0.316750 0.499990 -0.634637
O3    O     O_R   0.614710 0.683220 0.500000 -0.554680
O4    O     O_R   0.385290 0.316780 0.500000 -0.565224
C1    C     C_R   0.500710 0.739631 0.497544 0.958372
C2    C     C_R   0.499347 0.260296 0.501798 0.932307
O5    O     O_R   0.371780 0.500040 0.615800 -0.617183
O6    O     O_R   0.628220 0.499960 0.384200 -0.597672
O7    O     O_R   0.601110 0.500010 0.615800 -0.579256
O8    O     O_R   0.398890 0.499990 0.384200 -0.562342
C3    C     C_R   0.479799 0.498366 0.653751 0.930435
C4    C     C_R   0.519941 0.495957 0.346863 0.918915
Zn1   Zn    Zn3+2 0.346870 0.500020 0.500000 1.060449
Zn2   Zn    Zn3+2 0.653130 0.499980 0.500000 1.063472
C5    C     C_R   0.462358 0.479088 0.741053 -0.112272
C6    C     C_R   0.534360 0.449317 0.265159 -0.085342
C7    C     C_R   0.572579 0.492929 0.786874 -0.096821
C8    C     C_R   0.582516 0.526219 0.201070 -0.091782
C9    C     C_R   0.557937 0.462173 0.868270 -0.134813
C10   C     C_R   0.587694 0.479509 0.122947 -0.134415
C11   C     C_R   0.434475 0.412797 0.904319 -0.010965
C12   C     C_R   0.543623 0.356338 0.108870 -0.022281
C13   C     C_R   0.322098 0.399239 0.858805 0.367319
C14   C     C_R   0.505983 0.274472 0.174180 0.386209
C15   C     C_R   0.336683 0.435579 0.777712 -0.162708
C16   C     C_R   0.503288 0.322911 0.252489 -0.184055
C17   C     C_2   0.421775 0.390041 0.991845 0.185672
C18   C     C_2   0.519501 0.325135 0.025688 0.179986
C19   C     C_R   0.599082 0.939058 0.445833 0.364856
C20   C     C_R   0.400181 0.060695 0.552028 0.362412
C21   C     C_R   0.598225 0.068047 0.451075 -0.240908
C22   C     C_R   0.400990 0.931899 0.546785 -0.235501
C23   C     C_R   0.499376 0.127780 0.502994 -0.189053
C24   C     C_R   0.500341 0.872083 0.495337 -0.190974
C25   C     C_R   0.931535 0.401752 0.468387 -0.155582
C26   C     C_R   0.068492 0.598231 0.531654 -0.166956
C27   C     C_R   0.074924 0.401406 0.467758 0.385572
C28   C     C_R   0.925086 0.598786 0.532167 0.377183
N1    N     N_R   0.142790 0.500030 0.500020 -0.160356
N2    N     N_R   0.857210 0.499970 0.499980 -0.159280
H1    H     H_    0.669959 0.527105 0.759871 0.209372
H2    H     H_    0.610883 0.622853 0.211222 0.206028
H3    H     H_    0.472383 0.263306 0.303946 0.186416
H4    H     H_    0.251296 0.423406 0.742171 0.218636
N3    N     N_R   0.612050 0.241965 0.979584 0.231223
O9    O     O_R   0.727228 0.213201 0.006418 -0.271196
O10   O     O_R   0.574502 0.182110 0.917030 -0.287139
N4    N     N_R   0.317673 0.457173 0.041304 0.224678
O11   O     O_R   0.268747 0.560791 0.015041 -0.306916
O12   O     O_R   0.261250 0.408317 0.108228 -0.288185
N5    N     N_R   0.195088 0.345761 0.892883 0.242788
O13   O     O_R   0.193093 0.256309 0.946271 -0.251435
O14   O     O_R   0.082062 0.375973 0.863911 -0.313519
N6    N     N_R   0.464591 0.146060 0.162952 0.241893
O15   O     O_R   0.410402 0.111022 0.098163 -0.262106
O16   O     O_R   0.471616 0.064741 0.220820 -0.320840
H5    H     H_    0.618109 0.541758 0.072751 0.174337
H6    H     H_    0.643407 0.476948 0.903454 0.175246
N7    N     N_R   0.695593 0.878651 0.388192 0.237583
O17   O     O_R   0.657798 0.785494 0.344732 -0.387929
O18   O     O_R   0.815448 0.928147 0.370388 -0.283006
N8    N     N_R   0.303722 0.120837 0.609713 0.233311
O19   O     O_R   0.342849 0.210995 0.655062 -0.398940
O20   O     O_R   0.182845 0.072791 0.626158 -0.288010
H7    H     H_    0.671367 0.122378 0.412318 0.196612
H8    H     H_    0.327629 0.877774 0.585531 0.198332
H9    H     H_    0.880138 0.323904 0.442294 0.192666
H10   H     H_    0.119998 0.676153 0.557586 0.193182
N9    N     N_R   0.147532 0.297633 0.431099 0.224971
O21   O     O_R   0.218217 0.313162 0.361682 -0.345883
O22   O     O_R   0.114297 0.184347 0.454858 -0.317313
N10   N     N_R   0.852813 0.703966 0.567461 0.226503
O23   O     O_R   0.890428 0.816769 0.544866 -0.316850
O24   O     O_R   0.774413 0.689531 0.634301 -0.370406

loop_
_geom_bond_atom_site_label_1
_geom_bond_atom_site_label_2
_geom_bond_distance
_ccdc_geom_bond_type
C17   N4    1.446255 S    
C20   C22   1.375802 A    
O7    Zn2   1.941773 S    
C26   H10   1.082096 S    
N8    O19   1.300284 A    
N7    O18   1.301489 A    
C27   N9    1.426610 S    
N10   O24   1.299321 A    
C9    H6    1.083647 S    
C13   N5    1.440513 S    
C20   C23   1.404524 A    
C2    C23   1.412908 S    
C25   H9    1.082138 S    
O6    C4    1.288735 A    
C1    C24   1.412613 S    
C12   C14   1.412515 A    
N4    O12   1.301612 A    
C25   N2    1.358988 A    
C11   C17   1.466962 S    
N9    O22   1.300899 A    
N7    O17   1.301058 A    
C27   N1    1.379039 A    
C6    C8    1.388963 A    
C12   C18   1.462086 S    
N3    O9    1.301323 A    
C28   N2    1.380110 A    
O7    C3    1.299759 A    
O2    C2    1.283007 A    
O3    Zn2   1.992736 S    
O8    C4    1.294466 A    
C19   C21   1.377851 A    
O1    C1    1.282506 A    
C15   H4    1.083110 S    
C26   C28   1.417283 A    
N4    O11   1.301488 A    
C7    C9    1.384773 A    
C10   C12   1.407133 A    
C16   H3    1.083901 S    
O5    C3    1.292034 A    
C28   N10   1.428446 S    
C20   N8    1.438284 S    
C11   C13   1.409800 A    
C6    C16   1.400333 A    
N9    O21   1.298862 A    
O2    Zn2   1.987540 S    
N6    O16   1.301970 A    
C18   N3    1.443635 S    
Zn1   N1    2.017969 S    
C7    H1    1.082852 S    
C5    C15   1.405545 A    
C21   C23   1.395888 A    
N5    O14   1.301551 A    
Zn2   N2    2.017970 S    
N5    O13   1.301397 A    
C4    C6    1.439003 S    
C3    C5    1.457827 S    
O5    Zn1   1.962283 S    
C13   C15   1.395275 A    
O1    Zn1   1.987540 S    
C8    C10   1.385645 A    
C22   H8    1.085027 S    
O4    C2    1.285161 A    
N3    O10   1.301727 A    
C17   C18   1.357943 D    
C5    C7    1.395416 A    
C21   H7    1.084982 S    
N6    O15   1.301000 A    
N8    O20   1.301474 A    
O6    Zn2   1.962283 S    
C8    H2    1.083160 S    
C25   C27   1.416923 A    
C10   H5    1.084046 S    
C9    C11   1.405511 A    
C14   N6    1.443228 S    
C19   C24   1.405090 A    
C26   N1    1.358942 A    
C19   N7    1.439434 S    
O4    Zn1   1.992736 S    
C14   C16   1.396700 A    
N10   O23   1.301039 A    
O3    C1    1.285533 A    
O8    Zn1   1.941773 S    
C22   C24   1.395228 A    
