data_mof_unit_65363.cif
_audit_creation_date              2012-12-10T17:06:05-0500
_audit_creation_method            fapswitch 2.2
_symmetry_space_group_name_H-M    P1
_symmetry_Int_Tables_number       1
_space_group_crystal_system       triclinic
_cell_length_a                    11.541889
_cell_length_b                    10.747624
_cell_length_c                    10.097321
_cell_angle_alpha                 90.575026
_cell_angle_beta                  90.548307
_cell_angle_gamma                 90.588618
_cell_volume                      1252.36351966

loop_
_atom_site_label
_atom_site_type_symbol
_atom_type_description
_atom_site_fract_x
_atom_site_fract_y
_atom_site_fract_z
_atom_type_partial_charge
C1    C     C_R   0.505278 0.262951 0.499381 0.839464
C2    C     C_1   0.161599 0.499716 0.498611 -0.109856
C3    C     C_1   0.059373 0.499685 0.499222 0.041317
C4    C     C_1   0.940646 0.499757 0.500618 0.040833
C5    C     C_1   0.838419 0.499885 0.501301 -0.110764
C6    C     C_2   0.529472 0.930842 0.394157 -0.198929
C7    C     C_2   0.492270 0.868764 0.499604 -0.283512
C8    C     C_2   0.518176 0.063839 0.388876 0.515654
C9    C     C_2   0.528919 0.132912 0.499603 0.305553
C10   C     C_2   0.485892 0.598504 0.926609 0.793171
C11   C     C_2   0.512054 0.598471 0.073197 -0.082909
C12   C     C_R   0.282152 0.499831 0.499471 0.876411
C13   C     C_R   0.498792 0.737053 0.500351 0.904951
C14   C     C_R   0.717856 0.500044 0.500516 0.862267
F1    F     F_    0.492312 0.113818 0.269098 -0.601244
F2    F     F_    0.570654 0.084849 0.614873 -0.629497
F3    F     F_    0.442095 0.703393 0.872703 -0.654950
F4    F     F_    0.586163 0.427751 0.895245 -0.535336
H1    H     H_    0.562072 0.883269 0.306823 0.197747
H2    H     H_    0.452753 0.913738 0.584355 0.226649
H3    H     H_    0.538237 0.686078 0.119110 0.119054
H4    H     H_    0.284702 0.251275 0.179646 0.383490
N1    N     N_2   0.501210 0.501330 0.852150 0.135519
N2    N     N_2   0.501250 0.501360 0.147810 0.049880
O1    O     O_R   0.499980 0.319060 0.613040 -0.528805
O2    O     O_2   0.474580 0.276739 0.033990 -0.126739
O3    O     O_3   0.330764 0.320507 0.219673 -0.475647
O4    O     O_R   0.500020 0.319100 0.386900 -0.534152
O5    O     O_R   0.334430 0.499990 0.613070 -0.598507
O6    O     O_R   0.334470 0.500030 0.386930 -0.559426
O7    O     O_R   0.499980 0.680900 0.613100 -0.562908
O8    O     O_R   0.500020 0.680940 0.386960 -0.652373
O9    O     O_R   0.665530 0.499970 0.613070 -0.572709
O10   O     O_R   0.665570 0.500010 0.386930 -0.619026
O11   O     O_2   0.318582 0.426439 0.995413 -0.328589
S1    S     S_3+6 0.406469 0.381031 0.094285 0.206479
Zn1   Zn    Zn3+2 0.499980 0.499970 0.650990 1.169899
Zn2   Zn    Zn3+2 0.500020 0.500030 0.349010 1.097540

loop_
_geom_bond_atom_site_label_1
_geom_bond_atom_site_label_2
_ccdc_geom_bond_type
C14   O10   A    
C1    O4    A    
N2    Zn2   S    
C6    C7    D    
O8    Zn2   S    
O3    S1    S    
C13   O8    A    
O11   S1    D    
O4    Zn2   S    
C2    C12   S    
C14   O9    A    
C2    C3    T    
N1    Zn1   S    
C1    O1    A    
C6    H1    S    
C5    C14   S    
N2    S1    S    
O2    S1    D    
C9    F2    S    
C13   O7    A    
C8    F1    S    
H4    O3    S    
C10   N1    D    
C10   C11   S    
C10   F3    S    
F4    N1    S    
O7    Zn1   S    
C11   N2    D    
C7    C13   S    
C1    C9    S    
O6    Zn2   S    
C7    H2    S    
O5    Zn1   S    
C8    C9    D    
C6    C8    S    
O1    Zn1   S    
O10   Zn2   S    
C12   O6    A    
C11   H3    S    
O9    Zn1   S    
C3    C4    S    
C4    C5    T    
C12   O5    A    
