data_mof_unit_37017.cif
_audit_creation_date              2013-03-05T15:43:10-0500
_audit_creation_method            fapswitch 2.2
_symmetry_space_group_name_H-M    P1
_symmetry_Int_Tables_number       1
_space_group_crystal_system       triclinic
_cell_length_a                    6.984478
_cell_length_b                    13.88867
_cell_length_c                    18.333535
_cell_angle_alpha                 113.274107
_cell_angle_beta                  94.268107
_cell_angle_gamma                 90.769422
_cell_volume                      1627.41270386

loop_
_atom_site_label
_atom_site_type_symbol
_atom_site_description
_atom_site_fract_x
_atom_site_fract_y
_atom_site_fract_z
_atom_type_partial_charge
O1    O     O_R   0.484560 0.544530 0.414330 -0.509976
O2    O     O_R   0.197040 0.638810 0.585080 -0.572333
O3    O     O_R   0.026800 0.455470 0.585670 -0.589075
C1    C     C_R   0.372872 0.680567 0.606253 0.786104
O4    O     O_R   0.155000 0.556150 0.414940 -0.517068
O5    O     O_R   0.984450 0.372220 0.414320 -0.578136
C2    C     C_R   0.319952 0.564222 0.386677 0.885041
O6    O     O_R   0.526900 0.627780 0.585680 -0.571531
O7    O     O_3   0.339170 0.439750 0.499990 -0.315726
V1    V     V_3+5 0.064350 0.511180 0.500000 1.164878
O8    O     O_R   0.654880 0.361190 0.414920 -0.509054
C3    C     C_R   0.817297 0.325035 0.386464 0.837683
O9    O     O_R   0.696930 0.443850 0.585060 -0.590993
C4    C     C_R   0.871437 0.429832 0.610065 0.787119
V2    V     V_3+5 0.564340 0.488820 0.500000 1.172664
O10   O     O_3   0.839390 0.560250 0.500010 -0.249241
C5    C     C_R   0.046410 0.865451 0.825927 -0.097033
C6    C     C_R   0.901428 0.392832 0.676443 -0.092784
C7    C     C_R   0.927399 0.822725 0.688490 -0.058007
C8    C     C_R   0.979710 0.791747 0.750493 -0.078724
C9    C     C_R   0.054104 0.973420 0.838844 -0.125948
C10   C     C_R   0.998983 0.007520 0.775890 0.061590
C11   C     C_R   0.937620 0.928805 0.700077 0.045463
C12   C     C_R   0.001480 0.115868 0.784748 0.032242
C13   C     C_R   0.946544 0.142355 0.717550 0.031697
C14   C     C_R   0.891108 0.059567 0.643842 -0.095958
C15   C     C_R   0.885872 0.955654 0.635658 -0.112225
C16   C     C_R   0.056973 0.198647 0.858451 -0.094695
C17   C     C_R   0.062251 0.302553 0.866635 -0.110293
C18   C     C_R   0.010439 0.329413 0.802232 0.047427
C19   C     C_R   0.949008 0.250712 0.726419 0.060609
C20   C     C_R   0.020656 0.435498 0.813841 -0.059521
C21   C     C_R   0.968221 0.466508 0.751871 -0.076868
C22   C     C_R   0.893795 0.284843 0.663489 -0.126870
H1    H     H_    0.839816 0.895090 0.577707 0.091203
H2    H     H_    0.847811 0.229934 0.603914 0.046960
H3    H     H_    0.981862 0.548891 0.762803 0.058638
H4    H     H_    0.108374 0.363105 0.924580 0.073091
H5    H     H_    0.877037 0.762979 0.630832 0.111563
H6    H     H_    0.966082 0.709369 0.739579 0.057476
H7    H     H_    0.100066 0.028338 0.898417 0.046104
H8    H     H_    0.848992 0.072725 0.590943 0.080799
H9    H     H_    0.099132 0.185496 0.911347 0.077019
H10   H     H_    0.071103 0.495228 0.871493 0.109728
H11   H     H_    0.112055 0.216744 0.313138 0.138080
H12   H     H_    0.832952 0.038733 0.186715 0.169149
C23   C     C_2   0.133106 0.035296 0.184189 -0.229098
C24   C     C_2   0.970365 0.078037 0.215038 -0.059684
C25   C     C_2   0.810338 0.221971 0.318092 0.205099
C26   C     C_2   0.973032 0.177644 0.286673 -0.144834
H13   H     H_    0.269964 0.074209 0.210840 0.196459
C27   C     C_R   0.404626 0.786997 0.671626 -0.090600
C28   C     C_R   0.543841 0.471292 0.830983 -0.094432
C29   C     C_R   0.515355 0.888466 0.809522 -0.001070
C30   C     C_R   0.466462 0.792091 0.746361 -0.070080
C31   C     C_R   0.397133 0.881624 0.659772 -0.126252
C32   C     C_R   0.447832 0.981798 0.724398 0.050671
C33   C     C_R   0.502450 0.983158 0.800245 0.066885
C34   C     C_R   0.448865 0.080599 0.717120 0.033704
C35   C     C_R   0.499430 0.177703 0.785462 0.034265
C36   C     C_R   0.544944 0.173177 0.859141 -0.096989
C37   C     C_R   0.546336 0.078815 0.866337 -0.116811
C38   C     C_R   0.403272 0.085137 0.643447 -0.096576
C39   C     C_R   0.401829 0.179514 0.636262 -0.116753
C40   C     C_R   0.445780 0.275165 0.702358 0.066162
C41   C     C_R   0.500489 0.276503 0.778190 0.052232
C42   C     C_R   0.432871 0.369876 0.693105 -0.000569
C43   C     C_R   0.481870 0.466232 0.756270 -0.069071
C44   C     C_R   0.551314 0.376657 0.842816 -0.127007
H14   H     H_    0.583767 0.083375 0.925873 0.071081
H15   H     H_    0.595296 0.384270 0.902454 0.047391
H16   H     H_    0.469348 0.538795 0.747611 0.041548
H17   H     H_    0.364320 0.174979 0.576738 0.073075
H18   H     H_    0.478988 0.719541 0.755037 0.042007
H19   H     H_    0.353277 0.873995 0.600119 0.052131
H20   H     H_    0.580554 0.241544 0.913155 0.078290
H21   H     H_    0.367589 0.016770 0.589439 0.080237
H22   H     H_    0.336343 0.668898 0.198855 0.094530
C45   C     C_2   0.322363 0.600356 0.319477 -0.274855
C46   C     C_2   0.483956 0.609863 0.284369 0.339774
H23   H     H_    0.771029 0.635113 0.200127 0.127590
C47   C     C_2   0.632527 0.656086 0.181224 -0.185044
C48   C     C_2   0.474678 0.647730 0.217918 -0.144285
H24   H     H_    0.185639 0.620153 0.297919 0.096774
O11   O     O_R   0.421600 0.630430 0.917010 -0.564678
O12   O     O_R   0.793840 0.702190 0.087630 -0.560424
O13   O     O_R   0.964010 0.886170 0.088190 -0.557494
C49   C     C_R   0.629621 0.693571 0.115386 0.838894
O14   O     O_R   0.751460 0.619510 0.917500 -0.566828
O15   O     O_R   0.921330 0.802900 0.916840 -0.582213
C50   C     C_R   0.575651 0.577709 0.896362 0.796257
O16   O     O_R   0.464290 0.713700 0.088350 -0.554578
O17   O     O_3   0.609200 0.818520 0.002630 -0.304384
V3    V     V_3+5 0.884140 0.747190 0.002530 1.110023
O18   O     O_R   0.251150 0.814630 0.917340 -0.583743
C51   C     C_R   0.076564 0.828507 0.892336 0.802414
O19   O     O_R   0.293530 0.897310 0.087470 -0.540380
C52   C     C_R   0.130577 0.933542 0.115529 0.848170
V4    V     V_3+5 0.384070 0.769710 0.002370 1.115073
O20   O     O_3   0.109180 0.698190 0.002460 -0.281134
N1    N     N_R   0.625817 0.171345 0.284693 0.062191
O21   O     O_R   0.490389 0.224703 0.267993 -0.384088
O22   O     O_R   0.583471 0.080465 0.285868 -0.411209
C53   C     C_3   0.591251 0.889126 0.886325 -0.234385
H25   H     H_    0.600041 0.806523 0.878554 0.179606
H26   H     H_    0.732866 0.931524 0.903932 0.086891
H27   H     H_    0.498541 0.933456 0.933729 0.126419
C54   C     C_3   0.356954 0.369263 0.616321 -0.235740
H28   H     H_    0.348107 0.451874 0.624110 0.177008
H29   H     H_    0.449706 0.324957 0.568925 0.126764
H30   H     H_    0.215333 0.326874 0.598707 0.086213
N2    N     N_R   0.667417 0.583528 0.310224 0.099508
O23   O     O_R   0.792856 0.657694 0.354170 -0.382131
O24   O     O_R   0.717052 0.486478 0.281913 -0.358189

loop_
_geom_bond_atom_site_label_1
_geom_bond_atom_site_label_2
_geom_bond_distance
_ccdc_geom_bond_type
C33   C37   1.410267 A    
C18   C20   1.402968 A    
C13   C19   1.448126 A    
O17   V3    2.172379 S    
C4    C6    1.499360 S    
O2    C1    1.314247 A    
O18   C51   1.314198 A    
C1    O6    1.303909 A    
C28   C44   1.415206 A    
N2    O24   1.301092 A    
C3    C25   1.481123 S    
O11   C50   1.303800 A    
C54   H28   1.101985 S    
C14   C15   1.390453 A    
N1    O21   1.301028 A    
C23   C52   1.473851 S    
C1    C27   1.490710 S    
C29   C53   1.463671 S    
C16   C17   1.390340 A    
H23   C47   1.085437 S    
O5    C3    1.295951 A    
C45   H24   1.086498 S    
C8    H6    1.082328 S    
O18   V4    2.061552 S    
C42   C54   1.463631 S    
C32   C34   1.430181 A    
C41   C44   1.444454 A    
V2    O10   2.150202 S    
O13   V3    1.987079 S    
O19   C52   1.308120 A    
C5    C8    1.396439 A    
C31   C32   1.444470 A    
C37   H14   1.079902 S    
O14   V3    1.997446 S    
C44   H15   1.076460 S    
C28   C43   1.379627 A    
N2    O23   1.301003 A    
O12   V3    2.032001 S    
C30   H18   1.084090 S    
O8    V2    1.991726 S    
H22   C48   1.086590 S    
V4    O20   2.150231 S    
C40   C42   1.394440 A    
C17   H4    1.084137 S    
C28   C50   1.490671 S    
C39   H17   1.079913 S    
O1    V2    2.053712 S    
C11   C15   1.397361 A    
O14   C50   1.314255 A    
O7    V1    2.172472 S    
O17   V4    1.702871 S    
C22   H2    1.077337 S    
C27   C30   1.379609 A    
O13   C52   1.292134 A    
C24   C26   1.482856 S    
C35   C41   1.430111 A    
C34   C35   1.448942 A    
N1    O22   1.301354 A    
C31   H19   1.076477 S    
O9    C4    1.314292 A    
C46   C48   1.503491 S    
C53   H26   1.102676 S    
C53   H25   1.101936 S    
O19   V4    1.991650 S    
O15   V3    2.037183 S    
C36   H20   1.076112 S    
H12   C24   1.084661 S    
C42   C43   1.397529 A    
C49   O16   1.300105 A    
C12   C13   1.446352 A    
O4    C2    1.318979 A    
C23   H13   1.073525 S    
C15   H1    1.084172 S    
C13   C14   1.407251 A    
C47   C48   1.360209 D    
C21   H3    1.082334 S    
C38   C39   1.368278 A    
C35   C36   1.390467 A    
C7    C11   1.403013 A    
C17   C18   1.397284 A    
O11   V4    1.985469 S    
C23   C24   1.346378 D    
V3    O20   1.721045 S    
C43   H16   1.084096 S    
C46   N2    1.435138 S    
C20   H10   1.083191 S    
C19   C22   1.440623 A    
C5    C51   1.499470 S    
C6    C22   1.422388 A    
O3    C4    1.300781 A    
C7    H5    1.083199 S    
C9    H7    1.077314 S    
C25   C26   1.355743 D    
O6    V2    1.984828 S    
O9    V2    2.061521 S    
C10   C12   1.448060 A    
O2    V1    1.997438 S    
C14   H8    1.076811 S    
C2    C45   1.503821 S    
C29   C33   1.394390 A    
C29   C30   1.397546 A    
O1    C2    1.298034 A    
C12   C16   1.407215 A    
O5    V1    1.987083 S    
O8    C3    1.306730 A    
O15   C51   1.300865 A    
C16   H9    1.076791 S    
C34   C38   1.390510 A    
C54   H30   1.102666 S    
C20   C21   1.392615 A    
C7    C8    1.392721 A    
O7    V2    1.705551 S    
O4    V1    2.031969 S    
O3    V1    2.037297 S    
V1    O10   1.721025 S    
C39   C40   1.410303 A    
C25   N1    1.431161 S    
C32   C33   1.406965 A    
C18   C19   1.417300 A    
H11   C26   1.086577 S    
C47   C49   1.490522 S    
C54   H29   1.106941 S    
O12   C49   1.311558 A    
C36   C37   1.368153 A    
C6    C21   1.396398 A    
C5    C9    1.422291 A    
C45   C46   1.369979 D    
C40   C41   1.406951 A    
C38   H21   1.076127 S    
C10   C11   1.417287 A    
C9    C10   1.440600 A    
C53   H27   1.106926 S    
C27   C31   1.415306 A    
O16   V4    2.062311 S    
