data_mof_unit_15957.cif
_audit_creation_date              2012-10-26T20:50:48-0400
_audit_creation_method            fapswitch 2.2
_symmetry_space_group_name_H-M    P1
_symmetry_Int_Tables_number       1
_space_group_crystal_system       triclinic
_cell_length_a                    11.044619
_cell_length_b                    10.841765
_cell_length_c                    9.577154
_cell_angle_alpha                 89.792681
_cell_angle_beta                  101.697519
_cell_angle_gamma                 91.471371
_cell_volume                      1122.60978838

loop_
_atom_site_label
_atom_site_type_symbol
_atom_type_description
_atom_site_fract_x
_atom_site_fract_y
_atom_site_fract_z
_atom_type_partial_charge
C1    C     C_R   0.498624 0.262641 0.499924 0.564415
C2    C     C_R   0.415068 0.432535 0.056921 0.528446
C3    C     C_R   0.412968 0.432531 0.907483 0.125748
C4    C     C_R   0.262732 0.498575 0.443180 0.602049
C5    C     C_R   0.580907 0.574404 0.944955 0.097262
C6    C     C_3   0.718562 0.571589 0.971573 -0.202381
C7    C     C_3   0.717870 0.573383 0.129511 0.250039
C8    C     C_R   0.498568 0.737518 0.499448 0.554253
C9    C     C_R   0.736246 0.496840 0.556904 0.572360
C10   C     C_2   0.127960 0.483407 0.414383 0.372397
C11   C     C_2   0.067221 0.478514 0.523036 0.317696
C12   C     C_R   0.490058 0.129584 0.498981 -0.072109
C13   C     C_2   0.870017 0.499936 0.586331 -0.010763
C14   C     C_2   0.936032 0.442354 0.503347 0.041253
C15   C     C_R   0.515432 0.063727 0.626533 0.004727
C16   C     C_2   0.886885 0.336008 0.407429 0.242928
C17   C     C_2   0.732624 0.138246 0.721775 0.272247
C18   C     C_2   0.316588 0.353731 0.816258 0.428503
C19   C     C_2   0.573784 0.871853 0.883506 0.326307
C20   C     C_2   0.734009 0.873205 0.732525 0.163279
C21   C     C_2   0.575250 0.134108 0.882191 0.275036
C22   C     C_R   0.451123 0.064515 0.370407 -0.078495
C23   C     C_R   0.450979 0.935683 0.369477 0.385266
C24   C     C_R   0.490455 0.870703 0.497958 -0.009068
C25   C     C_R   0.515834 0.937064 0.626046 -0.012736
C26   C     C_3   0.617136 0.931279 0.758095 -0.039516
C27   C     C_3   0.617738 0.075344 0.756924 -0.011746
C28   C     C_R   0.580092 0.575483 0.091837 0.178082
Cu1   Cu    Cu3+1 0.499990 0.499980 0.640670 1.030853
Cu2   Cu    Cu3+1 0.500010 0.500020 0.359330 1.179472
F1    F     F_    0.335302 0.358883 0.112003 -0.537572
F2    F     F_    0.767602 0.682183 0.194675 -0.583291
F3    F     F_    0.125198 0.513534 0.656984 -0.602559
F4    F     F_    0.066798 0.468532 0.276843 -0.615699
F5    F     F_    0.416061 0.875914 0.242791 -0.546436
H1    H     H_    0.753018 0.483643 0.936933 0.159989
H2    H     H_    0.735800 0.826977 0.632735 0.118666
H3    H     H_    0.642266 0.177503 0.967602 0.144405
H4    H     H_    0.759922 0.656458 0.933432 0.202938
H5    H     H_    0.754881 0.488723 0.186440 0.155175
H6    H     H_    0.914822 0.563638 0.669461 0.171908
H7    H     H_    0.424405 0.112970 0.270184 0.219170
H8    H     H_    0.941421 0.299316 0.335788 0.182591
H9    H     H_    0.766893 0.108827 0.629007 0.157006
H10   H     H_    0.327581 0.318568 0.715290 0.141599
H11   H     H_    0.636815 0.868360 0.986266 0.169281
N1    N     N_R   0.500780 0.500930 0.148120 -0.277672
N2    N     N_R   0.500790 0.500890 0.852210 -0.307666
O1    O     O_R   0.500000 0.319640 0.618810 -0.539198
O2    O     O_2   0.787175 0.222444 0.794890 -0.463710
O3    O     O_2   0.220694 0.324934 0.854428 -0.344755
O4    O     O_2   0.468619 0.829554 0.872170 -0.389998
O5    O     O_2   0.828421 0.878355 0.824471 -0.442489
O6    O     O_2   0.466816 0.128318 0.892437 -0.459876
O7    O     O_R   0.500010 0.319680 0.381230 -0.457539
O8    O     O_R   0.320680 0.500000 0.575130 -0.508977
O9    O     O_R   0.320690 0.500040 0.337550 -0.399032
O10   O     O_R   0.499990 0.680320 0.618770 -0.487538
O11   O     O_R   0.500000 0.680360 0.381190 -0.427357
O12   O     O_R   0.679310 0.499960 0.662450 -0.514163
O13   O     O_R   0.679320 0.500000 0.424870 -0.479168
O14   O     O_2   0.789015 0.283166 0.412876 -0.513835

loop_
_geom_bond_atom_site_label_1
_geom_bond_atom_site_label_2
_ccdc_geom_bond_type
C17   O2    D    
C4    O9    A    
C7    H5    S    
Cu1   O12   S    
C28   N1    A    
C6    C7    S    
Cu1   O8    S    
C2    N1    A    
C5    C28   A    
Cu2   O7    S    
C3    N2    A    
C15   C27   S    
C12   C15   A    
C23   C24   A    
C9    O12   A    
Cu2   O11   S    
C13   H6    S    
C2    C3    A    
C21   C27   S    
C17   H9    S    
C10   F4    S    
Cu1   O1    S    
C13   C14   D    
Cu1   O10   S    
C20   H2    S    
C16   H8    S    
C26   C27   S    
Cu1   Cu2   S    
C1    C12   S    
C16   O14   D    
C9    O13   A    
C5    C6    S    
C20   O5    D    
C8    C24   S    
C6    H1    S    
C18   O3    D    
C23   F5    S    
C8    O11   A    
C1    O7    A    
C21   O6    D    
C5    N2    A    
C14   C16   S    
C19   H11   S    
C15   C25   A    
C10   C11   D    
C21   H3    S    
Cu1   N2    S    
C4    C10   S    
C17   C27   S    
C18   H10   S    
C12   C22   A    
Cu2   N1    S    
C11   F3    S    
C24   C25   A    
C3    C18   S    
Cu2   O13   S    
C22   H7    S    
C11   C14   S    
C19   C26   S    
C9    C13   S    
C22   C23   A    
C2    F1    S    
C7    F2    S    
C8    O10   A    
C25   C26   S    
C6    H4    S    
C1    O1    A    
C19   O4    D    
C4    O8    A    
C7    C28   S    
Cu2   O9    S    
C20   C26   S    
