data_mof_unit_31682.cif
_audit_creation_date              2012-12-11T15:26:06-0500
_audit_creation_method            fapswitch 2.2
_symmetry_space_group_name_H-M    P1
_symmetry_Int_Tables_number       1
_space_group_crystal_system       triclinic
_cell_length_a                    24.632897
_cell_length_b                    17.019512
_cell_length_c                    15.565463
_cell_angle_alpha                 90.010013
_cell_angle_beta                  50.097677
_cell_angle_gamma                 90.000156
_cell_volume                      5006.0913523

loop_
_atom_site_label
_atom_site_type_symbol
_atom_type_description
_atom_site_fract_x
_atom_site_fract_y
_atom_site_fract_z
_atom_type_partial_charge
C1    C     C_R   0.348397 0.140877 0.760917 0.037319
C2    C     C_2   0.301791 0.840333 0.980367 -0.212621
C3    C     C_2   0.350614 0.256561 0.860531 -0.208298
C4    C     C_2   0.698232 0.840373 0.019559 -0.217373
C5    C     C_2   0.149398 0.756508 0.139448 -0.210623
C6    C     C_2   0.801757 0.339627 0.979919 -0.336100
C7    C     C_2   0.850668 0.756617 0.860418 -0.220382
C8    C     C_2   0.198225 0.340330 0.019592 -0.213074
C9    C     C_2   0.684069 0.311190 0.151791 0.006805
C10   C     C_2   0.233571 0.863703 0.056716 -0.105778
C11   C     C_2   0.316024 0.311177 0.848331 -0.130448
C12   C     C_R   0.667598 0.889952 0.199136 -0.068811
C13   C     C_2   0.766436 0.863776 0.943223 -0.108450
C14   C     C_2   0.184010 0.811120 0.151613 -0.126745
C15   C     C_2   0.733723 0.363326 0.056084 -0.117775
C16   C     C_2   0.816025 0.811203 0.848287 -0.121945
C17   C     C_2   0.266420 0.363754 0.943248 -0.106148
C18   C     C_R   0.614474 0.098156 0.593496 0.470014
C19   C     C_R   0.409425 0.856830 0.407549 0.491583
C20   C     C_R   0.385535 0.098147 0.406497 0.471572
C21   C     C_R   0.590583 0.856832 0.592422 0.491046
C22   C     C_R   0.114469 0.598167 0.593498 0.472632
C23   C     C_R   0.651419 0.141046 0.239522 0.034571
C24   C     C_R   0.909417 0.356847 0.407533 0.491667
C25   C     C_R   0.885541 0.598164 0.406492 0.469105
C26   C     C_R   0.090601 0.356849 0.592423 0.495232
C27   C     C_R   0.689224 0.102139 0.408657 -0.197018
C28   C     C_R   0.338686 0.854366 0.592813 -0.231430
C29   C     C_R   0.310776 0.102160 0.591339 -0.197284
C30   C     C_R   0.661321 0.854358 0.407156 -0.231086
C31   C     C_R   0.189219 0.602164 0.408657 -0.197855
C32   C     C_R   0.838664 0.354375 0.592791 -0.220989
C33   C     C_R   0.810780 0.602174 0.591336 -0.191112
C34   C     C_R   0.332409 0.889951 0.800840 -0.066357
C35   C     C_R   0.161333 0.354366 0.407157 -0.229353
C36   C     C_R   0.560737 0.142083 0.239051 -0.143952
C37   C     C_R   0.420831 0.891253 0.804298 -0.122090
C38   C     C_R   0.439052 0.141908 0.761455 -0.166105
C39   C     C_R   0.579177 0.891256 0.195681 -0.119487
C40   C     C_R   0.060951 0.641889 0.238539 -0.167782
C41   C     C_R   0.920827 0.391096 0.804238 -0.114188
C42   C     C_R   0.939078 0.641935 0.761394 -0.186679
C43   C     C_R   0.079173 0.391240 0.195692 -0.123128
C44   C     C_R   0.379699 0.183837 0.794258 0.197019
C45   C     C_R   0.848414 0.640897 0.760878 -0.044145
C46   C     C_R   0.649396 0.870104 0.135078 0.180674
C47   C     C_R   0.619955 0.184112 0.206560 0.151026
C48   C     C_R   0.350618 0.870095 0.864883 0.178590
C49   C     C_R   0.879735 0.683877 0.794173 0.210696
C50   C     C_R   0.149388 0.370075 0.135100 0.178499
C51   C     C_R   0.120309 0.683805 0.205729 0.197973
C52   C     C_R   0.850623 0.369877 0.864713 0.151184
C53   C     C_R   0.683547 0.115213 0.502257 -0.010937
C54   C     C_R   0.361482 0.809948 0.499989 -0.018839
C55   C     C_R   0.316466 0.115229 0.497727 -0.009690
C56   C     C_R   0.167595 0.389937 0.199148 -0.067945
C57   C     C_R   0.638532 0.809946 0.499959 -0.019821
C58   C     C_R   0.183536 0.615246 0.502263 -0.012025
C59   C     C_R   0.861465 0.309965 0.499960 -0.024126
C60   C     C_R   0.816475 0.615257 0.497721 -0.013552
C61   C     C_R   0.138552 0.309963 0.499963 -0.020654
C62   C     C_R   0.191075 0.149834 0.595471 -0.201731
C63   C     C_R   0.732419 0.710358 0.394806 -0.215344
C64   C     C_R   0.808941 0.149829 0.404420 -0.202060
C65   C     C_R   0.267647 0.710325 0.605120 -0.212579
C66   C     C_R   0.691078 0.649836 0.595456 -0.200282
C67   C     C_R   0.151609 0.640854 0.239073 0.038334
C68   C     C_R   0.232417 0.210350 0.394819 -0.212716
C69   C     C_R   0.308934 0.649826 0.404469 -0.195122
C70   C     C_R   0.767687 0.210269 0.605074 -0.213007
C71   C     C_R   0.645366 0.698036 0.596083 -0.102309
C72   C     C_R   0.278037 0.163204 0.393994 -0.116438
C73   C     C_R   0.354647 0.698037 0.403826 -0.093981
C74   C     C_R   0.722063 0.163103 0.605927 -0.118433
C75   C     C_R   0.145374 0.198054 0.596099 -0.103335
C76   C     C_R   0.778052 0.663240 0.393983 -0.121869
C77   C     C_R   0.854643 0.198067 0.403766 -0.103607
C78   C     C_R   0.832422 0.389933 0.800741 -0.143096
C79   C     C_R   0.222012 0.663193 0.605961 -0.118934
C80   C     C_R   0.669811 0.735993 0.496957 0.160111
C81   C     C_R   0.260366 0.138752 0.495323 0.163758
C82   C     C_R   0.330220 0.735988 0.502964 0.155354
C83   C     C_R   0.739677 0.138707 0.504608 0.164428
C84   C     C_R   0.169823 0.236008 0.496969 0.157858
C85   C     C_R   0.760377 0.638780 0.495312 0.166178
C86   C     C_R   0.830224 0.235993 0.502914 0.158322
C87   C     C_R   0.239653 0.638754 0.504638 0.162708
C88   C     C_2   0.205130 0.938383 0.050324 0.523252
C89   C     C_2   0.648888 0.256853 0.140464 -0.167354
C90   C     C_2   0.678504 0.319392 0.252227 0.533977
C91   C     C_2   0.794837 0.938463 0.949691 0.525844
C92   C     C_2   0.322474 0.319486 0.747082 0.546693
C93   C     C_2   0.707124 0.438214 0.046234 0.555518
C94   C     C_2   0.177605 0.819443 0.252823 0.540467
C95   C     C_2   0.294798 0.438473 0.949687 0.525837
C96   C     C_2   0.822399 0.819476 0.747105 0.549318
H1    H     H_    0.300093 0.154480 0.775903 0.078313
H2    H     H_    0.299515 0.838601 0.679491 0.122671
H3    H     H_    0.262504 0.099285 0.677390 0.114211
H4    H     H_    0.700489 0.838582 0.320469 0.122093
H5    H     H_    0.237486 0.599277 0.322600 0.115543
H6    H     H_    0.799463 0.338606 0.679452 0.129565
H7    H     H_    0.762506 0.599299 0.677385 0.112239
H8    H     H_    0.200503 0.338588 0.320472 0.122969
H9    H     H_    0.524724 0.159165 0.225092 0.132735
H10   H     H_    0.446451 0.895712 0.839890 0.132125
H11   H     H_    0.475004 0.158941 0.775561 0.131955
H12   H     H_    0.720701 0.891707 0.170958 0.091965
H13   H     H_    0.553557 0.895725 0.160090 0.131909
H14   H     H_    0.025001 0.658915 0.224429 0.130774
H15   H     H_    0.946451 0.395373 0.839837 0.129282
H16   H     H_    0.975041 0.658977 0.775473 0.133817
H17   H     H_    0.053556 0.395702 0.160095 0.131632
H18   H     H_    0.174002 0.127523 0.674439 0.121090
H19   H     H_    0.751012 0.733395 0.315398 0.120546
H20   H     H_    0.825987 0.127547 0.325446 0.120918
H21   H     H_    0.249079 0.733345 0.684533 0.122441
H22   H     H_    0.674004 0.627520 0.674423 0.122544
H23   H     H_    0.699712 0.154663 0.224556 0.075259
H24   H     H_    0.251009 0.233385 0.315411 0.123294
H25   H     H_    0.325991 0.627518 0.325499 0.123563
H26   H     H_    0.749139 0.233253 0.684493 0.125270
H27   H     H_    0.593831 0.710260 0.675268 0.175310
H28   H     H_    0.329513 0.154833 0.313787 0.191052
H29   H     H_    0.406162 0.710272 0.324627 0.177302
H30   H     H_    0.670626 0.154666 0.686165 0.191142
H31   H     H_    0.093846 0.210295 0.675285 0.175150
H32   H     H_    0.829538 0.654899 0.313779 0.189059
H33   H     H_    0.906141 0.210336 0.324556 0.174748
H34   H     H_    0.279307 0.891701 0.829015 0.092116
H35   H     H_    0.170549 0.654819 0.686182 0.189771
H36   H     H_    0.319860 0.789694 0.998513 0.133112
H37   H     H_    0.649982 0.260578 0.069635 0.138185
H38   H     H_    0.680192 0.789726 0.001367 0.131794
H39   H     H_    0.348993 0.260141 0.931886 0.128329
H40   H     H_    0.819819 0.289081 0.998232 0.163239
H41   H     H_    0.150983 0.760082 0.068128 0.127244
H42   H     H_    0.180199 0.289655 0.001422 0.132509
H43   H     H_    0.849103 0.760230 0.931717 0.122446
H44   H     H_    0.545196 0.050012 0.737671 0.303895
H45   H     H_    0.800116 0.654507 0.775849 0.089403
H46   H     H_    0.438181 0.901921 0.271771 0.316670
H47   H     H_    0.454844 0.050012 0.262288 0.303241
H48   H     H_    0.561826 0.901938 0.728215 0.316828
H49   H     H_    0.045198 0.550018 0.737671 0.301850
H50   H     H_    0.938184 0.401966 0.271762 0.316256
H51   H     H_    0.954819 0.549972 0.262317 0.303461
H52   H     H_    0.061821 0.401982 0.728220 0.315975
H53   H     H_    0.148412 0.945196 0.099850 0.011905
H54   H     H_    0.718986 0.351640 0.245818 0.007707
H55   H     H_    0.851550 0.945301 0.900157 0.011729
H56   H     H_    0.220698 0.391692 0.170966 0.093316
H57   H     H_    0.282468 0.352058 0.752555 0.017800
H58   H     H_    0.743542 0.481790 0.984116 -0.002193
H59   H     H_    0.217635 0.851995 0.247307 0.017727
H60   H     H_    0.351510 0.445344 0.900129 0.014635
H61   H     H_    0.782351 0.852010 0.752649 0.014101
H62   H     H_    0.199917 0.654445 0.224078 0.078661
H63   H     H_    0.779386 0.391506 0.828658 0.091959
H64   H     H_    0.737490 0.099234 0.322601 0.114214
N1    N     N_R   0.388930 0.078160 0.705470 -0.045987
N2    N     N_R   0.419500 0.922160 0.443350 -0.106042
N3    N     N_R   0.419500 0.077840 0.443350 -0.091995
N4    N     N_R   0.580500 0.922160 0.556650 -0.105762
N5    N     N_R   0.080500 0.577840 0.556650 -0.088770
N6    N     N_R   0.919500 0.422160 0.443350 -0.105228
N7    N     N_R   0.919500 0.577840 0.443350 -0.089722
N8    N     N_R   0.080500 0.422160 0.556650 -0.105406
N9    N     N_R   0.626210 0.077590 0.443410 -0.051448
N10   N     N_R   0.373790 0.922410 0.556590 -0.062246
N11   N     N_R   0.373790 0.077590 0.556590 -0.051670
N12   N     N_R   0.611070 0.921840 0.294530 -0.050715
N13   N     N_R   0.626210 0.922410 0.443410 -0.062084
N14   N     N_R   0.126210 0.577590 0.443410 -0.050874
N15   N     N_R   0.873790 0.422410 0.556590 -0.060841
N16   N     N_R   0.873790 0.577590 0.556590 -0.046939
N17   N     N_R   0.126210 0.422410 0.443410 -0.061721
N18   N     N_R   0.554800 0.077270 0.294580 -0.058352
N19   N     N_R   0.445200 0.922730 0.705420 -0.064037
N20   N     N_R   0.445200 0.077270 0.705420 -0.057249
N21   N     N_R   0.554800 0.922730 0.294580 -0.064575
N22   N     N_R   0.054800 0.577270 0.294580 -0.056521
N23   N     N_R   0.611070 0.078160 0.294530 -0.043275
N24   N     N_R   0.945200 0.422730 0.705420 -0.060516
N25   N     N_R   0.945200 0.577270 0.705420 -0.057650
N26   N     N_R   0.054800 0.422730 0.294580 -0.063554
N27   N     N_R   0.388930 0.921840 0.705470 -0.050880
N28   N     N_R   0.888930 0.578160 0.705470 -0.049495
N29   N     N_R   0.111070 0.421840 0.294530 -0.050712
N30   N     N_R   0.111070 0.578160 0.294530 -0.045743
N31   N     N_R   0.888930 0.421840 0.705470 -0.043714
N32   N     N_R   0.580500 0.077840 0.556650 -0.091424
Ni1   Ni    Ni4+2 0.382710 0.000000 0.629850 0.228849
Ni2   Ni    Ni4+2 0.617290 0.000000 0.370150 0.229419
Ni3   Ni    Ni4+2 0.882710 0.500000 0.629850 0.209646
Ni4   Ni    Ni4+2 0.117290 0.500000 0.370150 0.232672
Ni5   Ni    Ni4+2 0.513020 0.000000 0.629850 0.216845
Ni6   Ni    Ni4+2 0.486980 0.000000 0.370150 0.216833
Ni7   Ni    Ni4+2 0.013020 0.500000 0.629850 0.209164
Ni8   Ni    Ni4+2 0.986980 0.500000 0.370150 0.219312
O1    O     O_3   0.591982 0.075591 0.696693 -0.802607
O2    O     O_2   0.627656 0.293859 0.343386 -0.556526
O3    O     O_2   0.756142 0.993966 0.005311 -0.594584
O4    O     O_2   0.373527 0.293669 0.656304 -0.557763
O5    O     O_2   0.643827 0.452617 0.109540 -0.572370
O6    O     O_2   0.126562 0.793667 0.343618 -0.562133
O7    O     O_2   0.256083 0.493962 0.005314 -0.595205
O8    O     O_2   0.873436 0.793676 0.656300 -0.557654
O9    O     O_3   0.428216 0.848417 0.303832 -0.790733
O10   O     O_3   0.408032 0.075546 0.303297 -0.802561
O11   O     O_3   0.571803 0.848431 0.696129 -0.790884
O12   O     O_3   0.091986 0.575593 0.696687 -0.803935
O13   O     O_3   0.928209 0.348457 0.303813 -0.791562
O14   O     O_3   0.908030 0.575556 0.303300 -0.804523
O15   O     O_3   0.071850 0.348475 0.696114 -0.790385
O16   O     O_2   0.243794 0.993906 0.994782 -0.595314

loop_
_geom_bond_atom_site_label_1
_geom_bond_atom_site_label_2
_ccdc_geom_bond_type
C35   N17   A    
C91   H55   S    
N14   Ni4   S    
C64   H20   S    
N8    Ni7   S    
C64   C77   A    
N12   Ni2   S    
C94   O6    D    
C74   C83   A    
N11   Ni1   S    
H51   O14   S    
C93   O5    D    
C58   C87   S    
C66   C85   A    
C79   C87   A    
C69   C87   A    
C67   N30   A    
C12   N12   A    
C4    C46   S    
C25   N7    A    
C23   N23   A    
C10   C88   S    
N6    N15   A    
C65   C79   A    
C31   H5    S    
C31   C58   A    
C71   H27   S    
C25   O14   S    
N17   Ni4   S    
C26   C61   A    
C62   H18   S    
C79   H35   S    
N5    Ni7   S    
C23   H23   S    
C75   C84   A    
C96   O8    D    
N19   N27   A    
C63   C76   A    
C88   O16   D    
N8    N17   A    
C30   C57   A    
C30   H4    S    
C38   H11   S    
N23   Ni2   S    
C36   C47   A    
C8    H42   S    
C95   H60   S    
C88   H53   S    
C4    C13   D    
C33   N16   A    
C42   H16   S    
C6    H40   S    
N20   Ni5   S    
C18   C53   A    
C6    C15   D    
C22   N5    A    
N12   N21   A    
N28   Ni3   S    
C94   H59   S    
C22   O12   S    
C70   C74   A    
C2    H36   S    
N7    Ni8   S    
C41   N24   A    
C69   C73   A    
C92   H57   S    
C17   C95   S    
C25   C60   A    
C69   H25   S    
C55   C81   S    
N3    N11   A    
C36   N18   A    
C27   N9    A    
C41   C52   A    
C75   H31   S    
N18   N23   A    
C92   O4    D    
N30   Ni4   S    
H49   O12   S    
C63   H19   S    
C96   H61   S    
N18   Ni6   S    
C1    N1    A    
C21   N4    A    
C33   H7    S    
C72   H28   S    
C45   H45   S    
C47   C89   S    
C57   C80   S    
N26   Ni8   S    
C20   C55   A    
C52   C78   A    
N21   Ni6   S    
C11   C92   S    
N15   Ni3   S    
C71   C80   A    
H47   O10   S    
C40   N22   A    
C63   C80   A    
C95   O7    D    
C37   N19   A    
C32   N15   A    
C3    C44   S    
C16   C96   S    
C89   H37   S    
C29   H3    S    
C68   C84   A    
N22   Ni8   S    
C38   N20   A    
N3    Ni6   S    
C12   C46   A    
C35   H8    S    
C10   C14   S    
C1    H1    S    
C12   H12   S    
C28   C54   A    
N25   N28   A    
C40   H14   S    
C29   C55   A    
C43   N26   A    
C2    C48   S    
N5    N14   A    
C68   H24   S    
C20   N3    A    
C45   N28   A    
C50   C56   A    
C21   O11   S    
C26   O15   S    
C37   C48   A    
C19   N2    A    
C67   H62   S    
C24   N6    A    
C64   C83   A    
C38   C44   A    
C24   O13   S    
C70   H26   S    
C1    C44   A    
C66   C71   A    
N2    N10   A    
C45   C49   A    
C68   C72   A    
N24   Ni7   S    
C18   N32   A    
N24   N31   A    
N1    Ni1   S    
N4    N13   A    
C35   C61   A    
C77   H33   S    
N32   Ni5   S    
C29   N11   A    
N1    N20   A    
N25   Ni7   S    
C7    C49   S    
C5    C14   D    
C39   N21   A    
C39   C46   A    
C13   C91   S    
C19   C54   A    
C28   N10   A    
C7    C16   D    
C62   C81   A    
C77   C86   A    
C74   H30   S    
C33   C60   A    
C20   O10   S    
C41   H15   S    
C76   H32   S    
C32   H6    S    
C62   C75   A    
C56   H56   S    
C15   C93   S    
C9    C89   D    
C70   C86   A    
H52   O15   S    
C8    C50   S    
C73   C82   A    
C54   C82   S    
N4    Ni5   S    
C42   N25   A    
C4    H38   S    
C28   H2    S    
C56   N29   A    
C11   C17   S    
C30   N13   A    
N31   Ni3   S    
C36   H9    S    
C19   O9    S    
C78   N31   A    
C72   C81   A    
C61   C84   S    
C93   H58   S    
C9    C90   S    
C22   C58   A    
N10   Ni1   S    
C90   H54   S    
C27   C53   A    
C43   C50   A    
C5    H41   S    
N9    Ni2   S    
H46   O9    S    
C40   C51   A    
N19   Ni5   S    
C21   C57   A    
N2    Ni6   S    
C8    C17   D    
C32   C59   A    
C53   C83   S    
N27   Ni1   S    
C23   C47   A    
C27   H64   S    
C59   C86   S    
C37   H10   S    
H44   O1    S    
C43   H17   S    
C7    H43   S    
N29   Ni4   S    
C65   C82   A    
C51   C67   A    
N26   N29   A    
C24   C59   A    
C73   H29   S    
C18   O1    S    
C3    H39   S    
N16   Ni3   S    
C9    C15   S    
C34   N27   A    
N6    Ni8   S    
H50   O13   S    
C3    C11   D    
C42   C49   A    
C78   H63   S    
C39   H13   S    
C34   C48   A    
C34   H34   S    
C66   H22   S    
C13   C16   S    
N13   Ni2   S    
C65   H21   S    
C5    C51   S    
C60   C85   S    
N22   N30   A    
N9    N32   A    
C6    C52   S    
C76   C85   A    
C14   C94   S    
H48   O11   S    
C91   O3    D    
C26   N8    A    
N7    N16   A    
C90   O2    D    
C31   N14   A    
C2    C10   D    
