data_mof_unit_37146.cif
_audit_creation_date              2013-03-05T15:47:39-0500
_audit_creation_method            fapswitch 2.2
_symmetry_space_group_name_H-M    P1
_symmetry_Int_Tables_number       1
_space_group_crystal_system       triclinic
_cell_length_a                    10.182098
_cell_length_b                    10.63418
_cell_length_c                    10.670719
_cell_angle_alpha                 90.877706
_cell_angle_beta                  96.074228
_cell_angle_gamma                 81.037812
_cell_volume                      1134.89250189

loop_
_atom_site_label
_atom_site_type_symbol
_atom_site_description
_atom_site_fract_x
_atom_site_fract_y
_atom_site_fract_z
_atom_type_partial_charge
O1    O     O_R   0.568940 0.489540 0.307530 -0.635479
O2    O     O_R   0.348880 0.522880 0.340350 -0.604348
C1    C     C_R   0.443294 0.513063 0.266238 0.880043
O3    O     O_R   0.610030 0.298130 0.483570 -0.622341
O4    O     O_R   0.389960 0.331470 0.516390 -0.632375
C2    C     C_R   0.499308 0.258036 0.496603 0.870553
Zn1   Zn    Zn3+2 0.646940 0.477740 0.478080 0.957824
Zn2   Zn    Zn3+2 0.353060 0.522260 0.521920 0.922849
O5    O     O_R   0.651120 0.477120 0.659650 -0.589477
O6    O     O_R   0.431060 0.510460 0.692470 -0.627269
O7    O     O_R   0.610040 0.668530 0.483610 -0.561840
O8    O     O_R   0.389970 0.701870 0.516430 -0.650025
C3    C     C_R   0.556536 0.497676 0.733325 0.946452
C4    C     C_R   0.498177 0.741712 0.492275 0.863117
C5    C     C_3   0.629985 0.052734 0.442759 -0.394566
H1    H     H_    0.719960 0.068825 0.505907 0.180162
H2    H     H_    0.640866 0.094818 0.350131 0.180287
C6    C     C_3   0.627018 0.909458 0.431761 0.047517
H3    H     H_    0.715795 0.861668 0.492987 0.226396
H4    H     H_    0.597162 0.880269 0.679146 0.221117
C7    C     C_3   0.488560 0.071723 0.629259 0.008365
C8    C     C_3   0.378799 0.091291 0.403084 -0.478654
C9    C     C_3   0.499968 0.121259 0.494255 0.091477
H5    H     H_    0.283622 0.149114 0.426428 0.165100
H6    H     H_    0.392677 0.116876 0.305015 0.188342
C10   C     C_3   0.497844 0.878062 0.486352 0.094116
C11   C     C_3   0.502110 0.925403 0.625308 -0.520606
C12   C     C_3   0.366141 0.949414 0.413044 0.041135
H7    H     H_    0.283179 0.943408 0.472050 0.174377
H8    H     H_    0.386749 0.110072 0.655196 0.168054
H9    H     H_    0.419511 0.895789 0.672910 0.162227
H10   H     H_    0.397129 0.617136 0.885964 0.187340
H11   H     H_    0.609264 0.568043 0.113742 0.165410
C13   C     C_2   0.410071 0.538940 0.132074 0.027215
C14   C     C_2   0.509140 0.565630 0.067672 -0.175731
H12   H     H_    0.686320 0.471817 0.912685 0.148537
C15   C     C_2   0.589083 0.513656 0.867133 -0.362567
C16   C     C_2   0.493627 0.574362 0.932373 -0.149031
H13   H     H_    0.115438 0.394544 0.449954 0.147120
N1    N     N_2   0.157300 0.551950 0.551120 -0.166512
C17   C     C_2   0.075389 0.477283 0.502585 -0.193561
H14   H     H_    0.874635 0.410050 0.365902 0.148628
N2    N     N_2   0.842730 0.448000 0.448950 -0.223126
C18   C     C_2   0.931908 0.490799 0.527605 0.045131
C19   C     C_3   0.270379 0.533402 0.070134 -0.921036
H15   H     H_    0.204666 0.505580 0.138085 0.253163
H16   H     H_    0.224986 0.628309 0.031043 0.243802
H17   H     H_    0.274012 0.461953 0.993060 0.247213
C20   C     C_2   0.897987 0.543808 0.650855 0.558688
H18   H     H_    0.950586 0.499532 0.736629 -0.034503
O9    O     O_2   0.819983 0.642462 0.657771 -0.554605
C21   C     C_2   0.109890 0.680493 0.583586 0.577430
H19   H     H_    0.167328 0.727302 0.656392 0.014651
O10   O     O_2   0.012300 0.742124 0.524214 -0.597877
C22   C     C_3   0.647111 0.861968 0.296245 -0.862785
H20   H     H_    0.755118 0.850492 0.283104 0.253269
H21   H     H_    0.613306 0.768826 0.276671 0.249675
H22   H     H_    0.594325 0.931039 0.224075 0.230511
C23   C     C_3   0.588671 0.114782 0.733745 -0.907285
H23   H     H_    0.693577 0.080855 0.715578 0.252534
H24   H     H_    0.573346 0.220000 0.742245 0.234120
H25   H     H_    0.572671 0.075682 0.825925 0.245477
C24   C     C_3   0.320373 0.893987 0.284110 -0.901105
H26   H     H_    0.384040 0.909969 0.210215 0.247664
H27   H     H_    0.317013 0.790671 0.290507 0.256425
H28   H     H_    0.217470 0.941430 0.252015 0.243186

loop_
_geom_bond_atom_site_label_1
_geom_bond_atom_site_label_2
_geom_bond_distance
_ccdc_geom_bond_type
C18   C20   1.476312 S    
C5    C6    1.531087 S    
C22   H20   1.110981 S    
C24   H27   1.107896 S    
C22   H21   1.108080 S    
C15   C16   1.334171 D    
H4    C11   1.114968 S    
Zn1   N2    2.025485 S    
O4    Zn2   2.006136 S    
Zn2   N1    2.025378 S    
C7    H8    1.114935 S    
C3    C15   1.444773 S    
C6    C10   1.576594 S    
Zn2   O8    2.006124 S    
C20   O9    1.219550 D    
C5    C9    1.557767 S    
O2    C1    1.299064 A    
C7    C11   1.540869 S    
C24   H28   1.110997 S    
C23   H23   1.109205 S    
H13   C17   1.085070 S    
C13   C19   1.513073 S    
C8    C12   1.540337 S    
C19   H15   1.109907 S    
C4    C10   1.451766 S    
Zn1   O7    2.006136 S    
C10   C11   1.556992 S    
C6    C22   1.547908 S    
O3    Zn1   2.006123 S    
C2    C9    1.453322 S    
Zn2   O6    1.904881 S    
H12   C15   1.087202 S    
H11   C14   1.087815 S    
O8    C4    1.291800 A    
C7    C23   1.543074 S    
H10   C16   1.087303 S    
C7    C9    1.563336 S    
N2    C18   1.300713 D    
O4    C2    1.291451 A    
C13   C14   1.346196 D    
C17   C18   1.497400 S    
C8    H5    1.113567 S    
C23   H24   1.109066 S    
H14   N2    1.030936 S    
C5    H2    1.114317 S    
C11   H9    1.114610 S    
C24   H26   1.103399 S    
C12   C24   1.543529 S    
C14   C16   1.438471 S    
C6    H3    1.115459 S    
C21   H19   1.084463 S    
O3    C2    1.287196 A    
C20   H18   1.084958 S    
C19   H16   1.110397 S    
C22   H22   1.108232 S    
O7    C4    1.286635 A    
Zn1   O5    1.933533 S    
O5    C3    1.297192 A    
C8    C9    1.558582 S    
C12   H7    1.115664 S    
C23   H25   1.111074 S    
N1    C17   1.302545 D    
C19   H17   1.110677 S    
C1    C13   1.456126 S    
O1    Zn1   1.904879 S    
N1    C21   1.427200 S    
C10   C12   1.570067 S    
O6    C3    1.292532 A    
O2    Zn2   1.933531 S    
C5    H1    1.112340 S    
C21   O10   1.222660 D    
O1    C1    1.295293 A    
C8    H6    1.114040 S    
