data_mof_unit_44374.cif
_audit_creation_date              2013-03-05T16:49:58-0500
_audit_creation_method            fapswitch 2.2
_symmetry_space_group_name_H-M    P1
_symmetry_Int_Tables_number       1
_space_group_crystal_system       triclinic
_cell_length_a                    27.732805
_cell_length_b                    10.858211
_cell_length_c                    26.465365
_cell_angle_alpha                 90.711055
_cell_angle_beta                  89.909789
_cell_angle_gamma                 90.599113
_cell_volume                      7968.42192526

loop_
_atom_site_label
_atom_site_type_symbol
_atom_site_description
_atom_site_fract_x
_atom_site_fract_y
_atom_site_fract_z
_atom_type_partial_charge
O1    O     O_R   0.500000 0.319660 0.542350 -0.595148
O2    O     O_R   0.500000 0.680340 0.457650 -0.595067
O3    O     O_R   0.500000 0.319630 0.457650 -0.578278
O4    O     O_R   0.500000 0.680370 0.542350 -0.579053
C1    C     C_R   0.498631 0.261946 0.499599 0.800467
C2    C     C_R   0.501259 0.738081 0.500442 0.800241
O5    O     O_R   0.430260 0.500030 0.542340 -0.588250
O6    O     O_R   0.569740 0.499970 0.457660 -0.591369
O7    O     O_R   0.430270 0.500010 0.457650 -0.564197
O8    O     O_R   0.569730 0.499990 0.542350 -0.574310
C3    C     C_R   0.407361 0.500472 0.500036 0.806708
C4    C     C_R   0.592731 0.499136 0.499954 0.815952
Cu1   Cu    Cu3+1 0.500000 0.500020 0.550150 0.961448
Cu2   Cu    Cu3+1 0.500000 0.499980 0.449850 0.961661
O9    O     O_2   0.419919 0.440016 0.786195 -0.538320
O10   O     O_2   0.576942 0.584601 0.214426 -0.544176
C5    C     C_R   0.419876 0.403848 0.053276 -0.186805
C6    C     C_R   0.586419 0.552754 0.946666 -0.184634
H1    H     H_    0.445580 0.635003 0.631267 0.141157
H2    H     H_    0.554642 0.365511 0.368807 0.134378
C7    C     C_R   0.177206 0.402056 0.483154 0.552061
C8    C     C_R   0.823402 0.598247 0.509019 0.553093
O11   O     O_2   0.201514 0.309109 0.460768 -0.478467
O12   O     O_2   0.799230 0.705056 0.513683 -0.506285
N1    N     N_R   0.201832 0.500667 0.502931 -0.489080
N2    N     N_R   0.798633 0.490362 0.501867 -0.483835
C9    C     C_R   0.178632 0.596662 0.525953 0.601328
C10   C     C_R   0.821608 0.379860 0.497819 0.605708
C11   C     C_R   0.278434 0.561685 0.461526 0.199207
C12   C     C_R   0.722275 0.518426 0.454939 0.195132
C13   C     C_R   0.329253 0.559604 0.461451 -0.087055
C14   C     C_R   0.671684 0.519985 0.455292 -0.219256
C15   C     C_R   0.329078 0.445039 0.539553 -0.205346
C16   C     C_R   0.670830 0.468884 0.544147 -0.135721
C17   C     C_R   0.278965 0.444373 0.539672 -0.084232
C18   C     C_R   0.720984 0.467415 0.544321 -0.120792
C19   C     C_R   0.253546 0.501759 0.501051 0.283714
C20   C     C_R   0.746945 0.492450 0.500182 0.306591
C21   C     C_R   0.101864 0.496168 0.508739 -0.099441
C22   C     C_R   0.898558 0.485708 0.507347 -0.101284
C23   C     C_R   0.126887 0.396529 0.486588 0.008380
C24   C     C_R   0.873694 0.598109 0.512384 -0.007791
C25   C     C_R   0.101145 0.294931 0.467237 -0.148933
C26   C     C_R   0.899534 0.708345 0.519720 -0.112732
C27   C     C_R   0.127593 0.601538 0.526257 -0.197246
C28   C     C_R   0.872715 0.374771 0.497394 -0.198095
C29   C     C_R   0.354485 0.501515 0.500265 -0.080149
C30   C     C_R   0.645767 0.496434 0.499828 -0.080281
H3    H     H_    0.348014 0.399860 0.569797 0.168012
H4    H     H_    0.651649 0.447814 0.578657 0.199450
H5    H     H_    0.259631 0.399510 0.570020 0.160533
H6    H     H_    0.739883 0.446720 0.578919 0.165751
H7    H     H_    0.119404 0.219606 0.448326 0.205278
H8    H     H_    0.881401 0.796197 0.521531 0.233217
C31   C     C_R   0.974857 0.375313 0.503141 -0.115658
C32   C     C_R   0.025480 0.593544 0.530835 -0.127471
C33   C     C_R   0.974831 0.596081 0.523448 0.107331
C34   C     C_R   0.025604 0.382987 0.496489 0.131364
C35   C     C_R   0.949444 0.485590 0.511135 0.040615
C36   C     C_R   0.050949 0.491168 0.511932 0.040168
C37   C     C_R   0.948653 0.262427 0.500913 0.227290
C38   C     C_R   0.051607 0.690732 0.554910 0.282945
C39   C     C_R   0.898824 0.263435 0.490239 0.345430
C40   C     C_R   0.101456 0.703914 0.545626 0.370333
H9    H     H_    0.390856 0.361588 0.032645 0.158526
H10   H     H_    0.619340 0.566023 0.967098 0.157563
H11   H     H_    0.445410 0.638283 0.724749 0.157134
H12   H     H_    0.555144 0.362945 0.275243 0.146940
O13   O     O_2   0.794646 0.276033 0.496550 -0.437960
O14   O     O_2   0.205225 0.683286 0.550258 -0.441745
C41   C     C_R   0.051278 0.289138 0.471567 -0.117266
C42   C     C_R   0.949336 0.707344 0.524560 -0.088144
H13   H     H_    0.652599 0.539616 0.420660 0.164097
H14   H     H_    0.349700 0.603911 0.431866 0.168886
H15   H     H_    0.032833 0.212851 0.453353 0.198286
H16   H     H_    0.967860 0.794968 0.527407 0.231475
H17   H     H_    0.416867 0.238774 0.282142 0.198490
H18   H     H_    0.572025 0.768936 0.723715 0.205354
C43   C     C_R   0.404748 0.221044 0.362313 0.439459
C44   C     C_R   0.589417 0.785740 0.644502 0.484708
C45   C     C_R   0.423027 0.175407 0.407689 -0.173760
C46   C     C_R   0.573724 0.828440 0.597532 -0.184533
H19   H     H_    0.402991 0.187191 0.442547 0.153201
H20   H     H_    0.596283 0.817766 0.564362 0.172313
C47   C     C_R   0.467174 0.113174 0.408098 0.061032
C48   C     C_R   0.529057 0.887348 0.593512 0.055732
C49   C     C_R   0.492745 0.096623 0.362734 -0.162662
C50   C     C_R   0.500352 0.903232 0.636809 -0.158162
H21   H     H_    0.526656 0.048028 0.362377 0.149020
H22   H     H_    0.466063 0.949643 0.634417 0.153636
C51   C     C_R   0.474588 0.142479 0.317609 -0.211210
C52   C     C_R   0.515907 0.860139 0.683447 -0.238939
H23   H     H_    0.494483 0.129816 0.282746 0.162754
H24   H     H_    0.493597 0.872465 0.716680 0.167017
C53   C     C_R   0.430730 0.204421 0.317374 -0.186855
C54   C     C_R   0.560257 0.801408 0.687307 -0.163090
C55   C     C_R   0.488122 0.931319 0.456968 -0.227982
C56   C     C_R   0.511498 0.068787 0.543211 -0.221743
H25   H     H_    0.477833 0.878234 0.423621 0.160444
H26   H     H_    0.521575 0.121879 0.576630 0.163204
C57   C     C_R   0.501875 0.871879 0.501213 -0.086291
C58   C     C_R   0.497787 0.128155 0.498976 -0.088526
C59   C     C_R   0.513721 0.941482 0.545080 0.031781
C60   C     C_R   0.485291 0.058600 0.455348 0.029824
H27   H     H_    0.384048 0.425260 0.871119 0.192420
H28   H     H_    0.609691 0.625431 0.129522 0.188830
H29   H     H_    0.381777 0.424732 0.960310 0.143203
H30   H     H_    0.611701 0.628617 0.040337 0.141297
C61   C     C_R   0.458916 0.455917 0.188895 0.524012
C62   C     C_R   0.543205 0.530853 0.811193 0.519677
O15   O     O_2   0.420687 0.419134 0.216434 -0.603370
O16   O     O_2   0.581906 0.564454 0.783647 -0.549912
N3    N     N_R   0.498888 0.498899 0.214221 -0.442365
N4    N     N_R   0.501446 0.500915 0.785934 -0.445505
C63   C     C_R   0.538337 0.541144 0.188536 0.542733
C64   C     C_R   0.460376 0.471125 0.811834 0.543875
C65   C     C_R   0.530909 0.423559 0.295509 -0.236163
C66   C     C_R   0.469406 0.576955 0.704531 -0.228601
C67   C     C_R   0.530580 0.424937 0.348476 0.061251
C68   C     C_R   0.469567 0.575316 0.651564 0.062158
C69   C     C_R   0.469182 0.574981 0.349623 0.078004
C70   C     C_R   0.530712 0.424675 0.650312 0.084224
C71   C     C_R   0.468288 0.576202 0.296698 -0.244039
C72   C     C_R   0.531626 0.423281 0.703218 -0.185133
C73   C     C_R   0.499406 0.499720 0.269028 0.363892
C74   C     C_R   0.500803 0.500407 0.731042 0.340367
C75   C     C_R   0.498660 0.495628 0.108033 -0.063946
C76   C     C_R   0.502483 0.499401 0.892178 -0.060547
C77   C     C_R   0.457771 0.450452 0.134777 -0.079841
C78   C     C_R   0.545438 0.528645 0.865292 -0.083931
C79   C     C_R   0.418081 0.400335 0.106499 0.140504
C80   C     C_R   0.588618 0.552853 0.893411 0.132771
C81   C     C_R   0.538872 0.541092 0.135411 -0.016675
C82   C     C_R   0.459956 0.471229 0.864947 -0.017029
N5    N     N_R   0.500000 0.499970 0.374520 -0.174696
N6    N     N_R   0.500000 0.500030 0.625480 -0.182312
H31   H     H_    0.445100 0.633925 0.370851 0.135129
H32   H     H_    0.554623 0.365379 0.629040 0.131770
H33   H     H_    0.443622 0.636187 0.277387 0.154360
H34   H     H_    0.556072 0.362472 0.722400 0.159889
C83   C     C_R   0.458726 0.463939 0.972403 0.058399
C84   C     C_R   0.541619 0.537525 0.027863 0.059200
C85   C     C_R   0.543478 0.530544 0.973828 -0.009408
C86   C     C_R   0.458964 0.455119 0.026325 -0.010017
C87   C     C_R   0.501625 0.498000 0.946249 0.075777
C88   C     C_R   0.499699 0.495994 0.053961 0.075531
C89   C     C_R   0.416625 0.441413 0.943546 -0.208697
C90   C     C_R   0.580204 0.586467 0.056918 -0.209306
C91   C     C_R   0.417421 0.444103 0.891137 -0.138163
C92   C     C_R   0.578898 0.587294 0.109360 -0.142608
S1    S     S_3+6 0.972371 0.130509 0.531592 0.082064
O17   O     O_2   0.992852 0.040536 0.493930 -0.219989
O18   O     O_2   0.011493 0.169027 0.567932 -0.242007
O19   O     O_3   0.928402 0.058851 0.564128 -0.440200
H35   H     H_    0.917485 0.120466 0.589458 0.357234
S2    S     S_3+6 0.027904 0.760288 0.611050 0.082227
O20   O     O_2   0.009172 0.886819 0.600862 -0.170260
O21   O     O_2   0.987671 0.682033 0.631889 -0.268104
O22   O     O_3   0.071806 0.771585 0.654665 -0.465941
H36   H     H_    0.056729 0.813667 0.684015 0.387513
S3    S     S_3+6 0.349434 0.298720 0.361095 0.018580
O23   O     O_2   0.317907 0.244202 0.320252 -0.265910
O24   O     O_2   0.323917 0.288391 0.411025 -0.243908
O25   O     O_3   0.360032 0.447920 0.348721 -0.561412
H37   H     H_    0.370150 0.449403 0.312829 0.365554
S4    S     S_3+6 0.645964 0.715848 0.650580 0.008191
O26   O     O_2   0.672746 0.775907 0.693803 -0.260595
O27   O     O_2   0.638535 0.581635 0.661684 -0.299729
O28   O     O_3   0.678165 0.731279 0.597085 -0.533571
H38   H     H_    0.710848 0.702095 0.605594 0.393698
C93   C     C_3   0.374298 0.341836 0.132734 -0.311446
C94   C     C_3   0.335326 0.282729 0.099098 -0.870822
H39   H     H_    0.318475 0.352839 0.074738 0.256518
H40   H     H_    0.350656 0.207056 0.075670 0.256200
H41   H     H_    0.306581 0.242631 0.123308 0.267698
H42   H     H_    0.387221 0.267762 0.157798 0.239168
H43   H     H_    0.356091 0.413838 0.155803 0.250840
C95   C     C_3   0.636969 0.577100 0.866953 -0.301206
C96   C     C_3   0.681755 0.592886 0.900314 -0.860972
H44   H     H_    0.678293 0.674902 0.925520 0.253250
H45   H     H_    0.687795 0.508815 0.922852 0.256755
H46   H     H_    0.713902 0.607413 0.875938 0.272296
H47   H     H_    0.644477 0.498336 0.841002 0.248550
H48   H     H_    0.634047 0.662947 0.844801 0.253066
C97   C     C_3   0.748740 0.541752 0.405903 -0.413123
C98   C     C_3   0.745089 0.676340 0.390484 -0.739559
H49   H     H_    0.706903 0.701581 0.384068 0.246319
H50   H     H_    0.760670 0.737615 0.420261 0.294946
H51   H     H_    0.765466 0.690784 0.354863 0.245403
H52   H     H_    0.787462 0.517958 0.408656 0.217828
H53   H     H_    0.733077 0.481850 0.375639 0.213388
C99   C     C_3   0.249490 0.625501 0.420829 -0.371358
C100  C     C_3   0.278814 0.697581 0.381917 -0.768335
H54   H     H_    0.301454 0.769298 0.400900 0.248515
H55   H     H_    0.301758 0.634709 0.359225 0.287986
H56   H     H_    0.253853 0.744102 0.355706 0.258221
H57   H     H_    0.227220 0.555254 0.400453 0.234133
H58   H     H_    0.224568 0.691609 0.439368 0.232522
S5    S     S_3+6 0.872634 0.130038 0.460603 0.086383
O29   O     O_2   0.845121 0.056750 0.499143 -0.207343
O30   O     O_2   0.838931 0.168071 0.419309 -0.253386
O31   O     O_3   0.915218 0.040748 0.434294 -0.487294
H59   H     H_    0.898793 0.961146 0.426838 0.370452
S6    S     S_3+6 0.127480 0.854747 0.549679 0.105744
O32   O     O_2   0.153325 0.870841 0.599237 -0.179496
O33   O     O_2   0.162584 0.873154 0.506992 -0.273850
O34   O     O_3   0.084813 0.962675 0.545166 -0.435487
H60   H     H_    0.102604 0.042271 0.545747 0.388862

loop_
_geom_bond_atom_site_label_1
_geom_bond_atom_site_label_2
_geom_bond_distance
_ccdc_geom_bond_type
C12   C14   1.403308 A    
C93   C94   1.531928 S    
H28   C92   1.083529 S    
C49   C51   1.396289 A    
C5    C79   1.410337 A    
C23   C25   1.399844 A    
O28   H38   0.990504 S    
C84   C88   1.423439 A    
C3    C29   1.466559 S    
C10   O13   1.346377 S    
C4    C30   1.471409 S    
C95   C96   1.531953 S    
C97   H52   1.109855 S    
C21   C23   1.412237 A    
C22   C28   1.417285 A    
C10   C28   1.419019 A    
C5    C86   1.410167 A    
O1    C1    1.286967 A    
C8    O12   1.349853 S    
O25   H37   0.990329 S    
C17   C19   1.398996 A    
C90   C92   1.388229 A    
C31   C35   1.409320 A    
C61   O15   1.345607 S    
N4    C74   1.452821 S    
C6    C85   1.410219 A    
C48   C50   1.404129 A    
C76   C87   1.431460 A    
C71   C73   1.403068 A    
N3    C73   1.450510 S    
Cu2   N5    1.993635 S    
C15   H3    1.083315 S    
C56   C59   1.385819 A    
C71   H33   1.082592 S    
C52   C54   1.395832 A    
C32   C33   1.419113 A    
C12   C20   1.412912 A    
S1    O19   1.681419 S    
C69   H31   1.081722 S    
O4    Cu1   1.971674 S    
C37   C39   1.411077 A    
C38   C40   1.409857 A    
N1    C19   1.434903 S    
C6    C80   1.410657 A    
C25   H7    1.083323 S    
C50   C52   1.395965 A    
H18   C54   1.082161 S    
C100  H55   1.108736 S    
S5    O31   1.680496 S    
O6    Cu2   1.945424 S    
S1    O17   1.502071 D    
C62   C78   1.433691 A    
C99   H58   1.110972 S    
C44   C54   1.400546 A    
C62   N4    1.372219 A    
C95   H47   1.111379 S    
C18   H6    1.082924 S    
C94   H41   1.110695 S    
C61   N3    1.370999 A    
C21   C27   1.415607 A    
C96   H46   1.110688 S    
C9    C27   1.416985 A    
C22   C24   1.412824 A    
C40   S6    1.784904 S    
S5    O29   1.503598 D    
C57   C59   1.414609 A    
C22   C35   1.414957 A    
C13   C29   1.403665 A    
Cu1   Cu2   2.654473 S    
S4    O27   1.502242 D    
C14   C30   1.404364 A    
C70   C72   1.400698 A    
O2    C2    1.287992 A    
C24   C26   1.400252 A    
C43   S3    1.758834 S    
C48   C59   1.481545 S    
C44   S4    1.757787 S    
S3    O24   1.502845 D    
C94   H40   1.110935 S    
C45   C47   1.404709 A    
C97   H53   1.111519 S    
C66   C68   1.401681 A    
C47   C49   1.403993 A    
C7    O11   1.349878 S    
C16   H4    1.081928 S    
O31   H59   0.990616 S    
O34   H60   0.990657 S    
C38   S2    1.785916 S    
C12   C97   1.512722 S    
C84   C90   1.413954 A    
C70   H32   1.081664 S    
C44   C46   1.403499 A    
C55   H25   1.085013 S    
C83   C86   1.431486 A    
C14   H13   1.083706 S    
C43   C45   1.402370 A    
N2    C20   1.434633 S    
C13   H14   1.080863 S    
C63   C81   1.406023 A    
C56   C58   1.398562 A    
C82   C91   1.397793 A    
H17   C53   1.081252 S    
C67   N5    1.362622 A    
C32   C36   1.409385 A    
C68   N6    1.362247 A    
O1    Cu1   1.966687 S    
C78   C80   1.431188 A    
O7    Cu2   1.944478 S    
C75   C77   1.421946 A    
C43   C53   1.400338 A    
C76   C82   1.411942 A    
H12   C65   1.082557 S    
C51   H23   1.082326 S    
H29   C89   1.077322 S    
O5    C3    1.288114 A    
O22   H36   0.990516 S    
S6    O34   1.679500 S    
O6    C4    1.289242 A    
C100  H56   1.110454 S    
C55   C57   1.399469 A    
C52   H24   1.082308 S    
C11   C99   1.522303 S    
C42   H16   1.078393 S    
H30   C90   1.077235 S    
C99   H57   1.111322 S    
C69   N5    1.362953 A    
C58   C60   1.413438 A    
C9    O14   1.346973 S    
C70   N6    1.362543 A    
O19   H35   0.990526 S    
C47   C60   1.481173 S    
O8    C4    1.289789 A    
C2    C57   1.452618 S    
C7    C23   1.399007 A    
C86   C88   1.411455 A    
C5    H9    1.069499 S    
C50   H22   1.083178 S    
H1    C68   1.081622 S    
C46   H20   1.082924 S    
O7    C3    1.288300 A    
C17   H5    1.082934 S    
S4    O26   1.503156 D    
C15   C29   1.399323 A    
Cu1   N6    1.993635 S    
C32   C38   1.418926 A    
O4    C2    1.280889 A    
C16   C30   1.401409 A    
C98   H50   1.110187 S    
C18   C20   1.399284 A    
O10   C63   1.349854 S    
S3    O25   1.679603 S    
C94   H39   1.110913 S    
C72   C74   1.404269 A    
C37   S1    1.787143 S    
C85   C87   1.411558 A    
C7    N1    1.363366 A    
C1    C58   1.452563 S    
S2    O20   1.501578 D    
C25   C41   1.388343 A    
C89   C91   1.387827 A    
C84   C85   1.432005 A    
N2    C10   1.367359 A    
C72   H34   1.082610 S    
S2    O22   1.681535 S    
C81   C92   1.397751 A    
C75   C81   1.412284 A    
S6    O33   1.504033 D    
O3    C1    1.281769 A    
O8    Cu1   1.944475 S    
C76   C78   1.421693 A    
C45   H19   1.083105 S    
N4    C64   1.366416 A    
C79   C93   1.533645 S    
O3    Cu2   1.971676 S    
C6    H10   1.069375 S    
H27   C91   1.083533 S    
C93   H42   1.111468 S    
C27   C40   1.423177 A    
C56   H26   1.085090 S    
C28   C39   1.426122 A    
C99   C100  1.529207 S    
C98   H51   1.110323 S    
C65   C67   1.401723 A    
C11   C13   1.409791 A    
C46   C48   1.404856 A    
C41   H15   1.078050 S    
C97   C98   1.526576 S    
C8    C24   1.397728 A    
S3    O23   1.503179 D    
C21   C36   1.414925 A    
C31   C37   1.419073 A    
S2    O21   1.503660 D    
C83   C87   1.423331 A    
C15   C17   1.389716 A    
C39   S5    1.786711 S    
C26   C42   1.387460 A    
C16   C18   1.391193 A    
S1    O18   1.503620 D    
C33   C42   1.406138 A    
O2    Cu2   1.966687 S    
H11   C66   1.082546 S    
C62   O16   1.346269 S    
C69   C71   1.401165 A    
C55   C60   1.386293 A    
C33   C35   1.419351 A    
C34   C41   1.406204 A    
C83   C89   1.413691 A    
C75   C88   1.431345 A    
C51   C53   1.396093 A    
C96   H44   1.110917 S    
C65   C73   1.403460 A    
C26   H8    1.083487 S    
O5    Cu1   1.945424 S    
C64   C82   1.405671 A    
S6    O32   1.503019 D    
S4    O28   1.681864 S    
C100  H54   1.110881 S    
C8    N2    1.363095 A    
C31   C34   1.419744 A    
C11   C19   1.413937 A    
S5    O30   1.503675 D    
C49   H21   1.083143 S    
O9    C64   1.349888 S    
C93   H43   1.111022 S    
C96   H45   1.110929 S    
C66   C74   1.404556 A    
N3    C63   1.365392 A    
C98   H49   1.110492 S    
C61   C77   1.433147 A    
C34   C36   1.418670 A    
H2    C67   1.081633 S    
C95   H48   1.111065 S    
C80   C95   1.533578 S    
C77   C79   1.430994 A    
N1    C9    1.366995 A    
