data_mof_unit_35711.cif
_audit_creation_date              2013-03-05T16:01:05-0500
_audit_creation_method            fapswitch 2.2
_symmetry_space_group_name_H-M    P1
_symmetry_Int_Tables_number       1
_space_group_crystal_system       triclinic
_cell_length_a                    14.692015
_cell_length_b                    14.671162
_cell_length_c                    15.879766
_cell_angle_alpha                 76.941595
_cell_angle_beta                  102.776556
_cell_angle_gamma                 114.910962
_cell_volume                      2993.23437888

loop_
_atom_site_label
_atom_site_type_symbol
_atom_site_description
_atom_site_fract_x
_atom_site_fract_y
_atom_site_fract_z
_atom_type_partial_charge
O1    O     O_R   0.977900 0.338120 0.529810 -0.585664
O2    O     O_R   0.022100 0.661880 0.470190 -0.587362
O3    O     O_R   0.839850 0.379180 0.491620 -0.588652
O4    O     O_R   0.160150 0.620820 0.508380 -0.596471
C1    C     C_R   0.880246 0.312043 0.514737 0.813794
C2    C     C_R   0.119720 0.687919 0.486481 0.801204
O5    O     O_R   0.069010 0.479460 0.640020 -0.577848
O6    O     O_R   0.930990 0.520540 0.359980 -0.577656
O7    O     O_R   0.930960 0.520530 0.601820 -0.570183
O8    O     O_R   0.069040 0.479470 0.398180 -0.545938
C3    C     C_R   0.999511 0.499879 0.659934 0.819831
C4    C     C_R   0.000375 0.499954 0.340065 0.820697
Cu1   Cu    Cu3+1 0.081740 0.475690 0.522610 0.979110
Cu2   Cu    Cu3+1 0.918260 0.524310 0.477390 0.967550
C5    C     C_3   0.048733 0.443007 0.048905 -0.036556
C6    C     C_3   0.949670 0.555296 0.951026 -0.011535
C7    C     C_3   0.952712 0.402946 0.981326 -0.314406
C8    C     C_3   0.045699 0.595381 0.018598 -0.332597
C9    C     C_1   0.998644 0.499797 0.749251 -0.113916
C10   C     C_1   0.000774 0.499423 0.250755 -0.104750
C11   C     C_3   0.094503 0.538904 0.983286 -0.016416
C12   C     C_3   0.903923 0.459414 0.016681 -0.013672
C13   C     C_3   0.999061 0.500053 0.916243 0.141581
C14   C     C_3   0.999380 0.498269 0.083717 0.137721
C15   C     C_1   0.998511 0.499784 0.824625 0.096299
C16   C     C_1   0.000386 0.498922 0.175368 0.087321
C17   C     C_R   0.812827 0.203771 0.524934 -0.051674
C18   C     C_R   0.187154 0.795647 0.485863 -0.051014
C19   C     C_R   0.785559 0.025303 0.545324 0.009147
C20   C     C_R   0.215518 0.970743 0.488456 0.000434
C21   C     C_R   0.850935 0.127979 0.540162 -0.269557
C22   C     C_R   0.149598 0.869476 0.483124 -0.264889
C23   C     C_R   0.708810 0.176908 0.517769 -0.227621
C24   C     C_R   0.291190 0.822989 0.493343 -0.234828
C25   C     C_R   0.640875 0.074944 0.528769 0.065497
C26   C     C_R   0.360540 0.921228 0.506668 0.069736
C27   C     C_R   0.679512 0.997878 0.541052 0.131025
C28   C     C_R   0.322251 0.996825 0.502896 0.126058
C29   C     C_R   0.534992 0.048354 0.525018 0.077440
C30   C     C_R   0.467048 0.945798 0.522859 0.081168
C31   C     C_R   0.507826 0.870584 0.540598 -0.236970
C32   C     C_R   0.495158 0.120396 0.526444 -0.221818
C33   C     C_R   0.611468 0.896073 0.551140 -0.171971
C34   C     C_R   0.391537 0.094705 0.517113 -0.163357
N1    N     N_R   0.795440 0.560790 0.443380 -0.179281
N2    N     N_R   0.204560 0.439210 0.556620 -0.185432
C35   C     C_R   0.710555 0.660786 0.349280 -0.255656
C36   C     C_R   0.288860 0.339007 0.651404 -0.286568
C37   C     C_R   0.795575 0.636756 0.376312 0.104268
C38   C     C_R   0.204265 0.363726 0.624222 0.099628
C39   C     C_R   0.715035 0.509952 0.488596 0.003014
C40   C     C_R   0.284785 0.488906 0.511080 0.105915
C41   C     C_R   0.629964 0.537380 0.469640 -0.024274
C42   C     C_R   0.369374 0.460672 0.530354 0.008211
C43   C     C_R   0.626288 0.608896 0.393979 0.187835
C44   C     C_R   0.372933 0.389728 0.606386 0.107469
C45   C     C_R   0.546244 0.492190 0.518947 -0.038166
C46   C     C_R   0.452763 0.504690 0.480875 0.062980
C47   C     C_R   0.447284 0.561287 0.395241 -0.040585
C48   C     C_R   0.551827 0.435540 0.604587 -0.048373
C49   C     C_R   0.535942 0.621243 0.358644 -0.251831
C50   C     C_R   0.462953 0.376677 0.641650 -0.173107
H1    H     H_    0.282928 0.552553 0.462161 0.113491
H2    H     H_    0.716953 0.445605 0.536527 0.128514
H3    H     H_    0.139431 0.325038 0.659003 0.123749
H4    H     H_    0.860537 0.676239 0.341743 0.125302
H5    H     H_    0.709542 0.717412 0.292269 0.143098
H6    H     H_    0.289685 0.282729 0.708736 0.141891
H7    H     H_    0.914559 0.324126 0.965874 0.159669
H8    H     H_    0.083843 0.674213 0.034022 0.153068
C51   C     C_2   0.351601 0.549212 0.334735 0.336462
H9    H     H_    0.346641 0.612275 0.285411 0.057432
O9    O     O_2   0.279870 0.467098 0.335599 -0.463408
C52   C     C_2   0.649166 0.448602 0.663287 0.343870
H10   H     H_    0.715803 0.518103 0.653430 0.117237
O10   O     O_2   0.655646 0.382926 0.724365 -0.545643
C53   C     C_2   0.104672 0.379009 0.101323 0.375726
H11   H     H_    0.136457 0.344745 0.068074 0.072110
O11   O     O_2   0.114776 0.365031 0.180939 -0.470647
C54   C     C_2   0.893420 0.618959 0.898459 0.357617
H12   H     H_    0.862768 0.654388 0.931626 0.072270
O12   O     O_2   0.881627 0.631191 0.818817 -0.532380
C55   C     C_2   0.795684 0.414098 0.032476 0.355127
H13   H     H_    0.735381 0.389773 0.978785 0.098082
O13   O     O_2   0.774746 0.404383 0.105036 -0.526898
C56   C     C_2   0.202770 0.584213 0.967553 0.349144
H14   H     H_    0.263033 0.608495 0.021280 0.074320
O14   O     O_2   0.223778 0.593974 0.895012 -0.530439
H15   H     H_    0.636765 0.834176 0.567894 0.199438
H16   H     H_    0.367340 0.152912 0.522518 0.201654
H17   H     H_    0.316396 0.765709 0.487962 0.144152
H18   H     H_    0.681936 0.237456 0.501136 0.158726
H19   H     H_    0.068412 0.848390 0.475780 0.161923
H20   H     H_    0.931778 0.149059 0.544257 0.157590
C57   C     C_2   0.832865 0.951647 0.552308 0.340666
H21   H     H_    0.909769 0.968131 0.585700 0.069103
O15   O     O_2   0.790265 0.876163 0.516262 -0.548330
C58   C     C_2   0.167787 0.044761 0.478063 0.346835
H22   H     H_    0.093931 0.019473 0.498283 0.072159
O16   O     O_2   0.206249 0.132070 0.442021 -0.508164
H23   H     H_    0.461703 0.790327 0.550567 0.147362
H24   H     H_    0.542453 0.196930 0.538648 0.154192
H25   H     H_    0.531816 0.669130 0.296054 0.135309
H26   H     H_    0.466474 0.328875 0.704319 0.184276

loop_
_geom_bond_atom_site_label_1
_geom_bond_atom_site_label_2
_geom_bond_distance
_ccdc_geom_bond_type
C8    H8    1.110389 S    
C7    H7    1.110388 S    
C8    C11   1.550280 S    
C41   C43   1.413054 A    
C57   H21   1.085825 S    
C35   C37   1.390787 A    
C53   H11   1.084569 S    
C17   C23   1.392721 A    
O5    C3    1.294466 A    
C3    C9    1.420930 S    
C7    C13   1.546030 S    
C52   O10   1.221613 D    
C8    C14   1.546288 S    
C35   C43   1.402376 A    
C49   H25   1.085730 S    
C14   C16   1.454351 S    
Cu1   N2    2.021426 S    
C56   O14   1.219924 D    
N1    C39   1.363189 A    
N2    C40   1.363307 A    
C20   C28   1.425885 A    
C48   C50   1.399079 A    
O4    Cu1   1.934722 S    
C24   H17   1.076696 S    
C1    C17   1.469641 S    
C2    C18   1.468949 S    
C6    C12   1.538921 S    
N1    C37   1.356132 A    
Cu2   N1    2.021426 S    
C24   C26   1.401991 A    
C36   C38   1.390769 A    
C22   H19   1.084422 S    
C18   C24   1.391412 A    
Cu1   Cu2   2.691156 S    
C31   C33   1.386486 A    
O2    C2    1.299569 A    
C32   C34   1.387003 A    
O2    Cu2   1.947583 S    
C32   H24   1.078270 S    
C35   H5    1.083788 S    
C40   C42   1.420535 A    
C29   C32   1.413474 A    
C50   H26   1.085026 S    
C53   O11   1.219820 D    
C42   C44   1.412036 A    
C47   C49   1.395253 A    
C37   H4    1.081710 S    
C17   C21   1.396955 A    
C26   C30   1.425979 A    
C54   O12   1.219992 D    
C52   H10   1.085078 S    
C23   H18   1.076143 S    
C29   C30   1.415761 A    
C19   C57   1.485787 S    
C41   C45   1.438734 A    
C56   H14   1.084545 S    
C45   C48   1.429780 A    
C46   C47   1.429258 A    
C40   H1    1.077222 S    
C39   C41   1.420293 A    
C27   C33   1.400266 A    
C25   C29   1.426189 A    
O7    Cu2   1.933463 S    
C28   C34   1.400986 A    
C55   H13   1.084563 S    
C18   C22   1.396829 A    
O6    C4    1.294414 A    
C4    C10   1.421332 S    
C33   H15   1.079349 S    
C36   H6    1.083790 S    
O7    C3    1.295145 A    
O3    Cu2   1.934720 S    
O8    C4    1.295381 A    
O4    C2    1.299762 A    
C5    C14   1.537449 S    
C55   O13   1.219920 D    
C6    C13   1.537381 S    
C58   O16   1.220513 D    
C11   C13   1.537918 S    
C12   C14   1.538006 S    
O1    Cu1   1.947584 S    
O1    C1    1.299696 A    
C34   H16   1.079524 S    
C51   O9    1.221290 D    
C42   C46   1.437130 A    
C36   C44   1.402273 A    
C20   C58   1.485796 S    
C11   C56   1.498153 S    
C30   C31   1.413432 A    
O6    Cu2   1.929697 S    
C25   C27   1.425019 A    
C39   H2    1.076827 S    
C54   H12   1.084536 S    
O3    C1    1.299953 A    
O8    Cu1   1.933463 S    
C57   O15   1.220602 D    
C5    C7    1.550543 S    
C21   H20   1.084485 S    
N2    C38   1.356341 A    
C7    C12   1.550415 S    
C12   C55   1.498074 S    
C26   C28   1.425054 A    
C51   H9    1.085767 S    
C19   C21   1.399494 A    
C20   C22   1.400318 A    
C45   C46   1.442312 A    
C5    C53   1.498071 S    
C5    C11   1.538786 S    
C10   C16   1.197554 T    
C43   C49   1.391682 A    
C48   C52   1.486961 S    
C23   C25   1.402059 A    
C31   H23   1.077840 S    
C44   C50   1.391681 A    
C13   C15   1.453986 S    
C9    C15   1.197325 T    
C38   H3    1.081712 S    
O5    Cu1   1.929698 S    
C6    C8    1.550596 S    
C58   H22   1.085956 S    
C19   C27   1.425304 A    
C6    C54   1.498317 S    
C47   C51   1.483409 S    
