data_mof_unit_36457.cif
_audit_creation_date              2012-12-10T17:19:02-0500
_audit_creation_method            fapswitch 2.2
_symmetry_space_group_name_H-M    P1
_symmetry_Int_Tables_number       1
_space_group_crystal_system       triclinic
_cell_length_a                    10.183513
_cell_length_b                    10.840282
_cell_length_c                    13.649071
_cell_angle_alpha                 92.01387
_cell_angle_beta                  100.533067
_cell_angle_gamma                 95.950666
_cell_volume                      1471.12259906

loop_
_atom_site_label
_atom_site_type_symbol
_atom_type_description
_atom_site_fract_x
_atom_site_fract_y
_atom_site_fract_z
_atom_type_partial_charge
C1    C     C_R   0.054379 0.732525 0.496020 0.949001
C2    C     C_2   0.023999 0.068381 0.525858 -0.146525
C3    C     C_2   0.430896 0.511213 0.508475 -0.140961
C4    C     C_2   0.569113 0.488561 0.491784 -0.137603
C5    C     C_R   0.094938 0.515977 0.685725 0.868616
C6    C     C_R   0.906600 0.489021 0.314184 0.873818
C7    C     C_R   0.152924 0.546403 0.790713 -0.061541
C8    C     C_R   0.861134 0.497609 0.207200 -0.063235
C9    C     C_R   0.152386 0.649247 0.950807 -0.206460
C10   C     C_R   0.889021 0.472090 0.035871 -0.213218
C11   C     C_R   0.084862 0.606960 0.855218 -0.215695
C12   C     C_R   0.947851 0.267902 0.508848 0.950263
C13   C     C_R   0.938273 0.464502 0.137387 -0.197912
C14   C     C_R   0.287188 0.528781 0.822079 -0.262864
C15   C     C_R   0.738695 0.543831 0.175536 -0.266590
C16   C     C_R   0.359507 0.579630 0.913476 0.093456
C17   C     C_R   0.688433 0.554585 0.074545 0.094980
C18   C     C_R   0.289292 0.635267 0.980617 0.174132
C19   C     C_R   0.763236 0.513998 0.003865 0.173957
C20   C     C_R   0.498583 0.570234 0.941174 0.070008
C21   C     C_R   0.560000 0.593814 0.042311 0.067230
C22   C     C_R   0.489492 0.652597 0.107806 -0.232728
C23   C     C_R   0.577865 0.537366 0.871243 -0.231723
C24   C     C_R   0.356703 0.675045 0.076453 -0.237355
C25   C     C_R   0.709317 0.511804 0.902414 -0.245314
C26   C     C_2   0.088964 0.865266 0.501550 -0.383279
C27   C     C_2   0.921704 0.136785 0.521728 -0.385359
C28   C     C_2   0.000976 0.936449 0.528667 -0.145409
H1    H     H_    0.305481 0.719931 0.128393 0.149964
H2    H     H_    0.906549 0.897481 0.547616 0.187904
H3    H     H_    0.820974 0.096106 0.526326 0.150019
H4    H     H_    0.183110 0.904660 0.482575 0.149227
H5    H     H_    0.578312 0.415043 0.438244 0.165846
H6    H     H_    0.421701 0.584564 0.562173 0.163265
H7    H     H_    0.665107 0.622689 0.589478 0.157645
H8    H     H_    0.334918 0.377361 0.410497 0.160957
H9    H     H_    0.535908 0.685123 0.183034 0.150122
H10   H     H_    0.540999 0.532808 0.791668 0.145528
H11   H     H_    0.766328 0.484262 0.847166 0.150808
H12   H     H_    0.680194 0.565457 0.230828 0.162388
H13   H     H_    0.334375 0.473955 0.773891 0.160668
H14   H     H_    0.034610 0.430218 0.161004 0.162035
H15   H     H_    0.980964 0.623080 0.831482 0.158601
H16   H     H_    0.098252 0.693847 0.000877 0.149347
H17   H     H_    0.947204 0.441674 0.982424 0.153814
H18   H     H_    0.124959 0.108621 0.521177 0.189392
N1    N     N_2   0.322180 0.446120 0.460900 -0.192044
N2    N     N_2   0.677820 0.553880 0.539100 -0.194649
O1    O     O_R   0.935190 0.693030 0.507870 -0.610368
O2    O     O_R   0.064810 0.306970 0.492130 -0.609315
O3    O     O_R   0.142080 0.658430 0.482770 -0.608506
O4    O     O_R   0.857920 0.341570 0.517230 -0.607735
O5    O     O_R   0.969700 0.527180 0.651960 -0.615398
O6    O     O_R   0.030300 0.472820 0.348040 -0.610075
O7    O     O_R   0.176600 0.492580 0.626860 -0.613935
O8    O     O_R   0.823400 0.507420 0.373140 -0.613213
Zn1   Zn    Zn3+2 0.861850 0.523100 0.516760 0.931108
Zn2   Zn    Zn3+2 0.138150 0.476900 0.483240 0.934909

loop_
_geom_bond_atom_site_label_1
_geom_bond_atom_site_label_2
_ccdc_geom_bond_type
C6    C8    S    
C5    C7    S    
C26   H4    S    
C8    C13   A    
C23   H10   S    
C9    C11   A    
C26   C28   D    
C20   C23   A    
C10   C19   A    
C16   C20   A    
C20   C21   A    
C10   H17   S    
C28   H2    S    
N2    Zn1   S    
O3    Zn2   S    
C21   C22   A    
C25   H11   S    
N1    Zn2   S    
C7    C11   A    
C1    O3    A    
C2    C27   D    
C6    O6    A    
C14   H13   S    
C18   C24   A    
H7    N2    S    
C5    O5    A    
C13   H14   S    
C17   C19   A    
C8    C15   A    
C22   C24   A    
C23   C25   A    
C4    N2    D    
C1    C26   S    
C19   C25   A    
C14   C16   A    
C15   H12   S    
O4    Zn1   S    
C12   C27   S    
C27   H3    S    
C3    C4    S    
O2    Zn2   S    
C9    C18   A    
O1    Zn1   S    
O8    Zn1   S    
H8    N1    S    
C16   C18   A    
O6    Zn2   S    
O7    Zn2   S    
C3    N1    D    
C15   C17   A    
O5    Zn1   S    
C4    H5    S    
C9    H16   S    
C2    C28   S    
C3    H6    S    
C12   O4    A    
C24   H1    S    
C22   H9    S    
C1    O1    A    
C11   H15   S    
C5    O7    A    
C7    C14   A    
C2    H18   S    
C6    O8    A    
C12   O2    A    
C10   C13   A    
C17   C21   A    
