data_mof_unit_65479.cif
_audit_creation_date              2012-12-10T16:44:36-0500
_audit_creation_method            fapswitch 2.2
_symmetry_space_group_name_H-M    P1
_symmetry_Int_Tables_number       1
_space_group_crystal_system       triclinic
_cell_length_a                    18.461531
_cell_length_b                    18.461267
_cell_length_c                    18.461356
_cell_angle_alpha                 119.805322
_cell_angle_beta                  119.7657
_cell_angle_gamma                 90.379003
_cell_volume                      4463.20148602

loop_
_atom_site_label
_atom_site_type_symbol
_atom_type_description
_atom_site_fract_x
_atom_site_fract_y
_atom_site_fract_z
_atom_type_partial_charge
C1    C     C_R   0.138472 0.361403 0.999653 0.511742
C2    C     C_R   0.907048 0.298539 0.258871 -0.118969
C3    C     C_R   0.960407 0.351886 0.258831 -0.118863
C4    C     C_R   0.861131 0.638183 0.999740 0.512549
C5    C     C_R   0.926998 0.354035 0.173936 -0.090716
C6    C     C_2   0.721089 0.777162 0.940041 -0.156942
C7    C     C_2   0.696761 0.808960 0.004422 -0.093267
C8    C     C_2   0.779685 0.723442 0.942501 -0.157796
C9    C     C_2   0.803291 0.691011 0.998761 -0.093315
C10   C     C_2   0.723842 0.280971 0.443850 -0.159769
C11   C     C_2   0.691225 0.192255 0.387722 -0.094806
C12   C     C_R   0.573066 0.145495 0.825773 -0.092366
C13   C     C_2   0.777571 0.337151 0.556195 -0.158868
C14   C     C_2   0.808867 0.304509 0.612266 -0.095087
C15   C     C_2   0.337155 0.280963 0.057519 -0.157042
C16   C     C_R   0.138486 0.637060 0.276924 0.507557
C17   C     C_2   0.304558 0.192221 0.001059 -0.093339
C18   C     C_2   0.280976 0.337129 0.059875 -0.157550
C19   C     C_2   0.192268 0.304505 0.995731 -0.093208
C20   C     C_2   0.218164 0.775797 0.938042 -0.158892
C21   C     C_2   0.306176 0.810878 0.006343 -0.090340
C22   C     C_2   0.162225 0.724006 0.942149 -0.158896
C23   C     C_R   0.661611 0.196740 0.912799 0.012412
C24   C     C_2   0.195432 0.689027 0.995185 -0.090594
C25   C     C_2   0.222898 0.771444 0.555643 -0.137342
C26   C     C_2   0.307666 0.824196 0.613731 0.017109
C27   C     C_2   0.164227 0.723257 0.444205 -0.163686
C28   C     C_R   0.861777 0.361403 0.722957 0.509688
C29   C     C_2   0.194711 0.684543 0.387028 -0.104127
C30   C     C_R   0.638292 0.138411 0.277037 0.509461
C31   C     C_R   0.361602 0.863487 0.722943 0.519202
C32   C     C_R   0.638919 0.861779 0.000406 0.512338
C33   C     C_R   0.361430 0.138405 0.000200 0.512612
C34   C     C_R   0.715918 0.251147 0.912797 0.011307
C35   C     C_R   0.360443 0.861019 0.000689 0.514942
C36   C     C_R   0.639926 0.139855 0.000013 0.482510
C37   C     C_R   0.139616 0.638920 0.999320 0.515667
C38   C     C_R   0.860055 0.360086 0.999932 0.481784
C39   C     C_R   0.679973 0.252736 0.825821 -0.090289
C40   C     C_R   0.592978 0.201017 0.740847 -0.117047
C41   C     C_R   0.539687 0.147512 0.740804 -0.120263
C42   C     C_3   0.348068 0.854548 0.575063 -0.381952
C43   C     C_R   0.696014 0.195951 0.999980 0.008373
C44   C     C_R   0.784043 0.248687 0.087073 0.011080
C45   C     C_R   0.838379 0.303026 0.087036 0.011436
C46   C     C_R   0.803944 0.303941 0.999925 0.008158
C47   C     C_R   0.819983 0.247035 0.174013 -0.091321
H1    H     H_    0.028225 0.391370 0.324615 0.113425
H2    H     H_    0.234593 0.156120 0.954503 0.107763
H3    H     H_    0.314703 0.408189 0.116189 0.157231
H4    H     H_    0.718178 0.294271 0.822572 0.123062
H5    H     H_    0.156195 0.234517 0.936853 0.108344
H6    H     H_    0.185372 0.786238 0.877981 0.157730
H7    H     H_    0.340616 0.805603 0.070113 0.106839
H8    H     H_    0.091710 0.713492 0.898812 0.157599
H9    H     H_    0.264491 0.694361 0.034988 0.106833
H10   H     H_    0.195012 0.761450 0.591103 0.141169
H11   H     H_    0.094341 0.715475 0.408995 0.158198
H12   H     H_    0.719897 0.798216 0.063593 0.107944
H13   H     H_    0.263101 0.686727 0.421682 0.119635
H14   H     H_    0.566647 0.202929 0.674987 0.113822
H15   H     H_    0.471944 0.107806 0.674909 0.109404
H16   H     H_    0.528374 0.103871 0.822457 0.118904
H17   H     H_    0.781741 0.205578 0.177304 0.123274
H18   H     H_    0.933388 0.296555 0.324687 0.114114
H19   H     H_    0.971727 0.395535 0.177172 0.123004
H20   H     H_    0.698291 0.791626 0.883505 0.158106
H21   H     H_    0.391687 0.925046 0.634329 0.128948
H22   H     H_    0.388999 0.814261 0.558212 0.135472
H23   H     H_    0.803102 0.709517 0.894877 0.156095
H24   H     H_    0.297144 0.851617 0.506775 0.135304
H25   H     H_    0.779544 0.701207 0.044974 0.108222
H26   H     H_    0.710079 0.314688 0.406565 0.156732
H27   H     H_    0.701362 0.156207 0.421598 0.107813
H28   H     H_    0.792462 0.408221 0.593532 0.156254
H29   H     H_    0.797676 0.234513 0.578345 0.107870
H30   H     H_    0.408189 0.314721 0.105365 0.157924
O1    O     O_3   1.000000 0.500000 0.000000 -0.442505
O2    O     O_R   0.325040 0.054120 0.939900 -0.540902
O3    O     O_R   0.444330 0.884140 0.060080 -0.539903
O4    O     O_R   0.054210 0.325030 0.939940 -0.538357
O5    O     O_R   0.615830 0.175840 0.060080 -0.545097
O6    O     O_R   0.324160 0.884140 0.939910 -0.542581
O7    O     O_R   0.615850 0.055700 0.939930 -0.545103
O8    O     O_R   0.614980 0.885710 0.939940 -0.538698
O9    O     O_R   0.445830 0.174930 0.060060 -0.539296
O10   O     O_R   0.614300 0.054120 0.229160 -0.540242
O11   O     O_R   0.325070 0.885060 0.770830 -0.547872
O12   O     O_R   0.054160 0.614240 0.229150 -0.540840
O13   O     O_R   0.885070 0.614240 0.060060 -0.538860
O14   O     O_R   0.174980 0.614900 0.229170 -0.541705
O15   O     O_R   0.885740 0.445830 0.770840 -0.541813
O16   O     O_R   0.175880 0.615810 0.060090 -0.540667
O17   O     O_R   0.884210 0.324110 0.939920 -0.543043
O18   O     O_R   0.055710 0.615810 0.939920 -0.542813
O19   O     O_R   0.884190 0.444260 0.060070 -0.544369
O20   O     O_R   0.885120 0.325030 0.770840 -0.542098
O21   O     O_R   0.175010 0.445830 0.060100 -0.541412
O22   O     O_R   0.885710 0.614900 0.939900 -0.542409
O23   O     O_3   0.500040 0.999960 0.000000 -0.442726
O24   O     O_R   0.614930 0.174930 0.229160 -0.543110
O25   O     O_R   0.445880 0.885710 0.770850 -0.540940
O26   O     O_R   0.614330 0.885060 0.060100 -0.539752
Zn1   Zn    Zn3+2 0.956610 0.542450 0.085830 0.933650
Zn2   Zn    Zn3+2 0.129220 0.543380 0.085850 0.937508
Zn3   Zn    Zn3+2 0.957530 0.543380 0.914160 0.932650
Zn4   Zn    Zn3+2 0.956640 0.370790 0.914170 0.936447
Zn5   Zn    Zn3+2 0.543440 0.957510 0.914170 0.930390
Zn6   Zn    Zn3+2 0.542510 0.956570 0.085840 0.942027
Zn7   Zn    Zn3+2 0.370820 0.956570 0.914150 0.934194
Zn8   Zn    Zn3+2 0.543410 0.129170 0.085830 0.929937

loop_
_geom_bond_atom_site_label_1
_geom_bond_atom_site_label_2
_ccdc_geom_bond_type
C28   O20   A    
C15   C18   S    
C39   H4    S    
O4    Zn4   S    
O23   Zn7   S    
C27   C29   D    
O14   Zn2   S    
C9    H25   S    
C33   O9    A    
C2    H18   S    
C45   C46   A    
C12   C23   A    
C26   C42   S    
O21   Zn2   S    
C25   H10   S    
O1    Zn2   S    
C21   H7    S    
C10   H26   S    
C32   O8    A    
C1    O4    A    
C3    H1    S    
C23   C43   A    
C37   O18   A    
C18   C19   D    
O16   Zn2   S    
C19   H5    S    
C13   H28   S    
C11   C30   S    
C36   O5    A    
C8    C9    D    
O3    Zn6   S    
C10   C13   S    
O25   Zn5   S    
C34   C46   A    
O8    Zn5   S    
C44   C47   A    
O11   Zn7   S    
O23   Zn6   S    
C13   C14   D    
C42   H21   S    
C17   C33   S    
C41   H15   S    
C30   O10   A    
C7    H12   S    
C4    O13   A    
O17   Zn4   S    
C32   O26   A    
O23   Zn5   S    
O1    Zn1   S    
C34   C39   A    
C31   O25   A    
C17   H2    S    
C47   H17   S    
C12   H16   S    
C35   O6    A    
C33   O2    A    
C6    C8    S    
C16   C29   S    
C1    C19   S    
C5    C45   A    
C11   H27   S    
C42   H22   S    
C40   H14   S    
O1    Zn4   S    
C14   H29   S    
C43   C44   A    
C12   C41   A    
O18   Zn3   S    
C29   H13   S    
C23   C34   A    
C38   O17   A    
C24   C37   S    
O6    Zn7   S    
C37   O16   A    
C28   O15   A    
O13   Zn1   S    
C22   H8    S    
C16   O14   A    
O10   Zn6   S    
O15   Zn3   S    
C6    H20   S    
C20   C22   S    
O19   Zn1   S    
O12   Zn1   S    
C22   C24   D    
C24   H9    S    
C31   O11   A    
C39   C40   A    
C44   C45   A    
C18   H3    S    
C15   C17   D    
O22   Zn3   S    
C40   C41   A    
C7    C32   S    
O2    Zn7   S    
C26   C31   S    
C20   H6    S    
C3    C5    A    
C27   H11   S    
C1    O21   A    
C6    C7    D    
C21   C35   S    
C2    C47   A    
C25   C27   S    
C8    H23   S    
O26   Zn6   S    
O1    Zn3   S    
O5    Zn8   S    
C2    C3    A    
C25   C26   D    
C5    H19   S    
C15   H30   S    
C36   O7    A    
O24   Zn8   S    
C30   O24   A    
C42   H24   S    
O7    Zn5   S    
O9    Zn8   S    
C38   C46   S    
C10   C11   D    
O20   Zn4   S    
C35   O3    A    
C16   O12   A    
C20   C21   D    
O23   Zn8   S    
C4    O22   A    
C38   O19   A    
C36   C43   S    
C14   C28   S    
C4    C9    S    
