data_mof_unit_23956.cif
_audit_creation_date              2012-12-10T18:49:58-0500
_audit_creation_method            fapswitch 2.2
_symmetry_space_group_name_H-M    P1
_symmetry_Int_Tables_number       1
_space_group_crystal_system       triclinic
_cell_length_a                    10.701252
_cell_length_b                    9.838209
_cell_length_c                    10.642026
_cell_angle_alpha                 89.991949
_cell_angle_beta                  90.10816
_cell_angle_gamma                 89.985364
_cell_volume                      1120.40273136

loop_
_atom_site_label
_atom_site_type_symbol
_atom_type_description
_atom_site_fract_x
_atom_site_fract_y
_atom_site_fract_z
_atom_type_partial_charge
C1    C     C_R   0.259877 0.500028 0.499567 0.873776
C2    C     C_3   0.500138 0.649465 0.928361 -0.397409
C3    C     C_R   0.063962 0.382026 0.463800 -0.177301
C4    C     C_R   0.064009 0.618541 0.532928 -0.191420
C5    C     C_R   0.935909 0.381986 0.463931 -0.179443
C6    C     C_R   0.936016 0.618501 0.533064 -0.189339
C7    C     C_R   0.872489 0.500112 0.498936 -0.006974
C8    C     C_R   0.127456 0.500179 0.498719 -0.006689
C9    C     C_R   0.573530 0.071925 0.582090 -0.076714
C10   C     C_R   0.573523 0.928000 0.582099 -0.077681
C11   C     C_R   0.426436 0.928068 0.417816 -0.076963
C12   C     C_R   0.426418 0.072001 0.417831 -0.078897
C13   C     C_R   0.499985 0.500257 0.257798 0.855642
C14   C     C_R   0.740066 0.499999 0.499741 0.872714
C15   C     C_R   0.500035 0.500257 0.742352 0.847981
C16   C     C_3   0.381316 0.425254 0.071422 -0.163952
C17   C     C_3   0.618657 0.425109 0.071864 -0.162300
C18   C     C_3   0.381359 0.427379 0.926571 -0.429244
C19   C     C_3   0.618573 0.427103 0.927012 -0.437693
C20   C     C_3   0.500043 0.649901 0.070943 -0.388222
C21   C     C_3   0.500003 0.501004 0.121198 0.078605
C22   C     C_3   0.500026 0.500949 0.878571 0.140048
H1    H     H_    0.367666 0.873514 0.352155 0.127966
H2    H     H_    0.367604 0.126611 0.352207 0.121397
H3    H     H_    0.384671 0.317334 0.102838 0.131093
H4    H     H_    0.615286 0.317219 0.103328 0.136967
H5    H     H_    0.379171 0.320845 0.891272 0.171046
H6    H     H_    0.620558 0.320532 0.891779 0.165979
H7    H     H_    0.296717 0.479039 0.888220 0.166727
H8    H     H_    0.703294 0.478499 0.888907 0.165324
H9    H     H_    0.416399 0.706188 0.104975 0.181859
H10   H     H_    0.583662 0.706116 0.105370 0.188352
H11   H     H_    0.416101 0.705033 0.893782 0.182731
H12   H     H_    0.584309 0.704808 0.894170 0.176034
H13   H     H_    0.112940 0.290527 0.435751 0.150011
H14   H     H_    0.112962 0.710160 0.560779 0.154379
H15   H     H_    0.886874 0.290459 0.435974 0.154749
H16   H     H_    0.887129 0.710094 0.561018 0.150154
H17   H     H_    0.632336 0.126468 0.647722 0.122789
H18   H     H_    0.632320 0.873396 0.647737 0.118804
N1    N     N_R   0.499970 0.857200 0.499970 -0.078830
N2    N     N_R   0.499970 0.142800 0.499970 -0.078493
O1    O     O_R   0.316750 0.614620 0.499990 -0.623967
O2    O     O_R   0.316750 0.385380 0.499990 -0.626897
O3    O     O_R   0.499970 0.614670 0.314790 -0.622156
O4    O     O_R   0.499970 0.385330 0.314790 -0.636918
O5    O     O_R   0.683220 0.614710 0.500010 -0.622133
O6    O     O_R   0.683220 0.385290 0.500010 -0.628030
O7    O     O_R   0.500010 0.614660 0.685200 -0.633548
O8    O     O_R   0.500010 0.385340 0.685200 -0.627029
Zn1   Zn    Zn3+2 0.499980 0.653120 0.500000 0.943509
Zn2   Zn    Zn3+2 0.499980 0.346880 0.500000 0.938684
C23   C     C_1   0.263711 0.483262 0.121045 0.139674
N3    N     N_1   0.171811 0.528594 0.160009 -0.195105
C24   C     C_1   0.736304 0.483057 0.121825 0.147761
N4    N     N_1   0.828249 0.528339 0.161030 -0.191410

loop_
_geom_bond_atom_site_label_1
_geom_bond_atom_site_label_2
_ccdc_geom_bond_type
C2    C22   S    
O8    Zn2   S    
C11   C12   A    
C4    H14   S    
C16   C21   S    
C5    H15   S    
C7    C14   S    
C1    C8    S    
C9    C10   A    
C12   H2    S    
C1    O2    A    
C3    H13   S    
C4    C8    A    
O1    Zn1   S    
C2    H12   S    
C24   N4    T    
C6    H16   S    
C13   C21   S    
C18   H7    S    
C18   C22   S    
C23   N3    T    
C10   N1    A    
C13   O3    A    
C19   H6    S    
O2    Zn2   S    
C9    N2    A    
C14   O5    A    
C17   H4    S    
C2    H11   S    
C4    C6    A    
C17   C19   S    
N1    Zn1   S    
C11   N1    A    
C6    C7    A    
C15   O7    A    
C13   O4    A    
O3    Zn1   S    
C12   N2    A    
O4    Zn2   S    
C9    H17   S    
C19   C22   S    
C20   C21   S    
C16   C18   S    
C3    C8    A    
C20   H10   S    
C15   O8    A    
C11   H1    S    
C16   H3    S    
C5    C7    A    
C14   O6    A    
C17   C24   S    
C16   C23   S    
C10   H18   S    
O5    Zn1   S    
C3    C5    A    
O6    Zn2   S    
C19   H8    S    
C2    C20   S    
C1    O1    A    
C15   C22   S    
C17   C21   S    
C18   H5    S    
N2    Zn2   S    
O7    Zn1   S    
C20   H9    S    
