data_mof_unit_44192.cif
_audit_creation_date              2012-12-11T17:12:47-0500
_audit_creation_method            fapswitch 2.2
_symmetry_space_group_name_H-M    P1
_symmetry_Int_Tables_number       1
_space_group_crystal_system       triclinic
_cell_length_a                    17.333963
_cell_length_b                    6.880013
_cell_length_c                    14.39699
_cell_angle_alpha                 89.998285
_cell_angle_beta                  110.385114
_cell_angle_gamma                 90.008916
_cell_volume                      1609.42609773

loop_
_atom_site_label
_atom_site_type_symbol
_atom_type_description
_atom_site_fract_x
_atom_site_fract_y
_atom_site_fract_z
_atom_type_partial_charge
O1    O     O_R   0.314130 0.635770 0.168990 -0.551563
O2    O     O_R   0.685870 0.364230 0.831010 -0.551562
O3    O     O_R   0.185870 0.135770 0.331010 -0.551488
O4    O     O_R   0.814130 0.864230 0.668990 -0.551493
O5    O     O_R   0.146800 0.302460 0.139760 -0.535784
O6    O     O_R   0.853200 0.697540 0.860240 -0.535784
O7    O     O_R   0.353200 0.802460 0.360240 -0.535837
O8    O     O_R   0.646800 0.197540 0.639760 -0.535837
C1    C     C_R   0.113983 0.475818 0.112782 0.730594
C2    C     C_R   0.886017 0.524181 0.887218 0.730632
C3    C     C_R   0.386016 0.975834 0.387217 0.729967
C4    C     C_R   0.613984 0.024166 0.612783 0.729970
O9    O     O_R   0.311100 0.305780 0.157130 -0.544867
O10   O     O_R   0.688900 0.694220 0.842870 -0.544867
O11   O     O_R   0.188900 0.805780 0.342870 -0.544956
O12   O     O_R   0.811100 0.194220 0.657130 -0.544958
O13   O     O_R   0.351340 0.139640 0.348510 -0.534815
O14   O     O_R   0.648660 0.860360 0.651490 -0.534816
O15   O     O_R   0.148660 0.639640 0.151490 -0.534850
O16   O     O_R   0.851340 0.360360 0.848510 -0.534852
C5    C     C_R   0.334442 0.474083 0.137701 0.710422
C6    C     C_R   0.665557 0.525917 0.862299 0.710419
C7    C     C_R   0.165588 0.974057 0.362345 0.710732
C8    C     C_R   0.834417 0.025939 0.637661 0.710730
C9    C     C_1   0.533560 0.008911 0.533046 -0.133531
C10   C     C_1   0.466440 0.991089 0.466954 -0.133528
C11   C     C_1   0.966441 0.508931 0.966955 -0.133414
C12   C     C_1   0.033559 0.491069 0.033045 -0.133439
O17   O     O_3   0.263010 0.470920 0.312770 -0.370927
O18   O     O_3   0.736990 0.529080 0.687230 -0.370935
O19   O     O_3   0.236990 0.970920 0.187230 -0.370873
O20   O     O_3   0.763010 0.029080 0.812770 -0.370871
V1    V     V_3+5 0.247590 0.194450 0.238360 1.456265
V2    V     V_3+5 0.752410 0.805550 0.761640 1.456270
V3    V     V_3+5 0.252410 0.694450 0.261640 1.456061
V4    V     V_3+5 0.747590 0.305550 0.738360 1.456062
C13   C     C_R   0.113979 0.975568 0.425766 -0.123425
C14   C     C_R   0.886028 0.024414 0.574241 -0.123454
C15   C     C_R   0.386033 0.475750 0.074268 -0.123510
C16   C     C_R   0.613967 0.524249 0.925731 -0.123509
C17   C     C_R   0.924038 0.197404 0.449256 -0.144176
C18   C     C_R   0.075968 0.802559 0.550747 -0.144196
C19   C     C_R   0.576533 0.696041 0.051468 -0.143671
C20   C     C_R   0.423466 0.303958 0.948531 -0.143670
C21   C     C_R   0.871932 0.171142 0.502690 -0.182643
C22   C     C_R   0.128083 0.828854 0.497325 -0.182664
C23   C     C_R   0.628520 0.669933 0.997862 -0.182593
C24   C     C_R   0.371479 0.330066 0.002138 -0.182594
C25   C     C_R   0.954540 0.899177 0.591679 -0.058674
C26   C     C_R   0.045450 0.100752 0.408308 -0.058686
C27   C     C_R   0.545063 0.400037 0.907779 -0.058706
C28   C     C_R   0.454936 0.599962 0.092219 -0.058708
C29   C     C_R   0.007764 0.924759 0.536145 0.107896
C30   C     C_R   0.992237 0.075194 0.463857 0.107906
C31   C     C_R   0.491990 0.425347 0.963534 0.107757
C32   C     C_R   0.508009 0.574653 0.036465 0.107754
C33   C     C_2   0.027624 0.249675 0.328948 0.331866
H1    H     H_    0.073330 0.358753 0.330861 0.067306
O21   O     O_2   0.962265 0.248465 0.259703 -0.529541
C34   C     C_2   0.972316 0.750116 0.670973 0.331855
H2    H     H_    0.926572 0.641095 0.669010 0.067353
O22   O     O_2   0.037680 0.751113 0.740212 -0.529575
C35   C     C_2   0.473305 0.747417 0.172336 0.331576
H3    H     H_    0.427889 0.856673 0.171208 0.067185
O23   O     O_2   0.538808 0.744778 0.241341 -0.529483
C36   C     C_2   0.526693 0.252583 0.827663 0.331574
H4    H     H_    0.572110 0.143328 0.828789 0.067186
O24   O     O_2   0.461190 0.255221 0.758658 -0.529484
H5    H     H_    0.179377 0.729581 0.510741 0.141522
H6    H     H_    0.820644 0.270434 0.489279 0.141511
H7    H     H_    0.319912 0.231471 0.988395 0.141464
H8    H     H_    0.680088 0.768528 0.011605 0.141470
H9    H     H_    0.910570 0.317220 0.397479 0.164259
H10   H     H_    0.089434 0.682728 0.602514 0.164345
H11   H     H_    0.590356 0.815108 0.103701 0.164450
H12   H     H_    0.409644 0.184891 0.896299 0.164448

loop_
_geom_bond_atom_site_label_1
_geom_bond_atom_site_label_2
_ccdc_geom_bond_type
C2    C11   S    
C16   C23   A    
C36   O24   D    
C31   C32   A    
C35   O23   D    
O1    C5    A    
O3    C7    A    
C14   C25   A    
C29   C30   A    
O7    C3    A    
O5    C1    A    
C26   C30   A    
C25   C34   S    
O20   V4    S    
C18   C29   A    
O8    V4    S    
O4    C8    A    
C33   O21   D    
O3    V1    S    
O17   V1    S    
C34   O22   D    
C18   C22   A    
C20   H12   S    
C14   C21   A    
C1    O15   A    
C2    O16   A    
C22   H5    S    
O5    V1    S    
O2    C6    A    
C8    C14   S    
O19   V1    S    
O11   C7    A    
C36   H4    S    
O12   C8    A    
O13   V1    S    
O11   V3    S    
C19   H11   S    
C23   H8    S    
O4    V2    S    
C18   H10   S    
O18   V2    S    
C3    C10   S    
C9    C10   T    
C7    C13   S    
O6    V2    S    
C34   H2    S    
C27   C36   S    
O20   V2    S    
O9    V1    S    
C5    C15   S    
O8    C4    A    
C6    C16   S    
O9    C5    A    
O14   V2    S    
O19   V3    S    
C24   H7    S    
O1    V3    S    
O2    V4    S    
C3    O13   A    
C21   H6    S    
C26   C33   S    
O7    V3    S    
C28   C35   S    
O10   V2    S    
C16   C27   A    
O17   V3    S    
O18   V4    S    
C4    C9    S    
O10   C6    A    
O15   V3    S    
O12   V4    S    
C13   C26   A    
C20   C31   A    
C33   H1    S    
C25   C29   A    
C15   C28   A    
C27   C31   A    
C17   C30   A    
O6    C2    A    
C17   H9    S    
C35   H3    S    
O16   V4    S    
C28   C32   A    
C19   C32   A    
C4    O14   A    
C11   C12   T    
C17   C21   A    
C13   C22   A    
C19   C23   A    
C20   C24   A    
C1    C12   S    
C15   C24   A    
