data_mof_unit_57636.cif
_audit_creation_date              2012-12-10T17:49:37-0500
_audit_creation_method            fapswitch 2.2
_symmetry_space_group_name_H-M    P1
_symmetry_Int_Tables_number       1
_space_group_crystal_system       triclinic
_cell_length_a                    10.508759
_cell_length_b                    10.636699
_cell_length_c                    9.968536
_cell_angle_alpha                 90.162465
_cell_angle_beta                  90.157136
_cell_angle_gamma                 92.001392
_cell_volume                      1113.57935929

loop_
_atom_site_label
_atom_site_type_symbol
_atom_type_description
_atom_site_fract_x
_atom_site_fract_y
_atom_site_fract_z
_atom_type_partial_charge
C1    C     C_R   0.505176 0.260950 0.500014 0.841614
C2    C     C_3   0.964472 0.600669 0.432355 0.222620
C3    C     C_3   0.041561 0.494037 0.371960 -0.181731
C4    C     C_3   0.123203 0.499545 0.499490 -0.030293
C5    C     C_R   0.697305 0.138390 0.660822 -0.224614
C6    C     C_R   0.783340 0.077294 0.743599 0.181521
C7    C     C_R   0.783638 0.945920 0.742357 -0.179064
C8    C     C_R   0.698499 0.877060 0.660784 -0.233321
C9    C     C_R   0.606840 0.938132 0.582256 0.097871
C10   C     C_R   0.606382 0.069829 0.582185 0.066636
C11   C     C_R   0.516526 0.128878 0.499814 -0.082178
C12   C     C_R   0.257853 0.499131 0.499791 0.867813
C13   C     C_R   0.433141 0.061286 0.415908 -0.218546
C14   C     C_R   0.433384 0.933129 0.416138 -0.217950
C15   C     C_R   0.517018 0.872116 0.500262 -0.097385
C16   C     C_R   0.341092 0.326797 0.138137 -0.149826
C17   C     C_R   0.265652 0.239185 0.067232 -0.213788
C18   C     C_R   0.263995 0.240840 0.928446 -0.188011
C19   C     C_R   0.339694 0.328499 0.859401 -0.129886
C20   C     C_R   0.422319 0.414392 0.927387 0.145361
C21   C     C_R   0.422865 0.413838 0.071637 0.129372
C22   C     C_R   0.570096 0.586496 0.070079 0.221514
C23   C     C_R   0.506231 0.739321 0.500224 0.865737
C24   C     C_R   0.571487 0.583875 0.927539 -0.125511
C25   C     C_R   0.742427 0.502281 0.500332 0.840392
C26   C     C_3   0.038843 0.400149 0.570026 -0.196353
C27   C     C_3   0.954467 0.396058 0.443463 0.092059
C28   C     C_3   0.877794 0.502756 0.501154 -0.023569
C29   C     C_3   0.960657 0.507924 0.628488 -0.204575
C30   C     C_3   0.048611 0.607219 0.558755 -0.165128
H1    H     H_    0.852047 0.896375 0.801939 0.128431
H2    H     H_    0.707379 0.776198 0.658608 0.157929
H3    H     H_    0.365388 0.881126 0.353279 0.158283
H4    H     H_    0.330971 0.325369 0.244429 0.194040
H5    H     H_    0.206452 0.170619 0.120003 0.141378
H6    H     H_    0.202313 0.174893 0.873827 0.142412
H7    H     H_    0.329531 0.327374 0.753118 0.198102
H8    H     H_    0.628293 0.652970 0.872425 0.151617
H9    H     H_    0.079070 0.319805 0.624310 0.115544
H10   H     H_    0.923754 0.514267 0.732396 0.159163
H11   H     H_    0.091729 0.693696 0.605220 0.138015
H12   H     H_    0.077343 0.487764 0.267487 0.152800
H13   H     H_    0.364846 0.107832 0.353097 0.143887
H14   H     H_    0.705345 0.239681 0.656048 0.160759
N1    N     N_R   0.498800 0.498800 0.142780 -0.124781
N2    N     N_R   0.498760 0.498720 0.857170 -0.142604
O1    O     O_R   0.500000 0.316780 0.614690 -0.643701
O2    O     O_R   0.499990 0.316750 0.385360 -0.631414
O3    O     O_R   0.313960 0.499980 0.614650 -0.629105
O4    O     O_R   0.313940 0.499960 0.385310 -0.639243
O5    O     O_R   0.500010 0.683250 0.614640 -0.615258
O6    O     O_R   0.500000 0.683220 0.385310 -0.616948
O7    O     O_R   0.686060 0.500040 0.614690 -0.639251
O8    O     O_R   0.686040 0.500020 0.385350 -0.623435
Zn1   Zn    Zn3+2 0.500010 0.500020 0.653130 0.916673
Zn2   Zn    Zn3+2 0.499990 0.499980 0.346870 0.920839
C31   C     C_3   0.895258 0.276964 0.379753 -0.400072
C32   C     C_3   0.995744 0.179257 0.354371 -0.362669
C33   C     C_3   0.937671 0.062316 0.285843 -0.876644
H15   H     H_    0.867120 0.014557 0.353044 0.275754
H16   H     H_    0.889918 0.087523 0.190708 0.266994
H17   H     H_    0.014153 0.996462 0.262342 0.242424
H18   H     H_    0.071991 0.221219 0.290366 0.210477
H19   H     H_    0.039088 0.150898 0.451017 0.219113
H20   H     H_    0.821424 0.236789 0.447578 0.195432
H21   H     H_    0.848258 0.302405 0.284294 0.219166
C34   C     C_3   0.639533 0.694698 0.137417 -0.840788
H22   H     H_    0.715670 0.735814 0.072137 0.195892
H23   H     H_    0.571648 0.769450 0.159921 0.250303
H24   H     H_    0.685205 0.664678 0.230300 0.281492
C35   C     C_3   0.926723 0.716612 0.355492 -0.960314
H25   H     H_    0.009917 0.783391 0.349592 0.246570
H26   H     H_    0.898504 0.689418 0.252038 0.247591
H27   H     H_    0.847359 0.762692 0.407318 0.240466
C36   C     C_3   0.880619 0.152744 0.824969 -0.456668
C37   C     C_3   0.818731 0.242491 0.924620 -0.320256
C38   C     C_3   0.919419 0.324815 0.996710 -0.898498
H28   H     H_    0.981822 0.265887 0.058464 0.272062
H29   H     H_    0.979181 0.378241 0.923200 0.265991
H30   H     H_    0.872224 0.393146 0.062899 0.250793
H31   H     H_    0.753280 0.305538 0.871700 0.231959
H32   H     H_    0.762610 0.187234 0.999777 0.224879
H33   H     H_    0.943529 0.089389 0.881218 0.193886
H34   H     H_    0.941344 0.207848 0.754471 0.199755

loop_
_geom_bond_atom_site_label_1
_geom_bond_atom_site_label_2
_ccdc_geom_bond_type
C8    C9    A    
C3    H12   S    
C16   C21   A    
O7    Zn1   S    
C19   C20   A    
C1    C11   S    
C31   H21   S    
C14   H3    S    
C12   O3    A    
C31   C32   S    
C7    C8    A    
C38   H28   S    
C25   C28   S    
C26   C27   S    
C28   C29   S    
C25   O7    A    
C5    C6    A    
C26   H9    S    
C18   C19   A    
C19   H7    S    
C16   H4    S    
N1    Zn2   S    
C16   C17   A    
N2    Zn1   S    
C24   H8    S    
C30   H11   S    
C4    C12   S    
C9    C10   A    
C15   C23   S    
C33   H15   S    
C13   C14   A    
C21   N1    A    
C38   H29   S    
C32   H19   S    
O8    Zn2   S    
C33   H16   S    
C7    H1    S    
C34   H22   S    
C8    H2    S    
C6    C36   S    
C25   O8    A    
C27   C31   S    
C37   H32   S    
C35   H26   S    
C1    O1    A    
C32   C33   S    
O3    Zn1   S    
O4    Zn2   S    
C3    C4    S    
C34   H23   S    
C36   C37   S    
C29   C30   S    
C23   O5    A    
C17   C18   A    
C37   C38   S    
C5    H14   S    
C22   C24   A    
C2    C35   S    
C13   H13   S    
O1    Zn1   S    
C38   H30   S    
C32   H18   S    
O2    Zn2   S    
C33   H17   S    
C31   H20   S    
C37   H31   S    
C35   H27   S    
C4    C26   S    
C1    O2    A    
C6    C7    A    
C2    C30   S    
C34   H24   S    
C24   N2    A    
C3    C27   S    
C2    C3    S    
C9    C15   A    
C5    C10   A    
C11   C13   A    
C36   H33   S    
C23   O6    A    
C29   H10   S    
O5    Zn1   S    
C36   H34   S    
C4    C30   S    
C22   C34   S    
C10   C11   A    
C35   H25   S    
C22   N1    A    
C20   C21   A    
C26   C29   S    
C27   C28   S    
C14   C15   A    
C2    C28   S    
C17   H5    S    
C18   H6    S    
C12   O4    A    
C20   N2    A    
O6    Zn2   S    
