data_mof_unit_45706.cif
_audit_creation_date              2012-12-11T17:37:50-0500
_audit_creation_method            fapswitch 2.2
_symmetry_space_group_name_H-M    P1
_symmetry_Int_Tables_number       1
_space_group_crystal_system       triclinic
_cell_length_a                    13.041422
_cell_length_b                    13.061407
_cell_length_c                    15.485499
_cell_angle_alpha                 117.741577
_cell_angle_beta                  63.441735
_cell_angle_gamma                 98.02558
_cell_volume                      2080.41244376

loop_
_atom_site_label
_atom_site_type_symbol
_atom_type_description
_atom_site_fract_x
_atom_site_fract_y
_atom_site_fract_z
_atom_type_partial_charge
C1    C     C_R   0.997890 0.832595 0.060330 -0.113793
C2    C     C_R   0.301653 0.590399 0.790007 -0.151598
C3    C     C_R   0.259054 0.417453 0.047665 -0.153396
C4    C     C_R   0.679052 0.476858 0.219610 -0.138310
C5    C     C_R   0.053871 0.275626 0.684716 -0.107204
C6    C     C_R   0.361706 0.435271 0.974939 0.152510
C7    C     C_R   0.045250 0.164143 0.677334 0.067444
C8    C     C_R   0.301926 0.554232 0.690801 0.064694
C9    C     C_R   0.004615 0.152159 0.044378 0.029864
C10   C     C_R   0.352112 0.029782 0.137969 -0.105370
C11   C     C_R   0.318928 0.991592 0.216493 -0.173315
C12   C     C_R   0.672547 0.556493 0.320569 0.041529
C13   C     C_R   0.205301 0.015935 0.297635 0.019005
C14   C     C_R   0.124027 0.081438 0.300935 -0.069273
C15   C     C_R   0.159585 0.119187 0.221219 -0.222447
C16   C     C_R   0.755934 0.518363 0.893257 -0.169794
C17   C     C_R   0.272594 0.093420 0.140329 -0.101322
C18   C     C_R   0.169156 0.065470 0.480890 -0.221806
C19   C     C_R   0.100413 0.055218 0.576134 0.084086
C20   C     C_R   0.075177 0.942252 0.566476 0.037759
C21   C     C_R   0.102884 0.849869 0.464168 -0.245196
C22   C     C_R   0.131098 0.871567 0.376185 0.086189
C23   C     C_R   0.662693 0.458257 0.925806 0.159407
C24   C     C_R   0.175046 0.979043 0.382178 0.076088
C25   C     C_R   0.042441 0.915411 0.725823 -0.179099
C26   C     C_R   0.968085 0.897071 0.814991 -0.144011
C27   C     C_R   0.852528 0.880430 0.835664 -0.122456
C28   C     C_R   0.022584 0.700691 0.299369 -0.141714
C29   C     C_R   0.811894 0.878592 0.765648 -0.132807
C30   C     C_R   0.885780 0.896667 0.676469 -0.156012
C31   C     C_R   0.000679 0.917627 0.657627 0.117761
C32   C     C_R   0.862995 0.369692 0.356687 -0.044213
C33   C     C_R   0.746693 0.403189 0.401101 -0.143230
C34   C     C_R   0.086986 0.794411 0.296481 0.110786
C35   C     C_R   0.703396 0.517623 0.480771 0.118248
C36   C     C_R   0.773389 0.593615 0.525035 -0.193375
C37   C     C_R   0.890260 0.560419 0.478439 -0.161524
C38   C     C_R   0.935688 0.449775 0.391927 -0.066915
C39   C     C_R   0.500379 0.571960 0.594338 -0.249190
C40   C     C_R   0.676387 0.421201 0.990103 -0.121927
C41   C     C_R   0.389706 0.576749 0.604206 0.069044
C42   C     C_R   0.370575 0.586609 0.524908 0.024171
C43   C     C_R   0.465006 0.590661 0.436579 -0.249798
C44   C     C_R   0.576001 0.576226 0.423272 0.073486
C45   C     C_R   0.338322 0.515828 0.950368 -0.117791
C46   C     C_R   0.593116 0.562974 0.501825 0.022014
C47   C     C_R   0.243092 0.464461 0.445266 -0.185868
C48   C     C_R   0.133459 0.425892 0.464430 -0.146533
C49   C     C_R   0.037787 0.494933 0.558061 -0.121582
C50   C     C_R   0.050559 0.606161 0.628657 -0.133427
C51   C     C_R   0.160493 0.644718 0.610773 -0.126871
C52   C     C_R   0.103400 0.796839 0.203238 -0.140351
C53   C     C_R   0.257672 0.570869 0.522279 0.111694
C54   C     C_2   0.474674 0.394215 0.947495 -0.199198
C55   C     C_2   0.567837 0.437977 0.897074 -0.195432
C56   C     C_R   0.972486 0.177924 0.781284 -0.138955
C57   C     C_2   0.823721 0.956403 0.111567 -0.210596
C58   C     C_2   0.825783 0.046907 0.199735 -0.150945
C59   C     C_R   0.783196 0.576149 0.309355 -0.088384
C60   C     C_R   0.894720 0.747624 0.966610 -0.161149
C61   C     C_R   0.906087 0.852109 0.045640 0.124115
C62   C     C_2   0.002331 0.111489 0.385282 0.947875
C63   C     C_R   0.206188 0.494675 0.690979 -0.139942
C64   C     C_R   0.051713 0.255279 0.086399 -0.134376
C65   C     C_R   0.947557 0.172601 0.995864 -0.118976
H1    H     H_    0.027075 0.893458 0.119453 0.104750
H2    H     H_    0.439752 0.010331 0.075378 0.102432
H3    H     H_    0.381760 0.943064 0.214253 0.119868
H4    H     H_    0.608641 0.440281 0.199209 0.098587
H5    H     H_    0.099245 0.168052 0.221210 0.138546
H6    H     H_    0.202422 0.146991 0.483788 0.116325
H7    H     H_    0.081926 0.764779 0.458870 0.122229
H8    H     H_    0.131020 0.930921 0.711612 0.119492
H9    H     H_    0.999988 0.897974 0.868775 0.134634
H10   H     H_    0.793705 0.869394 0.905867 0.097306
H11   H     H_    0.722857 0.864544 0.781220 0.107594
H12   H     H_    0.939539 0.113916 0.808776 0.131922
H13   H     H_    0.853138 0.896782 0.623296 0.133176
H14   H     H_    0.027135 0.426086 0.351558 0.109369
H15   H     H_    0.778667 0.546525 0.831820 0.094469
H16   H     H_    0.897384 0.283292 0.291952 0.132120
H17   H     H_    0.692672 0.343467 0.367390 0.118673
H18   H     H_    0.740559 0.681924 0.586741 0.119915
H19   H     H_    0.946304 0.622509 0.506254 0.136424
H20   H     H_    0.515825 0.558335 0.651715 0.128899
H21   H     H_    0.452354 0.595197 0.373761 0.132899
H22   H     H_    0.317056 0.405910 0.377046 0.124035
H23   H     H_    0.177948 0.456023 0.628796 0.135029
H24   H     H_    0.123428 0.340284 0.409343 0.156302
H25   H     H_    0.953580 0.462354 0.575829 0.149675
H26   H     H_    0.975965 0.658672 0.700743 0.137714
H27   H     H_    0.006279 0.662055 0.351652 0.095789
H28   H     H_    0.170990 0.725081 0.672026 0.115674
H29   H     H_    0.477199 0.348002 0.989345 0.122459
H30   H     H_    0.566409 0.480755 0.852088 0.124710
H31   H     H_    0.755705 0.958641 0.090251 0.131861
H32   H     H_    0.889560 0.050889 0.227863 0.147494
H33   H     H_    0.628916 0.359038 0.017394 0.082308
H34   H     H_    0.090835 0.275246 0.140123 0.078481
H35   H     H_    0.165004 0.842227 0.162709 0.115002
H36   H     H_    0.808947 0.638424 0.370260 0.121311
H37   H     H_    0.826792 0.730067 0.941364 0.102751
H38   H     H_    0.397496 0.553310 0.899695 0.088517
H39   H     H_    0.858261 0.219879 0.468855 0.329078
H40   H     H_    0.887536 0.117333 0.968915 0.111899
H41   H     H_    0.356546 0.650559 0.821820 0.093226
H42   H     H_    0.248603 0.364231 0.086878 0.093440
H43   H     H_    0.096600 0.298901 0.619756 0.092997
H44   H     H_    0.298525 0.123010 0.079391 0.106249
N1    N     N_R   0.037320 0.720000 0.995830 -0.046139
N2    N     N_R   0.824900 0.517970 0.936430 -0.038011
N3    N     N_R   0.003190 0.648180 0.211390 -0.041766
N4    N     N_R   0.774330 0.457010 0.995830 -0.042714
N5    N     N_R   0.053760 0.709130 0.151980 -0.043174
N6    N     N_R   0.853840 0.498830 0.211390 -0.043078
N7    N     N_R   0.974250 0.667320 0.936430 -0.039195
N8    N     N_R   0.225670 0.542990 0.004170 -0.047227
N9    N     N_R   0.946240 0.290870 0.848020 -0.044088
N10   N     N_R   0.146160 0.501170 0.788610 -0.040564
N11   N     N_R   0.025750 0.332680 0.063570 -0.035057
N12   N     N_R   0.962680 0.280000 0.004170 -0.043284
N13   N     N_R   0.209230 0.553860 0.848010 -0.037745
N14   N     N_R   0.175100 0.482030 0.063570 -0.041277
N15   N     N_R   0.996810 0.351820 0.788610 -0.040993
N16   N     N_R   0.790770 0.446140 0.151990 -0.043081
Ni1   Ni    Ni4+2 0.130310 0.630310 0.000000 0.209817
Ni2   Ni    Ni4+2 0.869690 0.369690 0.000000 0.212124
Ni3   Ni    Ni4+2 0.985660 0.509480 0.863750 0.217580
Ni4   Ni    Ni4+2 0.014340 0.490520 0.136250 0.214311
O1    O     O_2   0.955794 0.051986 0.431958 -0.642241
O2    O     O_R   0.939835 0.208018 0.410543 -0.848125

loop_
_geom_bond_atom_site_label_1
_geom_bond_atom_site_label_2
_ccdc_geom_bond_type
C25   C31   A    
C36   H18   S    
C6    C45   A    
C63   H23   S    
C27   C29   A    
C9    C64   A    
C41   C42   A    
C62   O1    D    
C19   C20   A    
C49   H25   S    
C3    C6    A    
N3    N5    A    
C39   C41   A    
C29   H11   S    
C10   H2    S    
C28   N3    A    
C32   H16   S    
C5    N15   A    
C26   C27   A    
C29   C30   A    
C4    N16   A    
C18   C24   A    
C30   H13   S    
C36   C37   A    
N12   Ni2   S    
C42   C53   S    
C40   H33   S    
C30   C31   A    
N5    Ni1   S    
C27   H10   S    
C38   H14   S    
C10   C17   A    
C23   C40   A    
C14   C62   S    
C18   C19   A    
C34   C52   A    
C45   H38   S    
C26   H9    S    
C12   C59   A    
C64   H34   S    
C35   C36   A    
C3    N14   A    
H39   O2    S    
C37   H19   S    
C32   C38   A    
N3    Ni4   S    
C4    C12   A    
N8    Ni1   S    
C47   C53   A    
N10   Ni3   S    
C28   C34   A    
C13   C14   A    
N14   Ni4   S    
C58   H32   S    
C7    C56   A    
C6    C54   S    
C60   H37   S    
C65   H40   S    
C4    H4    S    
C44   C46   A    
C1    H1    S    
C2    N13   A    
C22   C34   S    
C21   H7    S    
N11   Ni4   S    
C59   H36   S    
C47   C48   A    
C8    C41   S    
C55   H30   S    
C5    C7    A    
C11   H3    S    
C3    H42   S    
C25   C26   A    
C2    H41   S    
C56   H12   S    
C13   C24   S    
C17   H44   S    
C60   C61   A    
C16   H15   S    
C47   H22   S    
N13   Ni1   S    
C43   C44   A    
C37   C38   A    
C1    N1    A    
C63   N10   A    
C40   N4    A    
C50   C51   A    
N2    N4    A    
N9    N15   A    
C57   C61   S    
N1    Ni1   S    
C39   C46   A    
C48   C49   A    
C51   H28   S    
C16   C23   A    
C65   N12   A    
C48   H24   S    
N7    Ni3   S    
C22   C24   A    
C60   N7    A    
N9    Ni2   S    
C39   H20   S    
N1    N7    A    
N11   N12   A    
N6    Ni4   S    
N10   N13   A    
C45   N8    A    
C18   H6    S    
C15   C17   A    
C15   H5    S    
C54   C55   D    
C43   H21   S    
C56   N9    A    
C62   O2    S    
C2    C8    A    
C1    C61   A    
C23   C55   S    
N4    Ni2   S    
C52   N5    A    
C7    C19   S    
C64   N11   A    
N15   Ni3   S    
C32   C33   A    
N8    N14   A    
C12   C44   S    
C11   C13   A    
C57   C58   D    
N6    N16   A    
C33   C35   A    
C52   H35   S    
C25   H8    S    
C33   H17   S    
C9    C65   A    
C54   H29   S    
C10   C11   A    
C8    C63   A    
C28   H27   S    
C50   H26   S    
C20   C21   A    
C59   N6    A    
C49   C50   A    
C42   C43   A    
N2    Ni3   S    
N16   Ni2   S    
C14   C15   A    
C57   H31   S    
C51   C53   A    
C21   C22   A    
C35   C46   S    
C5    H43   S    
C16   N2    A    
C20   C31   S    
