data_mof_unit_20134.cif
_audit_creation_date              2012-10-26T18:54:57-0400
_audit_creation_method            fapswitch 2.2
_symmetry_space_group_name_H-M    P1
_symmetry_Int_Tables_number       1
_space_group_crystal_system       triclinic
_cell_length_a                    10.859214
_cell_length_b                    9.498487
_cell_length_c                    10.815302
_cell_angle_alpha                 90.24496
_cell_angle_beta                  90.232968
_cell_angle_gamma                 89.826855
_cell_volume                      1115.53180179

loop_
_atom_site_label
_atom_site_type_symbol
_atom_type_description
_atom_site_fract_x
_atom_site_fract_y
_atom_site_fract_z
_atom_type_partial_charge
C1    C     C_R   0.261921 0.501024 0.503508 0.555008
C2    C     C_R   0.490419 0.622818 0.937095 -0.035321
C3    C     C_R   0.517800 0.499628 0.128964 -0.025518
C4    C     C_R   0.520884 0.502184 0.870370 -0.032703
C5    C     C_R   0.566291 0.382139 0.063981 0.254407
C6    C     C_R   0.573941 0.387170 0.933857 0.244432
C7    C     C_3   0.380046 0.716454 0.929601 -0.262498
C8    C     C_3   0.379630 0.716062 0.070128 -0.257827
C9    C     C_R   0.063721 0.381572 0.534615 -0.209259
C10   C     C_R   0.936431 0.381057 0.532860 -0.213176
C11   C     C_R   0.871686 0.502006 0.497455 -0.012379
C12   C     C_R   0.737893 0.500057 0.497201 0.572604
C13   C     C_R   0.127756 0.505481 0.508670 -0.022649
C14   C     C_R   0.934706 0.626574 0.466946 0.282849
C15   C     C_R   0.062436 0.631948 0.484030 0.277449
C16   C     C_3   0.530099 0.153102 0.114103 -0.075920
C17   C     C_3   0.751288 0.308511 0.848624 -0.105525
C18   C     C_3   0.858914 0.854137 0.466952 -0.064015
C19   C     C_3   0.140461 0.824905 0.581196 -0.118576
C20   C     C_R   0.427097 0.074322 0.419469 0.002537
C21   C     C_R   0.571609 0.074592 0.581647 0.007356
C22   C     C_R   0.427766 0.925359 0.418832 0.010268
C23   C     C_R   0.570528 0.925689 0.582601 -0.009375
C24   C     C_R   0.503630 0.499576 0.262136 0.580238
C25   C     C_R   0.504680 0.500367 0.737631 0.553732
C26   C     C_R   0.490142 0.622096 0.063836 -0.027949
Cu1   Cu    Cu3+1 0.500000 0.640660 0.500000 0.958407
Cu2   Cu    Cu3+1 0.500000 0.359340 0.500000 0.967286
H1    H     H_    0.402425 0.821025 0.889875 0.142233
H2    H     H_    0.627058 0.869573 0.648685 0.107013
H3    H     H_    0.533997 0.107269 0.019592 0.158518
H4    H     H_    0.433691 0.183767 0.136857 0.088481
H5    H     H_    0.558168 0.069035 0.179354 0.133988
H6    H     H_    0.802418 0.324163 0.937053 0.145458
H7    H     H_    0.760560 0.402881 0.788709 0.104184
H8    H     H_    0.794765 0.218631 0.799447 0.113340
H9    H     H_    0.842091 0.834752 0.567011 0.073649
H10   H     H_    0.777161 0.910108 0.429784 0.146906
H11   H     H_    0.938160 0.925694 0.453574 0.150573
H12   H     H_    0.297985 0.662853 0.110217 0.143987
H13   H     H_    0.185188 0.928172 0.565845 0.134167
H14   H     H_    0.201066 0.762767 0.643633 0.134936
H15   H     H_    0.052098 0.844899 0.629589 0.069727
H16   H     H_    0.298841 0.663083 0.887724 0.125499
H17   H     H_    0.401766 0.820493 0.111244 0.127922
H18   H     H_    0.112032 0.285044 0.557295 0.144364
H19   H     H_    0.888716 0.284997 0.556835 0.133496
H20   H     H_    0.368305 0.130458 0.355439 0.106357
H21   H     H_    0.629629 0.130837 0.646308 0.143096
H22   H     H_    0.369811 0.868989 0.353989 0.135646
N1    N     N_R   0.500000 0.852070 0.500000 -0.228542
N2    N     N_R   0.500000 0.147940 0.500000 -0.223704
O1    O     O_R   0.319640 0.618740 0.499990 -0.468950
O2    O     O_3   0.626574 0.276077 0.869991 -0.563907
O3    O     O_3   0.875047 0.729347 0.397746 -0.527725
O4    O     O_3   0.122966 0.757987 0.465092 -0.546353
O5    O     O_R   0.680360 0.618740 0.500010 -0.475857
O6    O     O_R   0.319620 0.381170 0.499990 -0.522253
O7    O     O_R   0.680380 0.381170 0.500010 -0.510209
O8    O     O_R   0.499990 0.618810 0.319660 -0.500308
O9    O     O_R   0.500010 0.618810 0.680340 -0.523832
O10   O     O_R   0.499960 0.381240 0.319650 -0.469228
O11   O     O_R   0.500040 0.381240 0.680350 -0.466487
O12   O     O_3   0.612432 0.267029 0.127510 -0.530067

loop_
_geom_bond_atom_site_label_1
_geom_bond_atom_site_label_2
_ccdc_geom_bond_type
C19   O4    S    
C2    C4    A    
C11   C12   S    
Cu1   O1    S    
Cu2   O10   S    
C7    H1    S    
C17   H8    S    
Cu2   O6    S    
C16   H5    S    
C16   H4    S    
C16   O12   S    
C9    C10   A    
C23   N1    A    
C2    C7    S    
C14   C15   A    
C19   H14   S    
C24   O8    A    
C22   H22   S    
C10   C11   A    
C15   O4    S    
C21   H21   S    
C4    C25   S    
C18   H10   S    
C9    H18   S    
C2    C26   A    
C25   O9    A    
C1    O6    A    
C16   H3    S    
C1    O1    A    
Cu2   N2    S    
C3    C24   S    
C20   H20   S    
C18   O3    S    
C6    O2    S    
C12   O5    A    
C4    C6    A    
Cu1   N1    S    
C18   H9    S    
C19   H15   S    
C14   O3    S    
Cu1   O8    S    
C13   C15   A    
C21   C23   A    
C25   O11   A    
C5    C6    A    
C11   C14   A    
C10   H19   S    
C1    C13   S    
C17   H6    S    
C23   H2    S    
C7    C8    S    
C17   H7    S    
C8    C26   S    
C20   N2    A    
Cu1   O5    S    
Cu2   O7    S    
Cu1   Cu2   S    
C3    C26   A    
C18   H11   S    
C9    C13   A    
Cu2   O11   S    
C24   O10   A    
C8    H12   S    
C7    H16   S    
C8    H17   S    
C12   O7    A    
C17   O2    S    
C21   N2    A    
C19   H13   S    
C5    O12   S    
C20   C22   A    
C22   N1    A    
C3    C5    A    
Cu1   O9    S    
