data_mof_unit_8227.cif
_audit_creation_date              2012-12-10T20:00:05-0500
_audit_creation_method            fapswitch 2.2
_symmetry_space_group_name_H-M    P1
_symmetry_Int_Tables_number       1
_space_group_crystal_system       triclinic
_cell_length_a                    15.125088
_cell_length_b                    14.186242
_cell_length_c                    8.913404
_cell_angle_alpha                 89.999244
_cell_angle_beta                  90.021828
_cell_angle_gamma                 90.024556
_cell_volume                      1912.53236888

loop_
_atom_site_label
_atom_site_type_symbol
_atom_type_description
_atom_site_fract_x
_atom_site_fract_y
_atom_site_fract_z
_atom_type_partial_charge
C1    C     C_R   0.327539 0.499900 0.501049 0.931401
C2    C     C_R   0.468347 0.894281 0.376142 -0.299727
C3    C     C_R   0.499980 0.499998 0.218570 0.934052
C4    C     C_R   0.500022 0.499998 0.781430 0.933785
C5    C     C_R   0.500013 0.053371 0.500017 0.149989
C6    C     C_R   0.499990 0.946449 0.500021 0.156035
C7    C     C_1   0.499993 0.499992 0.065358 -0.194885
C8    C     C_1   0.500010 0.499991 0.934641 -0.194527
C9    C     C_R   0.091710 0.576205 0.456970 -0.314668
C10   C     C_R   0.906447 0.417458 0.458530 -0.289176
C11   C     C_R   0.907204 0.575280 0.561319 -0.313616
C12   C     C_R   0.672451 0.499940 0.499739 0.932533
C13   C     C_R   0.094365 0.417717 0.556995 -0.288579
C14   C     C_R   0.183633 0.581246 0.462881 0.433123
C15   C     C_R   0.814791 0.416405 0.460433 0.409806
C16   C     C_R   0.815584 0.580757 0.548251 0.431483
C17   C     C_R   0.185862 0.416340 0.548113 0.409789
C18   C     C_R   0.231242 0.499221 0.503710 -0.256712
C19   C     C_R   0.768715 0.499247 0.502455 -0.255623
C20   C     C_R   0.047693 0.496349 0.508473 0.058106
C21   C     C_R   0.952175 0.495724 0.511325 0.057811
C22   C     C_3   0.191073 0.743595 0.489551 0.103545
C23   C     C_R   0.494533 0.204479 0.367951 -0.000128
C24   C     C_3   0.259465 0.821886 0.494903 -0.800655
C25   C     C_3   0.776579 0.263819 0.509478 0.132957
C26   C     C_3   0.742801 0.173555 0.437506 -0.812870
C27   C     C_3   0.808816 0.742615 0.517773 0.104104
C28   C     C_3   0.740975 0.821254 0.508751 -0.801416
C29   C     C_3   0.222439 0.264599 0.490567 0.132190
C30   C     C_3   0.256774 0.172923 0.556920 -0.813627
C31   C     C_R   0.530156 0.795327 0.622126 0.016275
C32   C     C_R   0.505481 0.204492 0.632061 0.001376
C33   C     C_R   0.469802 0.795308 0.377906 0.016325
C34   C     C_R   0.495649 0.105525 0.365270 -0.296565
C35   C     C_R   0.531606 0.894300 0.623908 -0.300331
C36   C     C_R   0.504388 0.105535 0.634759 -0.297146
H1    H     H_    0.490741 0.242685 0.263304 0.139900
H2    H     H_    0.559370 0.928643 0.721264 0.132593
H3    H     H_    0.505442 0.071194 0.742876 0.133748
H4    H     H_    0.440569 0.928609 0.278804 0.132601
H5    H     H_    0.169737 0.729165 0.607228 0.130020
H6    H     H_    0.133833 0.769662 0.423249 0.131204
H7    H     H_    0.230126 0.886002 0.546147 0.196126
H8    H     H_    0.316776 0.799348 0.563917 0.267125
H9    H     H_    0.281717 0.839204 0.379484 0.250821
H10   H     H_    0.734962 0.279912 0.609229 0.151901
H11   H     H_    0.845703 0.250522 0.547211 0.112594
H12   H     H_    0.555093 0.756707 0.717772 0.149302
H13   H     H_    0.786755 0.152803 0.343364 0.242530
H14   H     H_    0.741467 0.115868 0.521721 0.201489
H15   H     H_    0.675111 0.184476 0.393537 0.273521
H16   H     H_    0.831322 0.727133 0.401067 0.129935
H17   H     H_    0.865523 0.768898 0.585217 0.130723
H18   H     H_    0.771179 0.884686 0.456715 0.195992
H19   H     H_    0.684136 0.798412 0.438824 0.267422
H20   H     H_    0.717841 0.839819 0.623160 0.250494
H21   H     H_    0.262320 0.282021 0.389337 0.151581
H22   H     H_    0.152543 0.252433 0.455990 0.112689
H23   H     H_    0.509272 0.242708 0.736700 0.139841
H24   H     H_    0.214648 0.151169 0.652899 0.242932
H25   H     H_    0.255687 0.116548 0.470482 0.201017
H26   H     H_    0.325475 0.182463 0.596988 0.274219
H27   H     H_    0.444855 0.756672 0.282263 0.148405
H28   H     H_    0.054049 0.634956 0.413214 0.139410
H29   H     H_    0.941862 0.357018 0.414735 0.154492
H30   H     H_    0.943986 0.633894 0.607755 0.140666
H31   H     H_    0.059774 0.356817 0.601190 0.154985
H32   H     H_    0.494600 0.071177 0.257159 0.133704
N1    N     N_R   0.500000 0.252470 0.500000 -0.086364
N2    N     N_R   0.500000 0.747530 0.500000 -0.094237
O1    O     O_R   0.369060 0.579480 0.500010 -0.570832
O2    O     O_3   0.770996 0.338242 0.404212 -0.583849
O3    O     O_3   0.770707 0.662684 0.588161 -0.584262
O4    O     O_3   0.230567 0.337249 0.598486 -0.582977
O5    O     O_R   0.630940 0.420520 0.499990 -0.591985
O6    O     O_R   0.630940 0.579480 0.499990 -0.571282
O7    O     O_R   0.369060 0.420520 0.500010 -0.590839
O8    O     O_R   0.500000 0.579460 0.285340 -0.630917
O9    O     O_R   0.500000 0.420540 0.714660 -0.633862
O10   O     O_R   0.500000 0.579460 0.714660 -0.630716
O11   O     O_R   0.500000 0.420540 0.285340 -0.633803
O12   O     O_3   0.227974 0.662916 0.419591 -0.584372
Zn1   Zn    Zn3+2 0.500000 0.606140 0.500000 0.977261
Zn2   Zn    Zn3+2 0.500000 0.393860 0.500000 0.964621

loop_
_geom_bond_atom_site_label_1
_geom_bond_atom_site_label_2
_ccdc_geom_bond_type
C9    H28   S    
C1    O7    A    
C14   C18   A    
C4    C8    S    
C28   H20   S    
C7    C8    T    
C15   C19   A    
C15   O2    S    
C1    C18   S    
C1    O1    A    
C5    C6    S    
C24   H9    S    
C32   C36   A    
C4    O10   A    
C3    C7    S    
C10   C15   A    
C26   H14   S    
O9    Zn2   S    
O5    Zn2   S    
C22   H5    S    
C5    C36   A    
C6    C35   A    
C23   N1    A    
O8    Zn1   S    
C31   N2    A    
C30   H24   S    
C3    O11   A    
C25   H11   S    
C11   H30   S    
C2    C6    A    
O10   Zn1   S    
O6    Zn1   S    
C28   H19   S    
O1    Zn1   S    
C10   C21   A    
C16   O3    S    
C35   H2    S    
C4    O9    A    
C26   H13   S    
C34   H32   S    
C28   H18   S    
C29   O4    S    
O7    Zn2   S    
C25   C26   S    
C23   H1    S    
C11   C21   A    
C9    C14   A    
C29   C30   S    
C11   C16   A    
C9    C20   A    
C33   H27   S    
C23   C34   A    
C5    C34   A    
C17   C18   A    
C25   O2    S    
C29   H22   S    
N2    Zn1   S    
C33   N2    A    
C2    C33   A    
C29   H21   S    
C31   H12   S    
C30   H26   S    
C17   O4    S    
C24   H8    S    
C22   C24   S    
C12   O5    A    
C14   O12   S    
C22   O12   S    
O11   Zn2   S    
C27   H16   S    
C13   H31   S    
C10   H29   S    
C13   C20   A    
C36   H3    S    
C27   H17   S    
C32   N1    A    
C13   C17   A    
C12   O6    A    
N1    Zn2   S    
C26   H15   S    
C22   H6    S    
C16   C19   A    
C12   C19   S    
C31   C35   A    
C2    H4    S    
C20   C21   S    
C30   H25   S    
C27   C28   S    
C24   H7    S    
C32   H23   S    
C27   O3    S    
C3    O8    A    
C25   H10   S    
