data_mof_unit_14566.cif
_audit_creation_date              2013-03-05T16:12:52-0500
_audit_creation_method            fapswitch 2.2
_symmetry_space_group_name_H-M    P1
_symmetry_Int_Tables_number       1
_space_group_crystal_system       triclinic
_cell_length_a                    10.610585
_cell_length_b                    9.939977
_cell_length_c                    27.747985
_cell_angle_alpha                 91.015965
_cell_angle_beta                  91.85551
_cell_angle_gamma                 90.382832
_cell_volume                      2924.47999101

loop_
_atom_site_label
_atom_site_type_symbol
_atom_site_description
_atom_site_fract_x
_atom_site_fract_y
_atom_site_fract_z
_atom_type_partial_charge
O1    O     O_R   0.316770 0.614620 0.500000 -0.644460
O2    O     O_R   0.683230 0.385380 0.500000 -0.630077
O3    O     O_R   0.683230 0.614620 0.500000 -0.638765
O4    O     O_R   0.316770 0.385380 0.500000 -0.623561
C1    C     C_R   0.260789 0.499545 0.500197 0.976373
C2    C     C_R   0.739232 0.500415 0.499844 0.977238
O5    O     O_R   0.500030 0.614650 0.428760 -0.660403
O6    O     O_R   0.499970 0.385350 0.571240 -0.667704
O7    O     O_R   0.499970 0.614650 0.571240 -0.583324
O8    O     O_R   0.500030 0.385350 0.428760 -0.588006
C3    C     C_R   0.500580 0.498567 0.406011 0.923675
C4    C     C_R   0.498354 0.501386 0.593897 0.927084
Zn1   Zn    Zn3+2 0.500000 0.653120 0.500000 0.970595
Zn2   Zn    Zn3+2 0.500000 0.346880 0.500000 0.975831
C5    C     C_R   0.396555 0.498988 0.176863 0.613710
C6    C     C_R   0.607073 0.513148 0.823074 0.631716
O9    O     O_2   0.290181 0.510917 0.201947 -0.427298
O10   O     O_2   0.713713 0.505057 0.797980 -0.422145
N1    N     N_R   0.509881 0.493670 0.201182 -0.357738
N2    N     N_R   0.493360 0.513527 0.798779 -0.358265
C7    C     C_R   0.620391 0.477743 0.178173 0.630614
C8    C     C_R   0.382739 0.527938 0.821931 0.612080
C9    C     C_R   0.512563 0.618353 0.278006 0.541818
C10   C     C_R   0.519863 0.388466 0.722814 0.542988
C11   C     C_R   0.509275 0.617296 0.328388 -0.372666
C12   C     C_R   0.521394 0.387828 0.672364 -0.384422
C13   C     C_R   0.504308 0.371630 0.326809 0.472043
C14   C     C_R   0.461163 0.624374 0.671745 0.473079
C15   C     C_R   0.507967 0.373930 0.276509 -0.290343
C16   C     C_R   0.461316 0.624448 0.722107 -0.284111
C17   C     C_R   0.511582 0.495771 0.252532 0.203750
C18   C     C_R   0.490793 0.508068 0.747326 0.195230
C19   C     C_R   0.505407 0.485945 0.101384 -0.208894
C20   C     C_R   0.498451 0.526676 0.898604 -0.209967
C21   C     C_R   0.391136 0.492861 0.126262 -0.055151
C22   C     C_R   0.612663 0.520710 0.873695 -0.059031
C23   C     C_R   0.275379 0.487483 0.100098 0.479612
C24   C     C_R   0.728395 0.528255 0.899864 0.480055
C25   C     C_R   0.620605 0.470147 0.127504 -0.116598
C26   C     C_R   0.383008 0.539603 0.872490 -0.112448
C27   C     C_R   0.504340 0.495087 0.353065 -0.127711
C28   C     C_R   0.493574 0.505107 0.646689 -0.124589
H1    H     H_    0.506905 0.280823 0.255583 0.167573
H2    H     H_    0.438663 0.715285 0.742092 0.172317
C29   C     C_R   0.385608 0.530947 0.974252 -0.003745
C30   C     C_R   0.618434 0.483654 0.025740 -0.004000
C31   C     C_R   0.616598 0.507461 0.975339 0.091985
C32   C     C_R   0.387420 0.507767 0.024683 0.091565
C33   C     C_R   0.500015 0.521141 0.949537 -0.011169
C34   C     C_R   0.503986 0.493122 0.050474 -0.011160
C35   C     C_R   0.274773 0.571006 0.948020 0.302751
C36   C     C_R   0.729232 0.442825 0.051833 0.303577
C37   C     C_R   0.273296 0.573042 0.897074 0.402761
C38   C     C_R   0.730356 0.437836 0.102739 0.402093
O11   O     O_2   0.273152 0.528794 0.795840 -0.433094
O12   O     O_2   0.729215 0.470855 0.204549 -0.428602
C39   C     C_R   0.275560 0.488499 0.049804 -0.233292
C40   C     C_R   0.728287 0.527643 0.950193 -0.231651
H3    H     H_    0.545446 0.296004 0.653263 0.183301
H4    H     H_    0.510540 0.712145 0.348188 0.211958
H5    H     H_    0.186992 0.468001 0.030926 0.184895
H6    H     H_    0.816686 0.548973 0.969090 0.184741
C41   C     C_R   0.063499 0.453335 0.458938 0.422204
C42   C     C_R   0.936575 0.545798 0.541235 0.406101
C43   C     C_R   0.932531 0.455725 0.457562 0.307461
C44   C     C_R   0.067547 0.543757 0.542562 0.302782
C45   C     C_R   0.871733 0.501562 0.499121 -0.309243
C46   C     C_R   0.128322 0.498160 0.500973 -0.317531
C47   C     C_R   0.584042 0.073812 0.528872 0.010173
C48   C     C_R   0.423378 0.926244 0.468196 0.023337
C49   C     C_R   0.416029 0.069975 0.471124 0.002307
C50   C     C_R   0.576232 0.930319 0.531896 -0.005001
N3    N     N_R   0.500000 0.857200 0.500000 -0.184954
N4    N     N_R   0.500000 0.142800 0.500000 -0.186087
O13   O     O_3   0.500379 0.250575 0.350505 -0.734447
H7    H     H_    0.500535 0.175219 0.326593 0.353427
O14   O     O_3   0.428096 0.738534 0.646698 -0.704479
H8    H     H_    0.408603 0.812037 0.669865 0.355814
C51   C     C_2   0.687720 0.147644 0.555040 0.537643
H9    H     H_    0.672146 0.242434 0.573064 0.105509
O15   O     O_2   0.794599 0.102701 0.556077 -0.534506
C52   C     C_2   0.352422 0.852281 0.429071 0.511051
H10   H     H_    0.307686 0.757031 0.435104 0.125093
O16   O     O_2   0.344655 0.897681 0.388477 -0.565185
C53   C     C_2   0.313848 0.140599 0.444491 0.588734
H11   H     H_    0.331027 0.234270 0.427012 0.159058
O17   O     O_2   0.206766 0.094563 0.442491 -0.531054
C54   C     C_2   0.646157 0.860650 0.571104 0.581598
H12   H     H_    0.686103 0.763041 0.565420 0.147974
O18   O     O_2   0.657709 0.911885 0.611351 -0.548094
O19   O     O_3   0.163280 0.476665 0.123891 -0.656864
H13   H     H_    0.091340 0.478600 0.100232 0.336323
O20   O     O_3   0.840367 0.539908 0.876045 -0.656762
H14   H     H_    0.912301 0.539518 0.899728 0.336184
O21   O     O_3   0.546543 0.274692 0.748985 -0.718751
H15   H     H_    0.564849 0.199494 0.726361 0.352385
O22   O     O_3   0.516150 0.736773 0.252809 -0.721162
H16   H     H_    0.515916 0.813763 0.276034 0.352962
O23   O     O_3   0.168456 0.615753 0.870842 -0.672361
H17   H     H_    0.125771 0.687137 0.889398 0.355143
O24   O     O_3   0.835162 0.393834 0.128693 -0.671611
H18   H     H_    0.878070 0.323648 0.109642 0.355925
O25   O     O_3   0.173065 0.620487 0.972308 -0.774419
H19   H     H_    0.094944 0.585972 0.955741 0.328572
O26   O     O_3   0.831378 0.395235 0.027352 -0.774886
H20   H     H_    0.909203 0.429434 0.044219 0.328690
O27   O     O_3   0.131934 0.412276 0.419634 -0.749787
H21   H     H_    0.074544 0.381096 0.392859 0.411505
O28   O     O_3   0.868183 0.586010 0.580652 -0.761265
H22   H     H_    0.925582 0.616120 0.607576 0.409853
O29   O     O_3   0.868275 0.414588 0.415504 -0.720702
H23   H     H_    0.778746 0.441059 0.416206 0.339853
O30   O     O_3   0.131826 0.585028 0.584602 -0.718151
H24   H     H_    0.221451 0.558979 0.583835 0.347019

loop_
_geom_bond_atom_site_label_1
_geom_bond_atom_site_label_2
_geom_bond_distance
_ccdc_geom_bond_type
C40   H6    1.077606 S    
C44   C46   1.409469 A    
C41   C43   1.389304 A    
O20   H14   0.991013 S    
C44   O30   1.386353 S    
C13   C15   1.398099 A    
C38   O24   1.382896 S    
O29   H23   0.988120 S    
O3    C2    1.284827 A    
N1    C17   1.424161 S    
O22   H16   0.991767 S    
C32   C39   1.409450 A    
C31   C33   1.417615 A    
O14   H8    0.991875 S    
C37   O23   1.382878 S    
O5    C3    1.305521 A    
O24   H18   0.990048 S    
O1    C1    1.285535 A    
Zn2   N4    2.028551 S    
N1    C7    1.361988 A    
C10   C12   1.400403 A    
C25   C38   1.407282 A    
C29   C35   1.425654 A    
C35   O25   1.379553 S    
C30   C36   1.425728 A    
O7    Zn1   2.020065 S    
C43   O29   1.386310 S    
C4    C28   1.467198 S    
C24   C40   1.396695 A    
O21   H15   0.991833 S    
C43   C45   1.409624 A    
O27   H21   0.989366 S    
C48   C49   1.432337 A    
C11   H4    1.082545 S    
C12   H3    1.083439 S    
O3    Zn1   1.983991 S    
C6    N2    1.363007 A    
C32   C34   1.418414 A    
O2    Zn2   1.978973 S    
C49   C53   1.480251 S    
C15   H1    1.083602 S    
C16   H2    1.083660 S    
O2    C2    1.285236 A    
C1    C46   1.406384 S    
C13   O13   1.382434 S    
C5    C21   1.403619 A    
C50   C54   1.481548 S    
C36   C38   1.413958 A    
C53   O17   1.221276 D    
C23   O19   1.383428 S    
C42   C45   1.399263 A    
O8    Zn2   2.020070 S    
C10   O21   1.380782 S    
C11   C27   1.406487 A    
O19   H13   0.991065 S    
C51   O15   1.221303 D    
C50   N3    1.374335 A    
C19   C34   1.415314 A    
C53   H11   1.074628 S    
C35   C37   1.413750 A    
C9    C17   1.397577 A    
C47   C50   1.432278 A    
C5    N1    1.361478 A    
O13   H7    0.991851 S    
C10   C18   1.400335 A    
C49   N4    1.372745 A    
C13   C27   1.415972 A    
O23   H17   0.990024 S    
C7    C25   1.406733 A    
C29   C33   1.416527 A    
O6    C4    1.304269 A    
C8    C26   1.405531 A    
C48   N3    1.375953 A    
C47   N4    1.374279 A    
C19   C25   1.411822 A    
C14   O14   1.382488 S    
C2    C45   1.406688 S    
C9    O22   1.380633 S    
C54   O18   1.221340 D    
C36   O26   1.379508 S    
C26   C37   1.406956 A    
C52   O16   1.221362 D    
C20   C26   1.410657 A    
C47   C51   1.481415 S    
O1    Zn1   1.978973 S    
C41   O27   1.386626 S    
C22   C24   1.407097 A    
C12   C28   1.405032 A    
O30   H24   0.988055 S    
N2    C18   1.427143 S    
C29   C32   1.421748 A    
C5    O9    1.349892 S    
C30   C34   1.416959 A    
C30   C31   1.422065 A    
C20   C33   1.414906 A    
O6    Zn2   2.006752 S    
C21   C23   1.406588 A    
Zn1   N3    2.028551 S    
N2    C8    1.363359 A    
O4    C1    1.284373 A    
C7    O12   1.349716 S    
C39   H5    1.077415 S    
C8    O11   1.349865 S    
O26   H20   0.991003 S    
C41   C46   1.399131 A    
C14   C16   1.397385 A    
C15   C17   1.393018 A    
O28   H22   0.989344 S    
C6    C22   1.404620 A    
C31   C40   1.409572 A    
C16   C18   1.394663 A    
C42   O28   1.386517 S    
C24   O20   1.383307 S    
C14   C28   1.413788 A    
C19   C21   1.415984 A    
C3    C27   1.470781 S    
C20   C22   1.415467 A    
C9    C11   1.399767 A    
O4    Zn2   1.983991 S    
C48   C52   1.482342 S    
O7    C4    1.299462 A    
O8    C3    1.300118 A    
C51   H9    1.075137 S    
O5    Zn1   2.006758 S    
C54   H12   1.072500 S    
C6    O10   1.349776 S    
C52   H10   1.074467 S    
O25   H19   0.990974 S    
C23   C39   1.395856 A    
C42   C44   1.389278 A    
