data_mof_unit_42872.cif
_audit_creation_date              2012-12-11T15:41:10-0500
_audit_creation_method            fapswitch 2.2
_symmetry_space_group_name_H-M    P1
_symmetry_Int_Tables_number       1
_space_group_crystal_system       triclinic
_cell_length_a                    19.155427
_cell_length_b                    11.028058
_cell_length_c                    18.838968
_cell_angle_alpha                 89.627155
_cell_angle_beta                  90.030769
_cell_angle_gamma                 90.120778
_cell_volume                      3979.58483885

loop_
_atom_site_label
_atom_site_type_symbol
_atom_type_description
_atom_site_fract_x
_atom_site_fract_y
_atom_site_fract_z
_atom_type_partial_charge
C1    C     C_R   0.725595 0.958646 0.854800 0.567941
C2    C     C_R   0.274471 0.959296 0.145119 0.556453
C3    C     C_R   0.225595 0.458644 0.854799 0.567682
C4    C     C_R   0.774472 0.459297 0.145118 0.556674
C5    C     C_R   0.694894 0.433496 0.039512 -0.040115
C6    C     C_R   0.305200 0.432866 0.960293 -0.035753
C7    C     C_R   0.194894 0.933494 0.039512 -0.040176
C8    C     C_R   0.805199 0.932867 0.960294 -0.035657
C9    C     C_R   0.688249 0.423996 0.966378 0.000255
C10   C     C_R   0.311913 0.424170 0.033470 0.005564
C11   C     C_R   0.188249 0.923996 0.966378 0.000126
C12   C     C_R   0.811913 0.924170 0.033471 0.005449
C13   C     C_R   0.812685 0.402872 0.954852 -0.098229
C14   C     C_R   0.187333 0.404650 0.045362 -0.103537
C15   C     C_R   0.312685 0.902869 0.954853 -0.098002
C16   C     C_R   0.687333 0.904654 0.045363 -0.103525
C17   C     C_R   0.818898 0.404144 0.028168 -0.081116
C18   C     C_R   0.181092 0.404130 0.972072 -0.081344
C19   C     C_R   0.318897 0.904141 0.028169 -0.081147
C20   C     C_R   0.681091 0.904135 0.972073 -0.081492
C21   C     C_3   0.635427 0.520562 0.045993 0.175866
C22   C     C_3   0.365124 0.519399 0.952705 0.175015
C23   C     C_3   0.135427 0.020561 0.045994 0.175807
C24   C     C_3   0.865123 0.019401 0.952706 0.175386
C25   C     C_3   0.630026 0.515239 0.965116 0.480211
C26   C     C_3   0.370667 0.514792 0.033609 0.478937
C27   C     C_3   0.130026 0.015239 0.965117 0.480210
C28   C     C_3   0.870667 0.014791 0.033610 0.478615
C29   C     C_R   0.747060 0.413409 0.922759 0.023671
C30   C     C_R   0.253081 0.414888 0.077218 0.021997
C31   C     C_R   0.247060 0.913408 0.922759 0.024202
C32   C     C_R   0.753081 0.914889 0.077218 0.021965
C33   C     C_R   0.507730 0.175750 0.421105 0.006778
C34   C     C_R   0.550603 0.179465 0.562842 0.017622
C35   C     C_R   0.008500 0.676284 0.420767 0.005836
C36   C     C_R   0.051075 0.679906 0.562734 0.020100
C37   C     C_R   0.498657 0.277164 0.463410 0.067949
C38   C     C_R   0.518377 0.278736 0.531701 0.018702
C39   C     C_R   0.999957 0.778036 0.462960 0.062374
C40   C     C_R   0.019539 0.779627 0.531264 0.005847
C41   C     C_R   0.574571 0.087173 0.517709 -0.145371
C42   C     C_R   0.551851 0.083445 0.446343 -0.138995
C43   C     C_R   0.074765 0.587196 0.517706 -0.137285
C44   C     C_R   0.052384 0.583746 0.446188 -0.140104
C45   C     C_R   0.529783 0.177273 0.850667 0.570360
C46   C     C_R   0.470153 0.177811 0.149302 0.551493
C47   C     C_R   0.029784 0.677273 0.850668 0.569559
C48   C     C_R   0.970153 0.677811 0.149302 0.551537
C49   C     C_3   0.440385 0.364187 0.475125 -0.129251
C50   C     C_3   0.464157 0.369794 0.552352 -0.133217
C51   C     C_3   0.943001 0.867890 0.474152 -0.123833
C52   C     C_3   0.967290 0.874637 0.551203 -0.120410
C53   C     C_R   0.756931 0.414855 0.423956 -0.005840
C54   C     C_R   0.248305 0.425957 0.575316 0.012967
C55   C     C_R   0.256023 0.911225 0.422875 -0.010077
C56   C     C_R   0.746386 0.925704 0.574923 0.021695
C57   C     C_R   0.814203 0.396143 0.468400 -0.034939
C58   C     C_R   0.219647 0.322793 0.545295 -0.070546
C59   C     C_R   0.313119 0.886391 0.466636 -0.032044
C60   C     C_R   0.719239 0.820212 0.546052 -0.067392
C61   C     C_R   0.808319 0.384189 0.540034 0.025331
C62   C     C_R   0.226594 0.299320 0.474276 -0.002914
C63   C     C_R   0.307032 0.870687 0.538108 0.065056
C64   C     C_R   0.726705 0.795697 0.475002 -0.004945
C65   C     C_R   0.684191 0.403296 0.528761 -0.126378
C66   C     C_R   0.286172 0.489931 0.457104 -0.120090
C67   C     C_R   0.183379 0.901119 0.527704 -0.117495
C68   C     C_R   0.787519 0.985095 0.457292 -0.135941
C69   C     C_R   0.689633 0.408739 0.454286 0.174447
C70   C     C_R   0.287987 0.505561 0.530687 0.191387
C71   C     C_R   0.188702 0.908325 0.453316 0.177157
C72   C     C_R   0.784900 0.005513 0.530019 0.183887
C73   C     C_3   0.883152 0.457996 0.473199 -0.115059
C74   C     C_3   0.148335 0.268058 0.549621 -0.072566
C75   C     C_3   0.382401 0.947461 0.472737 -0.119227
C76   C     C_3   0.647310 0.767416 0.549394 -0.073917
C77   C     C_3   0.877618 0.442525 0.553485 0.114973
C78   C     C_3   0.158909 0.230982 0.473035 0.114925
C79   C     C_3   0.377181 0.925908 0.552423 0.105956
C80   C     C_3   0.658148 0.730103 0.472957 0.113065
C81   C     C_R   0.744382 0.397533 0.572435 -0.029560
C82   C     C_R   0.253050 0.388658 0.428233 -0.002789
C83   C     C_R   0.243534 0.889100 0.570745 -0.010337
C84   C     C_R   0.754600 0.883837 0.428926 -0.001111
C85   C     C_R   0.738184 0.364858 0.851986 0.556304
C86   C     C_R   0.261808 0.365548 0.148069 0.546452
C87   C     C_R   0.238184 0.864859 0.851986 0.556665
C88   C     C_R   0.761807 0.865549 0.148070 0.547068
C89   C     C_R   0.726276 0.960705 0.645923 0.550554
C90   C     C_R   0.272248 0.954376 0.351926 0.517920
C91   C     C_R   0.226738 0.460627 0.646030 0.560366
C92   C     C_R   0.772413 0.454919 0.352208 0.518339
C93   C     C_R   0.564342 0.181777 0.638014 0.550071
C94   C     C_R   0.471616 0.176795 0.353929 0.523955
C95   C     C_R   0.064409 0.681860 0.638029 0.557218
C96   C     C_R   0.971844 0.676883 0.353791 0.522547
C97   C     C_R   0.738455 0.360711 0.645899 0.560570
C98   C     C_R   0.261007 0.358722 0.354337 0.546403
C99   C     C_R   0.237825 0.857537 0.644891 0.587191
C100  C     C_R   0.761625 0.856309 0.354949 0.550615
C101  C     C_2   0.496785 0.167511 0.920714 -0.111780
C102  C     C_2   0.503265 0.168610 0.079324 -0.116083
C103  C     C_2   0.996787 0.667511 0.920715 -0.111686
C104  C     C_2   0.003267 0.668610 0.079325 -0.116151
C105  C     C_2   0.493335 0.069950 0.038949 -0.170636
C106  C     C_2   0.507311 0.069601 0.962097 -0.173042
C107  C     C_2   0.993338 0.569950 0.038950 -0.170647
C108  C     C_2   0.007314 0.569602 0.962099 -0.173046
C109  C     C_R   0.760613 0.426299 0.071775 0.047583
C110  C     C_R   0.239416 0.425317 0.928204 0.049723
C111  C     C_R   0.260612 0.926296 0.071776 0.047598
C112  C     C_R   0.739415 0.925320 0.928205 0.049357
Cr1   Cr    Cr6+3 0.769260 0.163750 0.750730 1.080089
Cr2   Cr    Cr6+3 0.230740 0.163750 0.249270 1.054757
Cr3   Cr    Cr6+3 0.269260 0.663750 0.750730 1.065712
Cr4   Cr    Cr6+3 0.730740 0.663750 0.249270 1.054402
Cr5   Cr    Cr6+3 0.612640 0.009910 0.748780 1.042930
Cr6   Cr    Cr6+3 0.387360 0.009910 0.251220 1.044518
Cr7   Cr    Cr6+3 0.112640 0.509910 0.748780 1.046409
Cr8   Cr    Cr6+3 0.887360 0.509910 0.251220 1.044220
Cr9   Cr    Cr6+3 0.614190 0.322400 0.747710 1.068026
Cr10  Cr    Cr6+3 0.385810 0.322400 0.252290 1.061241
Cr11  Cr    Cr6+3 0.114190 0.822400 0.747710 1.073798
Cr12  Cr    Cr6+3 0.885810 0.822400 0.252290 1.060077
H1    H     H_    0.474322 0.986449 0.062585 0.149587
H2    H     H_    0.526494 0.986268 0.939256 0.147740
H3    H     H_    0.974325 0.486449 0.062586 0.149583
H4    H     H_    0.026498 0.486269 0.939257 0.147808
H5    H     H_    0.890900 0.826470 0.465482 0.100465
H6    H     H_    0.992523 0.961661 0.566493 0.142132
H7    H     H_    0.388671 0.321597 0.465719 0.100682
H8    H     H_    0.487446 0.457780 0.568853 0.132523
H9    H     H_    0.632928 0.403226 0.552336 0.169331
H10   H     H_    0.312258 0.554935 0.422818 0.163102
H11   H     H_    0.132435 0.905945 0.551757 0.164313
H12   H     H_    0.812994 0.050680 0.422868 0.162047
H13   H     H_    0.881965 0.553189 0.453619 0.113426
H14   H     H_    0.105045 0.332710 0.556617 0.159688
H15   H     H_    0.381330 0.044186 0.455812 0.113426
H16   H     H_    0.604610 0.833316 0.556076 0.159179
H17   H     H_    0.916174 0.379476 0.577886 0.181968
H18   H     H_    0.166426 0.132934 0.464847 0.154279
H19   H     H_    0.415184 0.859745 0.574811 0.178483
H20   H     H_    0.664180 0.631789 0.464746 0.156232
H21   H     H_    0.527440 0.249090 0.056856 0.088777
H22   H     H_    0.472493 0.247795 0.942519 0.090589
H23   H     H_    0.027441 0.749090 0.056857 0.088764
H24   H     H_    0.972494 0.747795 0.942520 0.090758
H25   H     H_    0.859202 0.389134 0.923263 0.136913
H26   H     H_    0.140792 0.391708 0.077196 0.132009
H27   H     H_    0.359202 0.889132 0.923263 0.136942
H28   H     H_    0.640792 0.891712 0.077197 0.132056
H29   H     H_    0.870573 0.394145 0.050223 0.153416
H30   H     H_    0.129421 0.393727 0.950130 0.152272
H31   H     H_    0.370572 0.894140 0.050224 0.153407
H32   H     H_    0.629419 0.893734 0.950131 0.152269
H33   H     H_    0.590417 0.481050 0.075722 0.112796
H34   H     H_    0.409856 0.479255 0.923286 0.114613
H35   H     H_    0.090416 0.981048 0.075722 0.112754
H36   H     H_    0.909855 0.979258 0.923286 0.115648
H37   H     H_    0.609841 0.020130 0.537768 0.118884
H38   H     H_    0.567022 0.009569 0.412328 0.193157
H39   H     H_    0.109554 0.519565 0.537960 0.125564
H40   H     H_    0.067415 0.509626 0.412285 0.192528
O1    O     O_R   0.784290 0.290360 0.830540 -0.479673
O2    O     O_R   0.215710 0.290360 0.169460 -0.483650
O3    O     O_R   0.284290 0.790360 0.830540 -0.481592
O4    O     O_R   0.715710 0.790360 0.169460 -0.483456
O5    O     O_R   0.554690 0.080440 0.673480 -0.473214
O6    O     O_R   0.445310 0.080440 0.326520 -0.505271
O7    O     O_R   0.054690 0.580440 0.673480 -0.477169
O8    O     O_R   0.945310 0.580440 0.326520 -0.505458
O9    O     O_R   0.543980 0.282110 0.666770 -0.504702
O10   O     O_R   0.456020 0.282110 0.333230 -0.505340
O11   O     O_R   0.043980 0.782110 0.666770 -0.507293
O12   O     O_R   0.956020 0.782110 0.333230 -0.507248
O13   O     O_R   0.679070 0.374030 0.674430 -0.507437
O14   O     O_R   0.320930 0.374030 0.325570 -0.518318
O15   O     O_R   0.179070 0.874030 0.674430 -0.510514
O16   O     O_R   0.820930 0.874030 0.325570 -0.519347
O17   O     O_3   0.665360 0.165350 0.749070 -0.312165
O18   O     O_3   0.334640 0.165350 0.250930 -0.271935
O19   O     O_3   0.165360 0.665350 0.749070 -0.307097
O20   O     O_3   0.834640 0.665350 0.250930 -0.272631
O21   O     O_R   0.762610 0.041070 0.825230 -0.449433
O22   O     O_R   0.237390 0.041070 0.174770 -0.455305
O23   O     O_R   0.262610 0.541070 0.825230 -0.452148
O24   O     O_R   0.737390 0.541070 0.174770 -0.455114
O25   O     O_R   0.667390 0.924160 0.829970 -0.521922
O26   O     O_R   0.332610 0.924160 0.170030 -0.526746
O27   O     O_R   0.167390 0.424160 0.829970 -0.521720
O28   O     O_R   0.832610 0.424160 0.170030 -0.526715
O29   O     O_R   0.553980 0.081420 0.821780 -0.496399
O30   O     O_R   0.446020 0.081420 0.178220 -0.502632
O31   O     O_R   0.053980 0.581420 0.821780 -0.497265
O32   O     O_R   0.946020 0.581420 0.178220 -0.502609
O33   O     O_R   0.543210 0.283170 0.826740 -0.473840
O34   O     O_R   0.456790 0.283170 0.173260 -0.479624
O35   O     O_R   0.043210 0.783170 0.826740 -0.473303
O36   O     O_R   0.956790 0.783170 0.173260 -0.479573
O37   O     O_R   0.678350 0.375000 0.822720 -0.489618
O38   O     O_R   0.321650 0.375000 0.177280 -0.493866
O39   O     O_R   0.178350 0.875000 0.822720 -0.490004
O40   O     O_R   0.821650 0.875000 0.177280 -0.493519
O41   O     O_R   0.785060 0.289300 0.670580 -0.495690
O42   O     O_R   0.214940 0.289300 0.329420 -0.492476
O43   O     O_R   0.285060 0.789300 0.670580 -0.483385
O44   O     O_R   0.714940 0.789300 0.329420 -0.493639
O45   O     O_R   0.763330 0.040090 0.676940 -0.472518
O46   O     O_R   0.236670 0.040090 0.323060 -0.510853
O47   O     O_R   0.263330 0.540090 0.676940 -0.496951
O48   O     O_R   0.736670 0.540090 0.323060 -0.511649
O49   O     O_R   0.668160 0.923110 0.670000 -0.535932
O50   O     O_R   0.331840 0.923110 0.330000 -0.503759
O51   O     O_R   0.168160 0.423110 0.670000 -0.530851
O52   O     O_R   0.831840 0.423110 0.330000 -0.502954
C113  C     C_1   0.452894 0.477017 0.435421 0.275981
N1    N     N_1   0.463008 0.564714 0.403159 -0.246148
C114  C     C_1   0.412287 0.322227 0.603054 0.229238
N2    N     N_1   0.372258 0.285745 0.643949 -0.253722
C115  C     C_1   0.956332 0.979384 0.433370 0.285531
N3    N     N_1   0.967029 0.066006 0.400281 -0.245005
C116  C     C_1   0.914662 0.832600 0.602693 0.272859
N4    N     N_1   0.874130 0.800407 0.644281 -0.237666
O53   O     O_3   0.629146 0.415057 0.414702 -0.705480
H41   H     H_    0.640497 0.400030 0.364269 0.337698
O54   O     O_3   0.325634 0.602332 0.555953 -0.695617
H42   H     H_    0.353904 0.572103 0.596343 0.340386
O55   O     O_3   0.128337 0.920396 0.414010 -0.706335
H43   H     H_    0.139081 0.904738 0.363503 0.338496
O56   O     O_3   0.812137 0.112046 0.553889 -0.673824
H44   H     H_    0.770462 0.159007 0.567359 0.327831
C117  C     C_1   0.935448 0.381556 0.439629 0.253695
N5    N     N_1   0.975165 0.320736 0.410979 -0.221752
C118  C     C_1   0.143540 0.170756 0.602190 0.176860
N6    N     N_1   0.137958 0.097509 0.645825 -0.272309
C119  C     C_1   0.435041 0.874887 0.436845 0.258317
N7    N     N_1   0.475167 0.817944 0.406105 -0.224983
C120  C     C_1   0.640705 0.669884 0.601691 0.178698
N8    N     N_1   0.633589 0.596323 0.644942 -0.272489
O57   O     O_3   0.872500 0.552938 0.590050 -0.672541
H45   H     H_    0.835660 0.603051 0.567124 0.327973
O58   O     O_3   0.110494 0.285215 0.427497 -0.682463
H46   H     H_    0.099880 0.224669 0.390241 0.371111
O59   O     O_3   0.373761 0.033560 0.591938 -0.669933
H47   H     H_    0.337156 0.086433 0.570851 0.328181
O60   O     O_3   0.610810 0.786485 0.427120 -0.684768
H48   H     H_    0.600199 0.726884 0.389343 0.370333
O61   O     O_3   0.156570 0.134398 0.070032 -0.627222
H49   H     H_    0.112757 0.180022 0.078113 0.330998
O62   O     O_3   0.844609 0.133287 0.927599 -0.628978
H50   H     H_    0.888657 0.178467 0.919006 0.331788
O63   O     O_3   0.656570 0.634400 0.070031 -0.627234
H51   H     H_    0.612757 0.680026 0.078109 0.330997
O64   O     O_3   0.344611 0.633285 0.927596 -0.629054
H52   H     H_    0.388658 0.678466 0.919009 0.331368
O65   O     O_3   0.565952 0.469543 0.940447 -0.676585
H53   H     H_    0.557849 0.390411 0.964217 0.285446
O66   O     O_3   0.434496 0.468602 0.058624 -0.676241
H54   H     H_    0.442295 0.389681 0.035186 0.286194
O67   O     O_3   0.065953 0.969545 0.940447 -0.676101
H55   H     H_    0.057848 0.890414 0.964217 0.285358
O68   O     O_3   0.934496 0.968599 0.058624 -0.676226
H56   H     H_    0.942294 0.889678 0.035185 0.286188
O69   O     O_3   0.648631 0.624313 0.931117 -0.634458
H57   H     H_    0.647963 0.607921 0.879397 0.345833
O70   O     O_3   0.352800 0.624352 0.066493 -0.638396
H58   H     H_    0.353411 0.608359 0.118380 0.340706
O71   O     O_3   0.148632 0.124314 0.931119 -0.634390
H59   H     H_    0.147967 0.107922 0.879398 0.346012
O72   O     O_3   0.852801 0.124351 0.066495 -0.638448
H60   H     H_    0.853414 0.108356 0.118382 0.340780

loop_
_geom_bond_atom_site_label_1
_geom_bond_atom_site_label_2
_ccdc_geom_bond_type
C58   C62   A    
C39   C51   S    
C4    C109  S    
Cr10  O10   S    
C67   C83   A    
Cr4   O48   S    
C72   O56   S    
Cr3   O43   S    
C73   H13   S    
C19   H31   S    
C41   C42   A    
C14   C18   A    
C89   O49   A    
C90   O46   A    
C120  N8    T    
C86   O2    A    
C34   C93   S    
C90   O50   A    
Cr5   O25   S    
C53   C69   A    
C33   C94   S    
C15   H27   S    
C51   H5    S    
C9    C25   S    
O68   H56   S    
C63   C79   S    
C35   C96   S    
C65   C69   A    
Cr7   O51   S    
C74   H14   S    
C93   O5    A    
O61   H49   S    
Cr8   O32   S    
C75   C79   S    
C81   C97   S    
Cr12  O40   S    
C76   C120  S    
C77   O57   S    
C33   C42   A    
C79   O59   S    
C13   C29   A    
C37   C38   A    
Cr7   O27   S    
Cr12  O20   S    
C55   C90   S    
C55   C59   A    
Cr8   O28   S    
C102  H21   S    
Cr1   O1    S    
O67   H55   S    
Cr5   O17   S    
C46   O34   A    
Cr6   O6    S    
C3    C110  S    
C45   O33   A    
O58   H46   S    
C48   C104  S    
Cr4   O20   S    
C50   C114  S    
Cr3   O23   S    
C102  C105  D    
O57   H45   S    
C57   C73   S    
C65   H9    S    
C95   O11   A    
C64   C84   A    
C91   O51   A    
C42   H38   S    
C8    C24   S    
C15   C19   A    
Cr10  O18   S    
C65   C81   A    
C87   O3    A    
C26   O66   S    
C116  N4    T    
C61   C77   S    
Cr9   O9    S    
C56   C72   A    
C23   H35   S    
C11   C27   S    
Cr11  O19   S    
C118  N6    T    
Cr2   O2    S    
C103  C108  D    
C80   H20   S    
C23   C27   S    
C30   C86   S    
C20   H32   S    
O69   H57   S    
C86   O38   A    
C73   C117  S    
C18   H30   S    
C8    C12   A    
C95   O7    A    
C25   O65   S    
C25   O69   S    
C10   C26   S    
C6    C22   S    
C76   H16   S    
C62   C82   A    
C17   H29   S    
C28   O72   S    
C83   C99   S    
O71   H59   S    
C12   C32   A    
C47   O31   A    
C64   C80   S    
C104  H23   S    
C47   O35   A    
C34   C41   A    
C21   H33   S    
C14   C30   A    
C4    O28   A    
C87   O39   A    
O55   H43   S    
C103  H24   S    
C7    C11   A    
Cr6   O18   S    
C45   O29   A    
Cr7   O31   S    
C2    C111  S    
C79   H19   S    
C101  H22   S    
C49   H7    S    
C31   C87   S    
C82   C98   S    
C51   C52   S    
C68   C84   A    
C24   C28   S    
C36   C40   A    
C47   C103  S    
C70   O54   S    
C91   O47   A    
C114  N2    T    
C100  O44   A    
O59   H47   S    
C53   C57   A    
C48   O32   A    
Cr8   O8    S    
C89   O45   A    
C22   H34   S    
C88   O4    A    
C113  N1    T    
C40   C52   S    
C106  H2    S    
C21   O63   S    
C15   C31   A    
C60   C76   S    
C33   C37   A    
C18   C110  A    
Cr2   O42   S    
C46   O30   A    
C49   C113  S    
C68   C72   A    
Cr1   O41   S    
C6    C110  A    
C67   H11   S    
C43   C44   A    
C2    O22   A    
C99   O15   A    
C115  N3    T    
C51   C115  S    
C3    O27   A    
O64   H52   S    
C66   C82   A    
Cr9   O13   S    
C37   C49   S    
C10   C30   A    
C13   C17   A    
C97   O13   A    
O54   H42   S    
C54   C70   A    
C68   H12   S    
C16   C20   A    
Cr1   O21   S    
C14   H26   S    
C53   C92   S    
C54   C58   A    
O53   H41   S    
O62   H50   S    
C80   O60   S    
Cr6   O50   S    
Cr8   O52   S    
Cr7   O19   S    
Cr10  O34   S    
C11   C31   A    
C35   C44   A    
Cr8   O20   S    
Cr9   O33   S    
C22   O64   S    
Cr4   O44   S    
C22   C26   S    
C50   H8    S    
C94   O10   A    
C75   C119  S    
Cr12  O12   S    
Cr11  O15   S    
C56   C89   S    
C27   O71   S    
C12   C28   S    
C19   C111  A    
C45   C101  S    
C74   C78   S    
C92   O48   A    
Cr1   O17   S    
C76   C80   S    
C107  C108  S    
Cr3   O3    S    
O66   H54   S    
C100  O16   A    
C71   O55   S    
C59   C75   S    
O65   H53   S    
C58   C74   S    
Cr9   O17   S    
C26   O70   S    
C117  N5    T    
Cr11  O35   S    
C101  C106  D    
Cr10  O14   S    
C21   C25   S    
C52   H6    S    
C96   O12   A    
C34   C38   A    
C29   C85   S    
C69   O53   S    
C62   C78   S    
C24   O62   S    
Cr11  O39   S    
C2    O26   A    
C88   O40   A    
C5    C9    A    
C17   C109  A    
C6    C10   A    
C84   C100  S    
Cr11  O11   S    
O70   H58   S    
C24   H36   S    
C57   C61   A    
C38   C50   S    
C85   O37   A    
C16   C32   A    
C28   O68   S    
C44   H40   S    
C105  C106  S    
Cr12  O36   S    
C59   C63   A    
C78   O58   S    
Cr2   O22   S    
Cr5   O5    S    
Cr3   O47   S    
C107  H3    S    
C60   C64   A    
C85   O1    A    
C1    O21   A    
Cr2   O46   S    
C78   H18   S    
C74   C118  S    
C105  H1    S    
C13   H25   S    
C54   C91   S    
C1    C112  S    
C61   C81   A    
C94   O6    A    
Cr7   O7    S    
C32   C88   S    
C9    C29   A    
Cr9   O37   S    
C36   C95   S    
Cr10  O38   S    
C41   H37   S    
O63   H51   S    
C5    C109  A    
C16   H28   S    
C4    O24   A    
C7    C23   S    
C35   C39   A    
Cr6   O26   S    
C93   O9    A    
Cr4   O24   S    
C8    C112  A    
C7    C111  A    
C92   O52   A    
C98   O42   A    
C67   C71   A    
C1    O25   A    
Cr6   O30   S    
C77   H17   S    
Cr12  O16   S    
Cr5   O29   S    
Cr1   O45   S    
Cr2   O18   S    
C39   C40   A    
C56   C60   A    
Cr5   O49   S    
C5    C21   S    
C66   C70   A    
C48   O36   A    
C52   C116  S    
C23   O61   S    
C49   C50   S    
C96   O8    A    
C20   C112  A    
C63   C83   A    
O56   H44   S    
C98   O14   A    
C99   O43   A    
C73   C77   S    
Cr4   O4    S    
C36   C43   A    
C75   H15   S    
C108  H4    S    
C97   O41   A    
C66   H10   S    
C119  N7    T    
C3    O23   A    
C104  C107  D    
C55   C71   A    
Cr3   O19   S    
O72   H60   S    
O60   H48   S    
C43   H39   S    
C46   C102  S    
C27   O67   S    
