data_mof_unit_31820.cif
_audit_creation_date              2012-10-26T21:12:31-0400
_audit_creation_method            fapswitch 2.2
_symmetry_space_group_name_H-M    P1
_symmetry_Int_Tables_number       1
_space_group_crystal_system       triclinic
_cell_length_a                    23.636963
_cell_length_b                    10.920802
_cell_length_c                    9.701027
_cell_angle_alpha                 89.034891
_cell_angle_beta                  89.096846
_cell_angle_gamma                 92.89923
_cell_volume                      2500.26448064

loop_
_atom_site_label
_atom_site_type_symbol
_atom_type_description
_atom_site_fract_x
_atom_site_fract_y
_atom_site_fract_z
_atom_type_partial_charge
C1    C     C_R   0.504169 0.262354 0.500909 0.590478
C2    C     C_R   0.121856 0.602410 0.550763 0.458298
C3    C     C_R   0.235593 0.541141 0.399284 0.086180
C4    C     C_R   0.390804 0.498769 0.499585 0.573409
C5    C     C_R   0.295345 0.542810 0.387800 0.092322
C6    C     C_R   0.327343 0.495536 0.498067 -0.020701
C7    C     C_R   0.297877 0.441847 0.611497 -0.145669
C8    C     C_R   0.238988 0.442635 0.626582 0.071996
C9    C     C_R   0.207604 0.492958 0.519319 0.160945
C10   C     C_R   0.761553 0.439239 0.394125 -0.050304
C11   C     C_R   0.702182 0.427277 0.400354 0.018811
C12   C     C_R   0.963454 0.282648 0.489643 -0.107903
C13   C     C_R   0.671771 0.498595 0.493855 -0.007636
C14   C     C_R   0.702487 0.577929 0.579559 -0.147391
C15   C     C_R   0.761333 0.581206 0.581869 -0.055580
C16   C     C_R   0.492908 0.736053 0.498561 0.591977
C17   C     C_R   0.791682 0.511447 0.489324 0.197271
C18   C     C_R   0.498038 0.104991 0.759298 -0.064387
C19   C     C_R   0.467696 0.049719 0.869715 -0.070670
C20   C     C_R   0.434545 0.943596 0.849702 -0.037535
C21   C     C_R   0.436631 0.884508 0.723661 0.127912
C22   C     C_R   0.471912 0.934202 0.614585 0.000376
C23   C     C_R   0.022278 0.279602 0.491572 -0.103517
C24   C     C_R   0.493481 0.056510 0.625234 -0.024611
C25   C     C_R   0.507127 0.126099 0.502343 0.008871
C26   C     C_R   0.511286 0.063789 0.375085 0.093063
C27   C     C_R   0.495453 0.938154 0.369582 0.048633
C28   C     C_R   0.608827 0.497629 0.498636 0.584435
C29   C     C_R   0.483163 0.870213 0.492975 -0.012533
C30   C     C_R   0.598339 0.591927 0.132024 0.151954
C31   C     C_R   0.647549 0.583109 0.052965 -0.117212
C32   C     C_R   0.644407 0.604720 0.912529 -0.164660
C33   C     C_R   0.591204 0.618507 0.854214 0.100178
C34   C     C_R   0.055742 0.387727 0.509709 0.045362
C35   C     C_R   0.544006 0.559956 0.923407 0.100850
C36   C     C_R   0.545186 0.557164 0.071855 0.136962
C37   C     C_R   0.459752 0.435510 0.077017 0.194446
C38   C     C_R   0.458227 0.441022 0.930340 0.150697
C39   C     C_R   0.884727 0.616881 0.506310 0.422171
C40   C     C_R   0.877837 0.398300 0.500458 0.410753
C41   C     C_R   0.936890 0.394078 0.503293 0.038218
C42   C     C_R   0.969881 0.503507 0.521015 -0.042205
C43   C     C_R   0.943453 0.616228 0.532438 0.005873
C44   C     C_2   0.674458 0.328691 0.321007 0.601845
C45   C     C_R   0.029440 0.499706 0.526708 -0.025305
C46   C     C_2   0.481589 0.883021 0.234412 0.617977
C47   C     C_2   0.584721 0.741015 0.792292 0.611455
C48   C     C_2   0.407615 0.384613 0.867551 0.615123
C49   C     C_2   0.953036 0.839356 0.610018 0.641641
C50   C     C_2   0.201345 0.589551 0.285749 0.632987
C51   C     C_2   0.211642 0.392056 0.756326 0.656766
C52   C     C_R   0.062672 0.607796 0.548057 0.010701
C53   C     C_R   0.036255 0.718228 0.568243 -0.105415
C54   C     C_R   0.977134 0.723522 0.564670 0.044401
C55   C     C_R   0.115084 0.387207 0.509433 0.467193
Cu1   Cu    Cu3+1 0.500000 0.499990 0.640660 1.052416
Cu2   Cu    Cu3+1 0.500000 0.500010 0.359340 1.096390
H1    H     H_    0.938847 0.197813 0.474322 0.186470
H2    H     H_    0.061691 0.800478 0.591425 0.206753
H3    H     H_    0.321138 0.397468 0.688904 0.203335
H4    H     H_    0.784585 0.385766 0.321033 0.188039
H5    H     H_    0.672474 0.233472 0.144327 0.371352
H6    H     H_    0.424918 0.787832 0.122666 0.347437
H7    H     H_    0.559964 0.910856 0.823561 0.350099
H8    H     H_    0.373381 0.242832 0.760484 0.339951
H9    H     H_    0.961670 0.023577 0.615794 0.344097
H10   H     H_    0.183116 0.734571 0.166013 0.362737
H11   H     H_    0.145080 0.389376 0.889611 0.367098
H12   H     H_    0.681002 0.638906 0.643814 0.175335
H13   H     H_    0.783192 0.638394 0.656270 0.175983
H14   H     H_    0.524809 0.184893 0.781561 0.174931
H15   H     H_    0.467147 0.093086 0.968700 0.178777
H16   H     H_    0.406143 0.908934 0.931284 0.157916
H17   H     H_    0.041391 0.192375 0.478601 0.199941
H18   H     H_    0.688621 0.596653 0.100130 0.164296
H19   H     H_    0.682852 0.641735 0.862834 0.130661
I1    I     I_    0.546630 0.150936 0.188637 -0.241731
I2    I     I_    0.368918 0.755173 0.693765 -0.225063
I3    I     I_    0.402845 0.300342 0.179355 -0.178539
I4    I     I_    0.614995 0.746265 0.260564 -0.179216
I5    I     I_    0.332664 0.610365 0.197561 -0.112414
N1    N     N_R   0.852691 0.508858 0.497551 -0.396884
N2    N     N_R   0.146791 0.493691 0.529216 -0.368188
N3    N     N_R   0.500540 0.501210 0.147910 -0.255917
N4    N     N_R   0.500560 0.501290 0.852040 -0.295252
O1    O     O_R   0.500000 0.319640 0.618810 -0.489594
O2    O     O_R   0.582120 0.500020 0.618760 -0.511764
O3    O     O_R   0.582120 0.500050 0.381190 -0.489713
O4    O     O_2   0.860234 0.724027 0.483340 -0.429861
O5    O     O_2   0.638221 0.260704 0.377150 -0.482015
O6    O     O_R   0.692663 0.307654 0.186014 -0.688050
O7    O     O_2   0.515711 0.887745 0.138467 -0.452969
O8    O     O_R   0.428643 0.824131 0.217676 -0.654998
O9    O     O_2   0.608898 0.772034 0.684136 -0.523079
O10   O     O_R   0.554096 0.825398 0.864709 -0.646044
O11   O     O_2   0.361302 0.419961 0.902027 -0.473232
O12   O     O_2   0.845880 0.292295 0.501752 -0.471268
O13   O     O_R   0.411502 0.283875 0.782282 -0.689051
O14   O     O_2   0.911539 0.836638 0.687163 -0.446947
O15   O     O_R   0.980291 0.951780 0.572300 -0.692670
O16   O     O_2   0.165387 0.522746 0.231568 -0.481097
O17   O     O_R   0.209252 0.712279 0.243371 -0.617721
O18   O     O_2   0.236100 0.318608 0.827634 -0.449725
O19   O     O_R   0.158675 0.429962 0.799485 -0.659725
O20   O     O_2   0.140991 0.281668 0.488267 -0.447302
O21   O     O_2   0.154386 0.705015 0.573416 -0.434331
O22   O     O_R   0.500000 0.319660 0.381240 -0.461162
O23   O     O_R   0.417880 0.499950 0.618810 -0.479283
O24   O     O_R   0.417880 0.499980 0.381240 -0.464383
O25   O     O_R   0.500000 0.680340 0.618760 -0.476173
O26   O     O_R   0.500000 0.680360 0.381190 -0.467945

loop_
_geom_bond_atom_site_label_1
_geom_bond_atom_site_label_2
_ccdc_geom_bond_type
C4    O24   A    
C22   C29   A    
C27   C29   A    
C35   N4    A    
C41   C42   A    
C19   C20   A    
C53   H2    S    
C16   O25   A    
C7    C8    A    
Cu2   O26   S    
C53   C54   A    
C37   I3    S    
C12   C23   A    
C26   C27   A    
C12   C41   A    
C55   O20   S    
C18   C24   A    
H8    O13   S    
C18   C19   A    
C5    C6    A    
C46   O7    D    
C10   C17   A    
C51   O18   D    
C49   C54   S    
C18   H14   S    
Cu1   Cu2   S    
C17   N1    S    
H9    O15   S    
Cu1   O23   S    
Cu1   O1    S    
Cu2   O24   S    
C35   C36   A    
C8    C9    A    
C21   I2    S    
C28   O3    A    
C13   C28   S    
H10   O17   S    
C38   C48   S    
C30   I4    S    
C34   C55   A    
C21   C22   A    
C1    C25   S    
C2    N2    A    
Cu1   O25   S    
C3    C50   S    
C26   I1    S    
C38   N4    A    
C40   N1    A    
C19   H15   S    
C24   C25   A    
C39   N1    A    
C4    C6    S    
C40   O12   S    
Cu1   O2    S    
C39   C43   A    
C45   C52   A    
C51   O19   S    
C2    O21   S    
C42   C45   A    
C37   C38   A    
C3    C9    A    
C49   O14   D    
C5    I5    S    
C43   C54   A    
C31   H18   S    
C31   C32   A    
C23   C34   A    
H5    O6    S    
C28   O2    A    
Cu2   N3    S    
C11   C44   S    
C37   N3    A    
C34   C45   A    
C8    C51   S    
C44   O6    S    
C2    C52   A    
C9    N2    S    
C27   C46   S    
C40   C41   A    
Cu2   O22   S    
C1    O22   A    
C50   O17   S    
C33   C47   S    
C14   H12   S    
C22   C24   A    
C10   H4    S    
C42   C43   A    
C23   H17   S    
C55   N2    A    
C7    H3    S    
C44   O5    D    
C52   C53   A    
C1    O1    A    
C15   C17   A    
C15   H13   S    
C48   O11   D    
H11   O19   S    
H7    O10   S    
C3    C5    A    
C32   H19   S    
C6    C7    A    
C48   O13   S    
H6    O8    S    
Cu2   O3    S    
C30   C36   A    
C32   C33   A    
C25   C26   A    
C12   H1    S    
C49   O15   S    
C11   C13   A    
Cu1   N4    S    
C30   C31   A    
C46   O8    S    
C36   N3    A    
C33   C35   A    
C47   O9    D    
C20   H16   S    
C10   C11   A    
C20   C21   A    
C16   C29   S    
C50   O16   D    
C47   O10   S    
C14   C15   A    
C4    O23   A    
C13   C14   A    
C39   O4    S    
C16   O26   A    
