data_mof_unit_36737.cif
_audit_creation_date              2012-12-10T19:50:58-0500
_audit_creation_method            fapswitch 2.2
_symmetry_space_group_name_H-M    P1
_symmetry_Int_Tables_number       1
_space_group_crystal_system       triclinic
_cell_length_a                    23.484925
_cell_length_b                    10.884576
_cell_length_c                    22.278127
_cell_angle_alpha                 90.611815
_cell_angle_beta                  91.483162
_cell_angle_gamma                 88.299252
_cell_volume                      5690.11607005

loop_
_atom_site_label
_atom_site_type_symbol
_atom_type_description
_atom_site_fract_x
_atom_site_fract_y
_atom_site_fract_z
_atom_type_partial_charge
C1    C     C_R   0.497976 0.262093 0.499374 0.789481
C2    C     C_R   0.702405 0.543732 0.551562 -0.257179
C3    C     C_R   0.238486 0.552526 0.545168 0.133668
C4    C     C_R   0.762142 0.541089 0.552875 0.131025
C5    C     C_R   0.209224 0.494828 0.496887 0.338537
C6    C     C_R   0.791267 0.495628 0.502207 0.343729
C7    C     C_R   0.405451 0.209161 0.315383 0.032264
C8    C     C_R   0.581267 0.786360 0.689149 0.033724
C9    C     C_R   0.421136 0.172351 0.373786 -0.155147
C10   C     C_R   0.570295 0.827989 0.630541 -0.154101
C11   C     C_R   0.474424 0.113815 0.385104 0.125033
C12   C     C_R   0.500873 0.738072 0.500596 0.793650
C13   C     C_R   0.517793 0.886652 0.615657 0.125190
C14   C     C_R   0.511821 0.093344 0.337604 -0.169211
C15   C     C_R   0.476673 0.903538 0.659872 -0.164777
C16   C     C_R   0.390855 0.499381 0.499391 0.802300
C17   C     C_R   0.609236 0.500162 0.500588 0.807436
C18   C     C_R   0.496101 0.130227 0.279533 -0.185339
C19   C     C_R   0.487878 0.862662 0.718270 -0.183192
C20   C     C_R   0.442964 0.187502 0.268344 -0.117532
C21   C     C_R   0.540136 0.804800 0.732997 -0.121171
C22   C     C_R   0.491419 0.932356 0.447161 -0.237433
C23   C     C_R   0.239712 0.439032 0.450267 -0.117082
C24   C     C_R   0.504362 0.067882 0.552953 -0.242167
C25   C     C_R   0.500904 0.871842 0.501723 -0.085845
C26   C     C_R   0.496060 0.128481 0.498295 -0.087229
C27   C     C_R   0.507423 0.940770 0.555559 0.011652
C28   C     C_R   0.488253 0.059664 0.444600 0.014489
C29   C     C_R   0.535892 0.546933 0.872531 0.510591
C30   C     C_R   0.453101 0.445803 0.128072 0.515509
C31   C     C_R   0.441819 0.471027 0.872331 0.554712
C32   C     C_R   0.548285 0.515349 0.127595 0.553178
C33   C     C_R   0.443681 0.465664 0.935891 -0.028109
C34   C     C_R   0.760628 0.452512 0.451989 -0.121799
C35   C     C_R   0.545944 0.522595 0.064225 -0.028251
C36   C     C_R   0.493378 0.499114 0.968131 -0.019830
C37   C     C_R   0.495980 0.490381 0.032139 -0.019551
C38   C     C_R   0.540418 0.541001 0.936434 -0.056004
C39   C     C_R   0.448715 0.449944 0.064006 -0.058522
C40   C     C_R   0.878452 0.592810 0.477041 0.523119
C41   C     C_R   0.122058 0.392756 0.517678 0.523121
C42   C     C_R   0.397099 0.424914 0.967618 -0.206224
C43   C     C_R   0.592455 0.563713 0.032600 -0.206448
C44   C     C_R   0.398907 0.416888 0.030456 -0.039957
C45   C     C_R   0.298975 0.440258 0.451070 -0.227150
C46   C     C_R   0.590321 0.573679 0.969939 -0.039822
C47   C     C_R   0.540830 0.414442 0.260048 -0.235104
C48   C     C_R   0.448606 0.563794 0.738395 -0.245917
C49   C     C_R   0.538505 0.422820 0.323260 0.050051
C50   C     C_R   0.454725 0.560236 0.675387 0.047455
C51   C     C_R   0.462715 0.571617 0.315770 0.265194
C52   C     C_R   0.540786 0.441735 0.686380 0.254535
C53   C     C_R   0.464993 0.565747 0.252697 -0.223665
C54   C     C_R   0.532417 0.435605 0.748658 -0.235074
C55   C     C_R   0.503017 0.485654 0.223979 0.323520
C56   C     C_R   0.701369 0.453931 0.451580 -0.209066
C57   C     C_R   0.488290 0.501166 0.775988 0.321922
C58   C     C_R   0.882704 0.394278 0.522101 0.529113
C59   C     C_R   0.117689 0.590043 0.471354 0.531327
C60   C     C_R   0.942434 0.391421 0.521143 -0.011979
C61   C     C_R   0.057968 0.592323 0.471792 -0.013919
C62   C     C_R   0.970191 0.492277 0.497252 -0.019318
C63   C     C_R   0.030234 0.491622 0.495858 -0.019735
C64   C     C_R   0.938048 0.593844 0.474790 -0.016510
C65   C     C_R   0.062406 0.390380 0.518635 -0.013969
C66   C     C_R   0.974920 0.290631 0.543393 -0.165734
C67   C     C_R   0.328480 0.497994 0.498345 -0.067288
C68   C     C_R   0.025485 0.692813 0.449240 -0.163569
C69   C     C_R   0.034304 0.290173 0.542212 -0.164166
C70   C     C_R   0.966130 0.693644 0.450802 -0.160248
C71   C     C_1   0.348403 0.373344 0.058145 0.340768
C72   C     C_1   0.640914 0.617220 0.942386 0.343392
C73   C     C_3   0.418154 0.660205 0.340906 -0.411198
C74   C     C_3   0.357531 0.618860 0.325519 -0.360142
C75   C     C_3   0.312873 0.701899 0.355543 -0.774910
C76   C     C_3   0.600562 0.402136 0.667856 -0.357016
C77   C     C_3   0.605146 0.274876 0.637893 -0.345277
C78   C     C_R   0.671810 0.499014 0.501470 -0.062069
C79   C     C_3   0.666683 0.225212 0.638429 -0.846362
C80   C     C_3   0.207444 0.612845 0.596864 -0.407265
C81   C     C_3   0.210161 0.753235 0.593966 -0.344597
C82   C     C_3   0.177195 0.814797 0.644765 -0.807987
C83   C     C_3   0.793374 0.587205 0.608455 -0.397380
C84   C     C_3   0.790099 0.494842 0.659676 -0.347411
C85   C     C_3   0.822000 0.539566 0.715897 -0.775329
C86   C     C_1   0.350021 0.264488 0.303082 0.218268
C87   C     C_1   0.635050 0.726868 0.704749 0.227397
C88   C     C_R   0.298156 0.552849 0.545453 -0.237462
Cu1   Cu    Cu3+1 0.500000 0.499970 0.559570 0.940310
Cu2   Cu    Cu3+1 0.500000 0.500030 0.440430 0.939835
H1    H     H_    0.954598 0.212003 0.561952 0.187726
H2    H     H_    0.631070 0.589082 0.056852 0.189513
H3    H     H_    0.571202 0.351301 0.239513 0.154897
H4    H     H_    0.413798 0.617097 0.757541 0.159493
H5    H     H_    0.567379 0.365692 0.350233 0.136583
H6    H     H_    0.423587 0.610011 0.647774 0.136451
H7    H     H_    0.436640 0.623826 0.225425 0.151093
H8    H     H_    0.563227 0.386625 0.777309 0.158263
H9    H     H_    0.058078 0.211245 0.559945 0.186854
H10   H     H_    0.942366 0.772729 0.433223 0.191362
H11   H     H_    0.217301 0.394087 0.413480 0.158271
H12   H     H_    0.045800 0.771333 0.430567 0.190292
H13   H     H_    0.782982 0.417709 0.413143 0.147708
H14   H     H_    0.321836 0.394075 0.415457 0.157041
H15   H     H_    0.678657 0.419135 0.412324 0.156526
H16   H     H_    0.320945 0.596748 0.582368 0.143315
H17   H     H_    0.679998 0.583346 0.589223 0.149059
H18   H     H_    0.430970 0.213620 0.222938 0.185767
H19   H     H_    0.548443 0.775107 0.778611 0.187712
H20   H     H_    0.391521 0.185893 0.409971 0.115506
H21   H     H_    0.602526 0.816189 0.596808 0.116139
H22   H     H_    0.319157 0.700783 0.405129 0.252767
H23   H     H_    0.552669 0.046654 0.345434 0.141649
H24   H     H_    0.315795 0.797736 0.339501 0.252532
H25   H     H_    0.269636 0.668550 0.344206 0.266977
H26   H     H_    0.349376 0.620556 0.276195 0.236411
H27   H     H_    0.352840 0.523353 0.340867 0.243461
H28   H     H_    0.421867 0.672227 0.389466 0.254244
H29   H     H_    0.424110 0.752699 0.321670 0.171175
H30   H     H_    0.694229 0.289137 0.614681 0.266000
H31   H     H_    0.683090 0.213246 0.685278 0.259051
H32   H     H_    0.668613 0.134446 0.615200 0.253431
H33   H     H_    0.578589 0.209299 0.661842 0.214206
H34   H     H_    0.436261 0.949806 0.649204 0.137979
H35   H     H_    0.591053 0.280030 0.590475 0.254658
H36   H     H_    0.620431 0.474318 0.642539 0.206230
H37   H     H_    0.629133 0.398727 0.708525 0.185680
H38   H     H_    0.131560 0.790820 0.641421 0.255756
H39   H     H_    0.195366 0.785083 0.688978 0.255181
H40   H     H_    0.180131 0.916123 0.641652 0.254971
H41   H     H_    0.255234 0.781503 0.597441 0.214753
H42   H     H_    0.191637 0.785840 0.550373 0.263467
H43   H     H_    0.162128 0.586594 0.596913 0.206874
H44   H     H_    0.227228 0.579875 0.639859 0.204057
H45   H     H_    0.524927 0.113380 0.243025 0.149518
H46   H     H_    0.867810 0.550223 0.706514 0.248013
H47   H     H_    0.803488 0.629102 0.731415 0.271874
H48   H     H_    0.818449 0.471462 0.752266 0.247988
H49   H     H_    0.744889 0.480906 0.670782 0.232126
H50   H     H_    0.809146 0.404805 0.645494 0.254013
H51   H     H_    0.838810 0.603278 0.599434 0.204759
H52   H     H_    0.774032 0.677249 0.622334 0.211302
H53   H     H_    0.456151 0.876451 0.752265 0.148782
H54   H     H_    0.484900 0.880281 0.405900 0.159978
H55   H     H_    0.509464 0.119656 0.594426 0.160046
H56   H     H_    0.358653 0.398610 0.943331 0.188098
N1    N     N_R   0.852228 0.494301 0.500652 -0.472887
N2    N     N_1   0.678261 0.679076 0.717510 -0.291907
N3    N     N_R   0.148255 0.492061 0.494817 -0.471715
N4    N     N_R   0.487702 0.509829 0.841569 -0.444409
N5    N     N_R   0.502212 0.478444 0.158516 -0.446635
N6    N     N_R   0.500010 0.500010 0.350920 -0.180623
N7    N     N_R   0.499990 0.499990 0.649080 -0.173366
N8    N     N_1   0.307859 0.338404 0.080091 -0.236945
N9    N     N_1   0.681526 0.652117 0.920555 -0.242630
N10   N     N_1   0.305405 0.308626 0.293005 -0.269715
O1    O     O_R   0.500000 0.319610 0.550310 -0.591979
O2    O     O_2   0.153710 0.297358 0.539855 -0.538810
O3    O     O_2   0.855238 0.298110 0.544157 -0.551701
O4    O     O_2   0.145084 0.684942 0.447960 -0.552729
O5    O     O_2   0.579570 0.588871 0.841319 -0.559729
O6    O     O_2   0.408517 0.410474 0.159912 -0.556354
O7    O     O_2   0.394872 0.434763 0.841674 -0.544745
O8    O     O_2   0.595960 0.548046 0.158061 -0.539566
O9    O     O_R   0.500000 0.680390 0.449690 -0.603406
O10   O     O_R   0.499990 0.319670 0.449690 -0.578165
O11   O     O_R   0.500010 0.680330 0.550310 -0.576896
O12   O     O_R   0.417880 0.499930 0.550320 -0.586808
O13   O     O_R   0.582120 0.500070 0.449680 -0.580708
O14   O     O_R   0.417880 0.499990 0.449700 -0.593546
O15   O     O_R   0.582120 0.500010 0.550300 -0.597166
O16   O     O_2   0.846869 0.689391 0.455998 -0.531198

loop_
_geom_bond_atom_site_label_1
_geom_bond_atom_site_label_2
_ccdc_geom_bond_type
C63   C65   A    
C34   C56   A    
C23   C45   A    
C76   H36   S    
C73   C74   S    
C14   C18   A    
C24   C27   A    
C12   O11   A    
C81   C82   S    
C59   N3    A    
C5    N3    S    
C48   C57   A    
C47   C49   A    
C15   C19   A    
C79   H31   S    
C67   C88   A    
C48   H4    S    
C73   H29   S    
C33   C42   A    
C1    O10   A    
C36   C37   A    
C35   C37   A    
C68   H12   S    
C58   O3    S    
C11   C14   A    
C17   O13   A    
C81   H41   S    
C66   C69   A    
C41   N3    A    
C50   N7    A    
C58   C60   A    
C2    H17   S    
C33   C36   A    
C56   C78   A    
Cu2   O13   S    
C44   C71   S    
C60   C62   A    
C61   C63   A    
C86   N10   T    
Cu1   O11   S    
C62   C64   A    
C29   N4    A    
C84   H49   S    
C70   H10   S    
C22   C25   A    
C29   C38   A    
C45   C67   A    
C31   C33   A    
C64   C70   A    
C82   H40   S    
C35   C43   A    
C46   C72   S    
C40   N1    A    
C68   C70   A    
C48   C50   A    
C60   C66   A    
C72   N9    T    
C22   C28   A    
Cu2   O10   S    
C42   C44   A    
C3    C80   S    
C52   C54   A    
C53   C55   A    
C47   H3    S    
C79   H32   S    
C31   O7    S    
C59   C61   A    
C74   C75   S    
C32   C35   A    
C29   O5    S    
C18   H45   S    
C76   C77   S    
Cu1   O15   S    
Cu2   N6    S    
C87   N2    T    
C12   O9    A    
C83   H51   S    
C31   N4    A    
C58   N1    A    
C81   H42   S    
C41   C65   A    
C52   C76   S    
C52   N7    A    
C71   N8    T    
C49   H5    S    
C80   H43   S    
C6    C34   A    
C51   C53   A    
C2    C4    A    
Cu1   O12   S    
C62   C63   A    
C2    C78   A    
C45   H14   S    
C88   H16   S    
C59   O4    S    
C80   H44   S    
Cu1   N7    S    
C83   C84   S    
C5    C23   A    
C74   H26   S    
C79   H30   S    
Cu2   O14   S    
C32   N5    A    
C8    C21   A    
C75   H22   S    
C77   C79   S    
C10   H21   S    
C16   C67   S    
C84   C85   S    
C82   H39   S    
Cu1   O1    S    
C9    C11   A    
C82   H38   S    
C39   C44   A    
C69   H9    S    
C4    C6    A    
C15   H34   S    
C51   N6    A    
C13   C15   A    
Cu2   O9    S    
C1    C26   S    
C75   H25   S    
C30   O6    S    
C42   H56   S    
C85   H47   S    
C40   O16   S    
C77   H35   S    
C47   C55   A    
C9    H20   S    
C7    C9    A    
C74   H27   S    
C19   H53   S    
C73   H28   S    
C49   N6    A    
C19   C21   A    
C3    C88   A    
C75   H24   S    
C54   H8    S    
C51   C73   S    
C24   C26   A    
C80   C81   S    
C3    C5    A    
C10   C13   A    
C83   H52   S    
C21   H19   S    
C17   O15   A    
C55   N5    S    
C66   H1    S    
C25   C27   A    
C14   H23   S    
C26   C28   A    
C43   H2    S    
C40   C64   A    
C12   C25   S    
C24   H55   S    
C8    C87   S    
C53   H7    S    
C36   C38   A    
C37   C39   A    
C6    N1    S    
C61   C68   A    
C50   H6    S    
C30   N5    A    
C23   H11   S    
C4    C83   S    
C11   C28   S    
C16   O12   A    
C65   C69   A    
C32   O8    S    
C34   H13   S    
C1    O1    A    
C17   C78   S    
C30   C39   A    
C18   C20   A    
C57   N4    S    
C43   C46   A    
C56   H15   S    
C38   C46   A    
C85   H46   S    
C41   O2    S    
C7    C86   S    
C16   O14   A    
C84   H50   S    
C8    C10   A    
C7    C20   A    
C22   H54   S    
C76   H37   S    
C13   C27   S    
Cu1   Cu2   S    
C85   H48   S    
C77   H33   S    
C20   H18   S    
C54   C57   A    
