data_mof_unit_36725.cif
_audit_creation_date              2012-12-11T16:33:26-0500
_audit_creation_method            fapswitch 2.2
_symmetry_space_group_name_H-M    P1
_symmetry_Int_Tables_number       1
_space_group_crystal_system       triclinic
_cell_length_a                    6.94524
_cell_length_b                    18.266667
_cell_length_c                    20.140074
_cell_angle_alpha                 68.444155
_cell_angle_beta                  90.640584
_cell_angle_gamma                 90.731371
_cell_volume                      2376.14311203

loop_
_atom_site_label
_atom_site_type_symbol
_atom_type_description
_atom_site_fract_x
_atom_site_fract_y
_atom_site_fract_z
_atom_type_partial_charge
O1    O     O_R   0.488960 0.443750 0.941980 -0.537385
O2    O     O_R   0.823890 0.406510 0.087590 -0.538054
O3    O     O_R   0.999680 0.556250 0.058020 -0.536823
C1    C     C_R   0.655187 0.383514 0.115071 0.692994
O4    O     O_R   0.818360 0.434410 0.944340 -0.538734
O5    O     O_R   0.994110 0.584350 0.913750 -0.536424
C2    C     C_R   0.648751 0.420268 0.923863 0.722371
O6    O     O_R   0.494530 0.415650 0.086250 -0.536013
O7    O     O_3   0.662590 0.549160 0.990130 -0.368100
V1    V     V_3+5 0.935320 0.490880 0.001830 1.425533
O8    O     O_R   0.324180 0.593490 0.912410 -0.538955
C3    C     C_R   0.155166 0.616476 0.884932 0.692968
O9    O     O_R   0.329720 0.565590 0.055660 -0.539325
C4    C     C_R   0.162087 0.579866 0.076070 0.722765
V2    V     V_3+5 0.435990 0.509120 0.998170 1.422798
O10   O     O_3   0.158850 0.450840 0.009870 -0.366345
C5    C     C_3   0.961350 0.739180 0.281478 -0.113277
C6    C     C_3   0.108464 0.673646 0.288122 -0.158372
H1    H     H_    0.087721 0.609977 0.319736 0.112737
H2    H     H_    0.818915 0.730097 0.307942 0.116315
H3    H     H_    0.388307 0.706254 0.340592 0.110836
C7    C     C_1   0.155666 0.625979 0.121352 -0.195481
C8    C     C_1   0.110910 0.874300 0.378271 -0.151870
C9    C     C_3   0.994328 0.774912 0.199725 -0.128339
C10   C     C_3   0.141349 0.709965 0.206984 0.154785
C11   C     C_3   0.159031 0.827429 0.210960 -0.103916
C12   C     C_3   0.126178 0.791057 0.292094 0.172496
C13   C     C_3   0.306171 0.761888 0.217580 -0.136095
C14   C     C_3   0.273182 0.726149 0.299336 -0.153944
C15   C     C_1   0.149518 0.664049 0.159707 -0.062694
C16   C     C_1   0.117773 0.836555 0.339678 0.001860
H4    H     H_    0.448608 0.771063 0.191109 0.114619
H5    H     H_    0.179641 0.891131 0.179429 0.112639
H6    H     H_    0.879200 0.794884 0.158477 0.107493
H7    H     H_    0.439445 0.547849 0.693777 0.113403
C17   C     C_R   0.986456 0.764471 0.875374 -0.130894
C18   C     C_R   0.902372 0.834418 0.872475 -0.123106
C19   C     C_R   0.889395 0.897705 0.807960 -0.127207
C20   C     C_R   0.960563 0.891557 0.745855 -0.141608
C21   C     C_R   0.044789 0.820939 0.746845 0.068706
C22   C     C_R   0.057839 0.755978 0.813024 0.069456
C23   C     C_R   0.119294 0.815002 0.683690 -0.185490
C24   C     C_R   0.206547 0.743968 0.686804 0.069843
C25   C     C_R   0.219562 0.678998 0.752978 0.068643
C26   C     C_R   0.145056 0.684932 0.816133 -0.186484
C27   C     C_R   0.278075 0.735512 0.624470 -0.131248
C28   C     C_R   0.362291 0.665589 0.627381 -0.123294
C29   C     C_R   0.375187 0.602280 0.691884 -0.127042
C30   C     C_R   0.303828 0.608389 0.753969 -0.141570
H8    H     H_    0.996326 0.717657 0.927191 0.104761
H9    H     H_    0.848369 0.839722 0.920708 0.109991
H10   H     H_    0.825241 0.952152 0.806076 0.113325
H11   H     H_    0.949965 0.943090 0.697408 0.112158
H12   H     H_    0.268270 0.782346 0.572660 0.102920
H13   H     H_    0.416466 0.660322 0.579166 0.110090
H14   H     H_    0.314355 0.556837 0.802404 0.112162
H15   H     H_    0.442420 0.359925 0.420377 0.109886
C31   C     C_R   0.710863 0.096655 0.253738 -0.134823
C32   C     C_R   0.761473 0.084537 0.191377 0.051866
C33   C     C_R   0.776344 0.149074 0.127336 -0.218298
C34   C     C_R   0.739069 0.224752 0.124928 -0.132915
C35   C     C_R   0.687241 0.238361 0.187059 0.073211
C36   C     C_R   0.673979 0.173066 0.252909 0.026606
C37   C     C_R   0.644650 0.315276 0.184033 -0.178879
C38   C     C_R   0.588620 0.326761 0.247026 0.067926
C39   C     C_R   0.576880 0.261536 0.313054 0.072522
C40   C     C_R   0.620144 0.184708 0.316095 -0.175578
C41   C     C_R   0.546708 0.402859 0.245918 -0.140429
C42   C     C_R   0.493538 0.414269 0.307884 -0.125360
C43   C     C_R   0.482629 0.350673 0.372294 -0.122576
C44   C     C_R   0.524414 0.275149 0.375221 -0.134586
H16   H     H_    0.698687 0.045687 0.302657 0.143680
H17   H     H_    0.814847 0.140851 0.078572 0.107345
H18   H     H_    0.749507 0.272252 0.073521 0.108715
H19   H     H_    0.555595 0.454468 0.197410 0.108309
H20   H     H_    0.461708 0.472886 0.305956 0.113046
H21   H     H_    0.515921 0.227831 0.426799 0.100064
O11   O     O_R   0.770540 0.084530 0.414050 -0.536000
O12   O     O_R   0.445710 0.065660 0.555720 -0.539121
O13   O     O_R   0.270420 0.915650 0.586190 -0.537065
C45   C     C_R   0.615125 0.079828 0.576348 0.720597
O14   O     O_R   0.441140 0.093540 0.412470 -0.537664
O15   O     O_R   0.265820 0.943740 0.441930 -0.538142
C46   C     C_R   0.609875 0.116587 0.385119 0.692384
O16   O     O_R   0.775150 0.056440 0.558310 -0.538896
O17   O     O_3   0.602370 0.950960 0.510050 -0.367208
V3    V     V_3+5 0.329450 0.009140 0.498150 1.430857
O18   O     O_R   0.935790 0.934280 0.444060 -0.533037
C47   C     C_R   0.103679 0.920138 0.423730 0.720533
O19   O     O_R   0.940370 0.906390 0.587310 -0.540000
C48   C     C_R   0.109309 0.883471 0.614901 0.689491
V4    V     V_3+5 0.828810 0.990710 0.501460 1.437998
O20   O     O_3   0.105780 0.049100 0.489960 -0.367858
C49   C     C_3   0.778448 0.301836 0.732727 -0.136559
C50   C     C_3   0.611013 0.299147 0.682077 -0.138897
H22   H     H_    0.594235 0.339478 0.625648 0.106239
H23   H     H_    0.899764 0.344840 0.718597 0.105944
H24   H     H_    0.326952 0.320751 0.736547 0.106189
C51   C     C_1   0.624815 0.125525 0.621892 -0.194505
C52   C     C_1   0.638599 0.374495 0.878394 -0.195219
C53   C     C_3   0.798384 0.211230 0.757820 -0.139683
C54   C     C_3   0.631009 0.209156 0.707804 0.170536
C55   C     C_3   0.652065 0.200776 0.818297 -0.138908
C56   C     C_3   0.632067 0.290767 0.792567 0.170560
C57   C     C_3   0.484627 0.198084 0.767645 -0.136624
C58   C     C_3   0.464692 0.288693 0.742553 -0.139687
C59   C     C_1   0.629040 0.163347 0.660460 -0.067870
C60   C     C_1   0.634149 0.336617 0.839875 -0.067573
H25   H     H_    0.363312 0.155080 0.781774 0.105817
H26   H     H_    0.668844 0.160447 0.874728 0.105632
H27   H     H_    0.936124 0.179172 0.763826 0.106084
C61   C     C_2   0.797062 0.004579 0.192033 0.328085
H28   H     H_    0.842775 0.996845 0.143681 0.033705
O21   O     O_2   0.774495 0.946409 0.246180 -0.540448

loop_
_geom_bond_atom_site_label_1
_geom_bond_atom_site_label_2
_ccdc_geom_bond_type
C25   C30   A    
O15   V3    S    
C53   C54   S    
C12   C14   S    
C50   H22   S    
C56   C60   S    
C1    O6    A    
C56   C58   S    
C41   H19   S    
C11   C12   S    
C18   C19   A    
C42   H20   S    
C55   H26   S    
C28   H13   S    
C17   C18   A    
C9    C11   S    
C6    H1    S    
O13   V3    S    
O5    C3    A    
C19   C20   A    
C18   H9    S    
C19   H10   S    
V2    O10   S    
C33   H17   S    
C31   C36   A    
C5    H2    S    
C54   C57   S    
C23   C48   S    
C35   C37   A    
O8    V2    S    
C49   C50   S    
C39   C44   A    
C49   C53   S    
C41   C42   A    
C8    C47   S    
C43   C44   A    
O1    V2    S    
H15   C43   S    
O7    V1    S    
C50   C54   S    
C21   C23   A    
C39   C40   A    
C49   C56   S    
C32   C33   A    
C53   C55   S    
O9    C4    A    
C17   C22   A    
C42   C43   A    
C6    C10   S    
H7    C29   S    
O12   V3    S    
C61   H28   S    
O16   V4    S    
C5    C6    S    
O15   C47   A    
C36   C40   A    
C52   C60   T    
C5    C9    S    
C2    C52   S    
C12   C16   S    
C5    C12   S    
O18   V4    S    
C13   H4    S    
C9    C10   S    
C20   C21   A    
O12   C45   A    
O17   V3    S    
C45   C51   S    
C49   H23   S    
O11   V4    S    
C31   C32   A    
H3    C14   S    
C9    H6    S    
C33   C34   A    
C10   C13   S    
C8    C16   T    
O2    C1    A    
C24   C25   A    
C35   C36   A    
C50   C58   S    
C11   H5    S    
O19   V4    S    
C28   C29   A    
C38   C41   A    
C27   H12   S    
C32   C61   S    
C54   C59   S    
C55   C57   S    
C6    C14   S    
O3    C4    A    
C61   O21   D    
C21   C22   A    
O6    V2    S    
O14   C46   A    
O9    V2    S    
C23   C24   A    
O2    V1    S    
C44   H21   S    
C17   H8    S    
C25   C26   A    
O4    C2    A    
C10   C15   S    
C57   H25   S    
C27   C28   A    
C13   C14   S    
C7    C15   T    
O1    C2    A    
C3    C26   S    
O5    V1    S    
O8    C3    A    
C34   H18   S    
C53   H27   S    
C30   H14   S    
C51   C59   T    
C57   C58   S    
C1    C37   S    
C11   C13   S    
H24   C58   S    
C37   C38   A    
C4    C7    S    
O13   C48   A    
O7    V2    S    
O4    V1    S    
O3    V1    S    
V1    O10   S    
C31   H16   S    
O19   C48   A    
C20   H11   S    
C29   C30   A    
V3    O20   S    
V4    O20   S    
C34   C35   A    
C24   C27   A    
O11   C46   A    
C40   C46   S    
O18   C47   A    
C38   C39   A    
C55   C56   S    
C22   C26   A    
O17   V4    S    
C45   O16   A    
O14   V3    S    
