data_mof_unit_64578.cif
_audit_creation_date              2013-03-05T16:07:31-0500
_audit_creation_method            fapswitch 2.2
_symmetry_space_group_name_H-M    P1
_symmetry_Int_Tables_number       1
_space_group_crystal_system       triclinic
_cell_length_a                    30.258398
_cell_length_b                    31.928212
_cell_length_c                    21.360751
_cell_angle_alpha                 89.8798
_cell_angle_beta                  135.026245
_cell_angle_gamma                 90.080611
_cell_volume                      14585.525003

loop_
_atom_site_label
_atom_site_type_symbol
_atom_site_description
_atom_site_fract_x
_atom_site_fract_y
_atom_site_fract_z
_atom_type_partial_charge
O1    O     O_R   0.406950 0.500000 0.354430 -0.598863
O2    O     O_R   0.906950 0.000000 0.354430 -0.579858
O3    O     O_R   0.407010 0.500000 0.459520 -0.574591
O4    O     O_R   0.907010 0.000000 0.459520 -0.579709
C1    C     C_R   0.378492 0.499988 0.378527 0.964904
C2    C     C_R   0.878500 0.000175 0.378498 0.952098
O5    O     O_R   0.499970 0.561610 0.447450 -0.602030
O6    O     O_R   0.499970 0.438390 0.447450 -0.600072
O7    O     O_R   0.999970 0.061610 0.447450 -0.600136
O8    O     O_R   0.999970 0.938390 0.447450 -0.596869
O9    O     O_R   0.500030 0.561620 0.552540 -0.607889
O10   O     O_R   0.500030 0.438380 0.552540 -0.604949
O11   O     O_R   0.000030 0.061620 0.552540 -0.602134
O12   O     O_R   0.000030 0.938380 0.552540 -0.611183
C3    C     C_R   0.499973 0.581148 0.499887 0.908466
C4    C     C_R   0.500008 0.418850 0.500042 0.889425
C5    C     C_R   0.000014 0.081150 0.499931 0.885570
C6    C     C_R   0.999945 0.918852 0.499976 0.897960
Zn1   Zn    Zn3+2 0.499970 0.500000 0.429830 1.118982
Zn2   Zn    Zn3+2 0.999970 0.000000 0.429830 1.126798
Zn3   Zn    Zn3+2 0.500040 0.500000 0.570170 1.127221
Zn4   Zn    Zn3+2 0.000040 0.000000 0.570170 1.126376
O13   O     O_R   0.593000 0.500000 0.540480 -0.589362
O14   O     O_R   0.093000 0.000000 0.540480 -0.590076
O15   O     O_R   0.593060 0.500000 0.645570 -0.590399
O16   O     O_R   0.093060 0.000000 0.645570 -0.589194
C7    C     C_R   0.621328 0.499774 0.621394 1.021988
C8    C     C_R   0.121330 0.000205 0.621412 1.022158
C9    C     C_3   0.442394 0.763293 0.450637 0.198979
C10   C     C_3   0.442802 0.236687 0.453068 0.202352
C11   C     C_3   0.943034 0.263283 0.454048 0.201763
C12   C     C_3   0.942670 0.736671 0.453352 0.198759
C13   C     C_3   0.480743 0.735902 0.533914 0.327253
C14   C     C_3   0.482420 0.263897 0.536570 0.326093
C15   C     C_3   0.983463 0.235904 0.537553 0.326174
C16   C     C_3   0.982619 0.763899 0.536860 0.326697
C17   C     C_1   0.500085 0.625455 0.499683 -0.051462
C18   C     C_1   0.500194 0.374539 0.500169 -0.080482
C19   C     C_1   0.000199 0.125461 0.499810 -0.081641
C20   C     C_1   0.000008 0.874545 0.499968 -0.058434
C21   C     C_1   0.499981 0.874566 0.499384 -0.077221
C22   C     C_1   0.499978 0.125429 0.499474 -0.073912
C23   C     C_1   0.999996 0.374571 0.499431 -0.079772
C24   C     C_1   0.999946 0.625434 0.499420 -0.070028
C25   C     C_3   0.461099 0.735360 0.413007 -0.317730
C26   C     C_3   0.459936 0.264816 0.413414 -0.332284
C27   C     C_3   0.959090 0.235359 0.412945 -0.334149
C28   C     C_3   0.959308 0.764812 0.413063 -0.316316
C29   C     C_3   0.500563 0.708114 0.498405 -0.103913
C30   C     C_3   0.500697 0.291879 0.499033 -0.098542
C31   C     C_3   0.000681 0.208124 0.498562 -0.098537
C32   C     C_3   0.000407 0.791890 0.498686 -0.103500
C33   C     C_3   0.519326 0.763809 0.461940 0.200245
C34   C     C_3   0.517850 0.236380 0.460335 0.204688
C35   C     C_3   0.016794 0.263826 0.458625 0.206674
C36   C     C_3   0.017158 0.736401 0.459442 0.200096
C37   C     C_3   0.499615 0.791870 0.497442 -0.153827
C38   C     C_3   0.499677 0.208126 0.497856 -0.153103
C39   C     C_3   0.999677 0.291878 0.497595 -0.152286
C40   C     C_3   0.999474 0.708135 0.497600 -0.154639
C41   C     C_3   0.557992 0.736364 0.545234 0.161290
C42   C     C_3   0.557777 0.263642 0.543836 0.166767
C43   C     C_3   0.057525 0.236394 0.542119 0.166589
C44   C     C_3   0.057412 0.763680 0.542942 0.161180
C45   C     C_3   0.538140 0.763966 0.580666 0.257765
C46   C     C_3   0.539468 0.235845 0.581300 0.256585
C47   C     C_3   0.040273 0.263989 0.581031 0.256793
C48   C     C_3   0.039592 0.735874 0.581043 0.257112
C49   C     C_1   0.500276 0.662835 0.499204 0.199396
C50   C     C_1   0.500426 0.337158 0.499844 0.186895
C51   C     C_1   0.000423 0.162842 0.499380 0.186606
C52   C     C_1   0.000160 0.837166 0.499542 0.198949
C53   C     C_1   0.499850 0.837185 0.498595 0.218366
C54   C     C_1   0.499875 0.162811 0.498832 0.217042
C55   C     C_1   0.999891 0.337190 0.498698 0.216410
C56   C     C_1   0.999769 0.662817 0.498686 0.219883
H1    H     H_    0.429401 0.723828 0.343912 0.233192
H2    H     H_    0.427210 0.276494 0.344216 0.225498
H3    H     H_    0.925686 0.223824 0.343664 0.225172
H4    H     H_    0.926268 0.776482 0.343830 0.233473
C57   C     C_3   0.269847 0.465625 0.243048 0.389587
C58   C     C_3   0.269707 0.501627 0.328183 0.419604
C59   C     C_3   0.769859 0.007966 0.327060 0.410317
C60   C     C_3   0.769677 0.029282 0.231042 0.401637
C61   C     C_3   0.228861 0.465974 0.261294 -0.262586
C62   C     C_3   0.728843 0.038376 0.247870 -0.266149
H5    H     H_    0.210966 0.438392 0.269529 0.195670
H6    H     H_    0.711059 0.069342 0.245510 0.202636
C63   C     C_3   0.188906 0.500058 0.188968 -0.188202
C64   C     C_3   0.688924 0.000051 0.189084 -0.191952
C65   C     C_3   0.228735 0.498521 0.168636 -0.252034
C66   C     C_3   0.228787 0.535780 0.256873 -0.191432
C67   C     C_3   0.728971 0.969937 0.269248 -0.190757
C68   C     C_3   0.728654 0.991943 0.169782 -0.247070
C69   C     C_3   0.269796 0.533032 0.238910 0.227237
C70   C     C_3   0.769909 0.963213 0.251763 0.222809
C71   C     C_3   0.311179 0.500108 0.311493 -0.162781
C72   C     C_3   0.811201 0.000195 0.311315 -0.161704
H7    H     H_    0.210577 0.497099 0.101804 0.218202
H8    H     H_    0.210992 0.564690 0.261676 0.225227
H9    H     H_    0.711233 0.945433 0.283840 0.232465
H10   H     H_    0.710541 0.985371 0.103951 0.216947
C73   C     C_3   0.729415 0.538898 0.723022 0.259895
C74   C     C_3   0.729703 0.483762 0.784192 0.255123
C75   C     C_3   0.229717 0.013396 0.785882 0.257159
C76   C     C_3   0.229432 0.961526 0.718922 0.261286
C77   C     C_3   0.770458 0.523066 0.818264 0.260692
C78   C     C_3   0.270460 0.974551 0.815725 0.260290
C79   C     C_3   0.811620 0.499678 0.811896 -0.255034
C80   C     C_3   0.311627 0.000302 0.812022 -0.254947
C81   C     C_3   0.770238 0.515495 0.716346 0.254379
C82   C     C_3   0.770328 0.460335 0.777275 0.258990
C83   C     C_3   0.270338 0.039192 0.781614 0.262020
C84   C     C_3   0.270256 0.987289 0.714918 0.254189
C85   C     C_3   0.729448 0.476163 0.682233 0.259621
C86   C     C_3   0.229445 0.026176 0.685004 0.257735
C87   C     C_3   0.688231 0.499579 0.688520 -0.254960
C88   C     C_3   0.188238 0.000390 0.688627 -0.256610
O17   O     O_R   0.447530 0.000000 0.354370 -0.640412
O18   O     O_R   0.947530 0.500000 0.354370 -0.638553
O19   O     O_R   0.552560 0.000000 0.459510 -0.559633
O20   O     O_R   0.052560 0.500000 0.459510 -0.556640
C89   C     C_R   0.499922 0.999947 0.378505 1.020799
C90   C     C_R   0.999962 0.499768 0.378577 1.017719
O21   O     O_R   0.447490 0.938400 0.447370 -0.603585
O22   O     O_R   0.447490 0.061600 0.447370 -0.604135
O23   O     O_R   0.947490 0.438400 0.447370 -0.605738
O24   O     O_R   0.947490 0.561600 0.447370 -0.601049
O25   O     O_R   0.552530 0.938390 0.552510 -0.594837
O26   O     O_R   0.552530 0.061610 0.552510 -0.596506
O27   O     O_R   0.052530 0.438390 0.552510 -0.596202
O28   O     O_R   0.052530 0.561610 0.552510 -0.596444
C91   C     C_R   0.500008 0.918875 0.499935 0.879048
C92   C     C_R   0.500004 0.081122 0.499918 0.885761
C93   C     C_R   0.000010 0.418877 0.499940 0.874606
C94   C     C_R   0.000001 0.581124 0.499911 0.889082
Zn5   Zn    Zn3+2 0.429870 0.000000 0.429720 1.055889
Zn6   Zn    Zn3+2 0.929870 0.500000 0.429720 1.057310
Zn7   Zn    Zn3+2 0.570140 0.000000 0.570120 1.102741
Zn8   Zn    Zn3+2 0.070140 0.500000 0.570120 1.105607
O29   O     O_R   0.447440 0.000000 0.540340 -0.618411
O30   O     O_R   0.947440 0.500000 0.540340 -0.618569
O31   O     O_R   0.552480 0.000000 0.645470 -0.627952
O32   O     O_R   0.052480 0.500000 0.645470 -0.627610
C95   C     C_R   0.499960 0.000101 0.621495 0.875270
C96   C     C_R   0.999962 0.499948 0.621498 0.875128
O33   O     O_R   0.000050 0.534770 0.093010 -0.582893
O34   O     O_R   0.000050 0.465230 0.093010 -0.588044
O35   O     O_R   0.500050 0.034770 0.093010 -0.596791
O36   O     O_R   0.500050 0.965230 0.093010 -0.575813
C97   C     C_R   0.999932 0.499927 0.121431 1.033640
C98   C     C_R   0.499323 0.999942 0.120823 1.011432
O37   O     O_R   0.093030 0.534780 0.092960 -0.600700
O38   O     O_R   0.093030 0.465220 0.092960 -0.636364
O39   O     O_R   0.593030 0.034780 0.092960 -0.632815
O40   O     O_R   0.593030 0.965220 0.092960 -0.605427
C99   C     C_R   0.121697 0.500007 0.121573 0.988296
C100  C     C_R   0.621704 0.000006 0.121786 0.971794
Zn9   Zn    Zn3+2 0.000000 0.546450 0.999940 1.119077
Zn10  Zn    Zn3+2 0.000000 0.453550 0.999940 1.090178
Zn11  Zn    Zn3+2 0.500000 0.046450 0.999940 1.086964
Zn12  Zn    Zn3+2 0.500000 0.953550 0.999940 1.122492
O41   O     O_R   0.999950 0.534800 0.906860 -0.611489
O42   O     O_R   0.999950 0.465200 0.906860 -0.638574
O43   O     O_R   0.499950 0.034800 0.906860 -0.638660
O44   O     O_R   0.499950 0.965200 0.906860 -0.611409
O45   O     O_R   0.906980 0.534790 0.906910 -0.591467
O46   O     O_R   0.906980 0.465210 0.906910 -0.588281
O47   O     O_R   0.406980 0.034790 0.906910 -0.585004
O48   O     O_R   0.406980 0.965210 0.906910 -0.592252
C101  C     C_R   0.999657 0.500012 0.877797 0.908313
C102  C     C_R   0.499659 0.000064 0.877799 0.909811
C103  C     C_R   0.878500 0.499947 0.878592 1.027003
C104  C     C_R   0.378502 0.000051 0.878656 1.028372
C105  C     C_3   0.521977 0.036235 0.292485 0.310921
C106  C     C_3   0.535020 0.968506 0.305785 0.307948
C107  C     C_3   0.012809 0.538003 0.283691 0.310782
C108  C     C_3   0.043467 0.473005 0.314593 0.305556
C109  C     C_3   0.056552 0.511554 0.286971 0.101723
C110  C     C_3   0.557637 0.004878 0.287452 0.122853
C111  C     C_3   0.000755 0.499721 0.189271 -0.265907
C112  C     C_3   0.499254 0.999772 0.187782 -0.267754
C113  C     C_3   0.956944 0.526027 0.186531 0.350228
C114  C     C_3   0.987523 0.461289 0.217466 0.346934
C115  C     C_3   0.463446 0.030944 0.193218 0.339938
C116  C     C_3   0.476492 0.963560 0.206594 0.360631
C117  C     C_3   0.439210 0.994619 0.210341 -0.371054
C118  C     C_3   0.942265 0.487341 0.212981 -0.378688
C119  C     C_3   0.499229 0.999842 0.310832 -0.233233
C120  C     C_3   0.999572 0.499460 0.311266 -0.218747
H11   H     H_    0.390770 0.990415 0.179401 0.217333
H12   H     H_    0.895580 0.477418 0.183432 0.214982
C121  C     C_3   0.515076 0.961563 0.744333 -0.214522
C122  C     C_3   0.541607 0.028695 0.770789 -0.226506
C123  C     C_3   0.041100 0.471133 0.770496 -0.227160
C124  C     C_3   0.015784 0.538478 0.744763 -0.212738
C125  C     C_3   0.055477 0.509427 0.825625 0.483770
C126  C     C_3   0.555291 0.990302 0.825498 0.485433
H13   H     H_    0.528730 0.930321 0.739844 0.169898
H14   H     H_    0.576601 0.051332 0.787660 0.173940
H15   H     H_    0.075677 0.448197 0.787116 0.174148
H16   H     H_    0.030005 0.569593 0.740608 0.170539
C127  C     C_3   0.999029 0.499937 0.809693 -0.021228
C128  C     C_3   0.499026 0.000279 0.809688 -0.021078
C129  C     C_3   0.983164 0.461576 0.753565 -0.207593
C130  C     C_3   0.957902 0.528567 0.727986 -0.185161
C131  C     C_3   0.457382 0.971973 0.727666 -0.183791
C132  C     C_3   0.483853 0.038752 0.753985 -0.207851
C133  C     C_3   0.442088 0.010430 0.670850 -0.117853
C134  C     C_3   0.941915 0.490221 0.670752 -0.119456
C135  C     C_3   0.499860 0.000197 0.688913 -0.064643
C136  C     C_3   0.999869 0.499948 0.688925 -0.063976
H17   H     H_    0.969447 0.430343 0.758168 0.189416
H18   H     H_    0.923795 0.551699 0.712180 0.196973
H19   H     H_    0.422853 0.949137 0.711601 0.196600
H20   H     H_    0.470711 0.070102 0.758952 0.188966
H21   H     H_    0.395241 0.018805 0.605305 0.184053
H22   H     H_    0.894919 0.482221 0.605126 0.184069
O49   O     O_3   0.460316 0.720877 0.571454 -0.672673
H23   H     H_    0.451441 0.746177 0.587859 0.369507
O50   O     O_3   0.463650 0.278716 0.576356 -0.679331
H24   H     H_    0.455475 0.253326 0.593654 0.367735
O51   O     O_3   0.965792 0.220873 0.578754 -0.677505
H25   H     H_    0.958104 0.246170 0.596739 0.368292
O52   O     O_3   0.964313 0.778710 0.577262 -0.673357
H26   H     H_    0.956365 0.753316 0.594850 0.369264
N1    N     N_R   0.293841 0.569350 0.229444 0.238395
O53   O     O_R   0.280486 0.574842 0.157228 -0.318637
O54   O     O_R   0.328725 0.596497 0.293293 -0.365244
N2    N     N_R   0.794027 0.922843 0.255470 0.223644
O55   O     O_R   0.781578 0.889079 0.274784 -0.317849
O56   O     O_R   0.827943 0.920406 0.239071 -0.345766
O57   O     O_3   0.793542 0.547344 0.890621 -0.672615
H27   H     H_    0.756042 0.557979 0.875151 0.375185
O58   O     O_3   0.293496 0.947823 0.885306 -0.683209
H28   H     H_    0.255969 0.935994 0.868432 0.375383
O59   O     O_3   0.706276 0.579595 0.692993 -0.689953
H29   H     H_    0.743755 0.597736 0.727470 0.390713
O60   O     O_3   0.707400 0.467187 0.818198 -0.688807
H30   H     H_    0.745246 0.460237 0.880832 0.372424
O61   O     O_3   0.207505 0.027057 0.821646 -0.687281
H31   H     H_    0.245389 0.032791 0.884909 0.374614
O62   O     O_3   0.206312 0.921289 0.684545 -0.688928
H32   H     H_    0.243798 0.903345 0.717166 0.389965
O63   O     O_3   0.793158 0.531902 0.683106 -0.731482
H33   H     H_    0.755579 0.539081 0.620487 0.377810
O64   O     O_3   0.792616 0.419424 0.806562 -0.672971
H34   H     H_    0.754771 0.401607 0.771514 0.383236
O65   O     O_3   0.292672 0.079616 0.815376 -0.669384
H35   H     H_    0.254848 0.097267 0.782215 0.381439
O66   O     O_3   0.293207 0.973796 0.680104 -0.734783
H36   H     H_    0.255643 0.967913 0.616774 0.377537
O67   O     O_3   0.706668 0.451756 0.610178 -0.684296
H37   H     H_    0.744307 0.441175 0.625960 0.371628
O68   O     O_3   0.206593 0.053011 0.615654 -0.684372
H38   H     H_    0.244202 0.064731 0.632618 0.373516
N3    N     N_R   0.118477 0.524668 0.328475 0.231885
O69   O     O_R   0.161221 0.533403 0.412544 -0.283591
O70   O     O_R   0.131314 0.527961 0.282065 -0.443055
N4    N     N_R   0.621012 0.009579 0.327130 0.230863
O71   O     O_R   0.653627 0.042740 0.373172 -0.326202
O72   O     O_R   0.645316 0.980353 0.316890 -0.421589
O73   O     O_3   0.544848 0.074143 0.338718 -0.665912
H39   H     H_    0.550402 0.092403 0.307121 0.388400
O74   O     O_3   0.571882 0.935853 0.366058 -0.670260
H40   H     H_    0.586355 0.920257 0.343205 0.389567
O75   O     O_3   0.025359 0.578003 0.319597 -0.674192
H41   H     H_    0.031582 0.595905 0.288390 0.385843
O76   O     O_3   0.088125 0.445050 0.382634 -0.670132
H42   H     H_    0.108693 0.433033 0.365783 0.370640
O77   O     O_3   0.912639 0.554144 0.118621 -0.668887
H43   H     H_    0.891427 0.565842 0.134689 0.366009
O78   O     O_3   0.975357 0.421062 0.182609 -0.676296
H44   H     H_    0.968687 0.403487 0.213641 0.370274
O79   O     O_3   0.426892 0.063756 0.133289 -0.687476
H45   H     H_    0.409783 0.078002 0.153597 0.363950
O80   O     O_3   0.453641 0.925490 0.160989 -0.665268
H46   H     H_    0.442685 0.908908 0.187722 0.366146
O81   O     O_3   0.114347 0.519382 0.908818 -0.755674
H47   H     H_    0.141543 0.523676 0.899042 0.353006
O82   O     O_3   0.613988 0.979880 0.908565 -0.765966
H48   H     H_    0.641087 0.975346 0.898712 0.349291
N5    N     N_R   0.378620 0.776888 0.399379 0.247848
O83   O     O_R   0.334841 0.749172 0.363795 -0.277751
O84   O     O_R   0.364983 0.816522 0.388594 -0.352879
N6    N     N_R   0.379399 0.223069 0.403950 0.246248
O85   O     O_R   0.335891 0.250770 0.369936 -0.298558
O86   O     O_R   0.365823 0.183429 0.393535 -0.355358
N7    N     N_R   0.879917 0.276860 0.406439 0.246277
O87   O     O_R   0.836593 0.249132 0.373378 -0.297404
O88   O     O_R   0.866411 0.316490 0.396428 -0.355507
N8    N     N_R   0.879399 0.723030 0.404884 0.247967
O89   O     O_R   0.835943 0.750716 0.371252 -0.271737
O90   O     O_R   0.865885 0.683385 0.394652 -0.352189
O91   O     O_3   0.577868 0.778891 0.667363 -0.682012
H49   H     H_    0.595429 0.753551 0.705275 0.373046
O92   O     O_3   0.580488 0.220725 0.668119 -0.686296
H50   H     H_    0.598636 0.245980 0.706168 0.371445
O93   O     O_3   0.082147 0.278929 0.667958 -0.685571
H51   H     H_    0.100660 0.253596 0.705974 0.371443
O94   O     O_3   0.081003 0.720775 0.667914 -0.681049
H52   H     H_    0.099284 0.746040 0.705947 0.373259
N9    N     N_R   0.621933 0.722820 0.597334 0.254500
O95   O     O_R   0.665713 0.750556 0.633078 -0.271578
O96   O     O_R   0.635667 0.683188 0.608559 -0.330488
N10   N     N_R   0.621369 0.277197 0.593817 0.254989
O97   O     O_R   0.664874 0.249469 0.627991 -0.272004
O98   O     O_R   0.635070 0.316831 0.604725 -0.346976
N11   N     N_R   0.120843 0.222876 0.590601 0.254651
O99   O     O_R   0.164173 0.250628 0.623841 -0.273896
O100  O     O_R   0.134473 0.183249 0.601096 -0.344304
N12   N     N_R   0.120875 0.777267 0.592270 0.254600
O101  O     O_R   0.164330 0.749559 0.626035 -0.270103
O102  O     O_R   0.134510 0.816907 0.602996 -0.329681
N13   N     N_R   0.541351 0.778006 0.423008 0.264032
O103  O     O_R   0.556557 0.750703 0.395814 -0.286520
O104  O     O_R   0.545686 0.817767 0.414803 -0.325294
N14   N     N_R   0.538134 0.222398 0.419033 0.262725
O105  O     O_R   0.552165 0.249851 0.390302 -0.291150
O106  O     O_R   0.542082 0.182682 0.410242 -0.319535
N15   N     N_R   0.035923 0.278031 0.415824 0.262617
O107  O     O_R   0.049137 0.250733 0.385964 -0.291519
O108  O     O_R   0.039650 0.317793 0.406822 -0.336850
N16   N     N_R   0.036946 0.722430 0.417475 0.264136
O109  O     O_R   0.050601 0.749891 0.388259 -0.287339
O110  O     O_R   0.040799 0.682716 0.408547 -0.312510
O111  O     O_3   0.293482 0.429498 0.238463 -0.716670
H53   H     H_    0.256232 0.413177 0.188276 0.355949
O112  O     O_3   0.292727 0.503296 0.412456 -0.673083
H54   H     H_    0.255360 0.502098 0.402375 0.387790
O113  O     O_3   0.793189 0.016248 0.410283 -0.670094
H55   H     H_    0.756026 0.022468 0.399089 0.397794
O114  O     O_3   0.793006 0.059867 0.213754 -0.709250
H56   H     H_    0.755621 0.073460 0.157820 0.352770

loop_
_geom_bond_atom_site_label_1
_geom_bond_atom_site_label_2
_geom_bond_distance
_ccdc_geom_bond_type
C48   O94   1.397861 S    
C24   C94   1.414747 S    
C35   C39   1.541996 S    
O30   C96   1.277861 A    
O51   H25   0.991141 S    
O34   C97   1.265584 A    
C76   O62   1.397736 S    
N9    O96   1.300223 A    
O94   H52   0.991146 S    
C127  C129  1.535653 S    
C60   C62   1.539478 S    
C17   C49   1.193534 T    
C115  O79   1.397825 S    
C62   H6    1.110179 S    
C121  C135  1.535998 S    
O77   H43   0.991060 S    
C59   C67   1.539576 S    
C9    C13   1.533464 S    
C59   O113  1.397990 S    
C5    C19   1.414769 S    
C11   C39   1.542671 S    
C6    C20   1.414641 S    
O27   Zn8   2.002867 S    
O9    C3    1.283747 A    
O10   C4    1.283844 A    
O8    Zn2   2.002008 S    
N16   O109  1.300193 A    
O47   C104  1.265412 A    
C43   N11   1.456932 S    
C116  O80   1.397880 S    
O29   C95   1.277828 A    
C130  H18   1.110240 S    
O5    C3    1.283184 A    
C77   O57   1.397741 S    
C78   O58   1.397768 S    
O6    C4    1.283151 A    
C29   C49   1.445848 S    
O63   H33   0.991035 S    
C76   C88   1.540128 S    
O39   C100  1.268296 A    
O26   C92   1.284457 A    
C31   C51   1.445909 S    
C75   O61   1.397940 S    
C110  C112  1.536019 S    
C7    C87   1.430816 S    
C23   C55   1.193592 T    
C14   C30   1.539487 S    
O66   H36   0.991040 S    
C62   C64   1.545787 S    
C67   H9    1.109880 S    
C42   C46   1.535555 S    
C121  H13   1.110171 S    
C40   C56   1.446986 S    
C9    C25   1.552377 S    
C112  C115  1.536094 S    
C58   O112  1.398129 S    
Zn1   O13   2.024065 S    
C32   C52   1.445846 S    
C126  O82   1.397823 S    
C45   O91   1.397866 S    
N1    O53   1.300275 A    
C85   O67   1.397781 S    
C16   C48   1.536890 S    
N10   O97   1.300199 A    
C33   N13   1.457003 S    
C68   C70   1.539442 S    
O25   C91   1.284530 A    
O5    Zn1   2.003556 S    
C126  C128  1.517106 S    
C75   C88   1.541579 S    
O35   C98   1.267141 A    
O18   Zn6   2.023122 S    
Zn10  O42   2.020934 S    
C64   C67   1.544520 S    
C74   C87   1.541172 S    
O48   C104  1.268187 A    
C114  O78   1.397983 S    
C124  C125  1.532177 S    
C69   C71   1.525377 S    
C63   C99   1.437341 S    
C123  H15   1.110165 S    
O17   C89   1.273807 A    
C58   C61   1.539216 S    
C41   N9    1.456957 S    
C22   C92   1.414650 S    
C133  H21   1.110211 S    
O40   C100  1.268759 A    
C30   C50   1.445916 S    
C8    C88   1.430903 S    
C113  C118  1.546856 S    
N6    O86   1.300187 A    
C106  C119  1.534334 S    
O8    C6    1.283073 A    
C84   O66   1.397778 S    
N8    O90   1.300187 A    
C86   C88   1.540083 S    
C79   C103  1.430345 S    
Zn10  O46   2.023839 S    
C124  C130  1.551432 S    
C69   N1    1.455912 S    
O19   C89   1.277331 A    
C124  C136  1.536138 S    
C41   C45   1.535514 S    
C28   C32   1.557119 S    
C59   C62   1.539677 S    
C68   H10   1.110068 S    
N15   O107  1.300197 A    
C19   C51   1.193597 T    
C73   C77   1.536073 S    
C34   N14   1.457030 S    
C116  C117  1.547142 S    
C74   C77   1.534538 S    
Zn11  O43   2.022468 S    
C121  C126  1.532047 S    
O44   C102  1.270392 A    
C16   O52   1.397864 S    
C28   C36   1.554192 S    
C14   C46   1.536903 S    
C21   C91   1.414778 S    
C108  C109  1.531611 S    
O65   H35   0.991153 S    
C44   C48   1.535517 S    
C75   C83   1.533884 S    
C107  O75   1.397928 S    
O34   Zn10  2.022437 S    
O67   H37   0.991094 S    
C115  C117  1.546594 S    
C83   O65   1.398019 S    
N12   O101  1.300191 A    
C118  C120  1.554015 S    
O61   H31   0.991168 S    
C37   C53   1.447010 S    
C24   C56   1.193635 T    
O24   Zn6   2.002588 S    
C3    C17   1.414644 S    
N14   O106  1.300256 A    
C105  O73   1.398165 S    
Zn7   O31   2.023123 S    
C122  H14   1.110169 S    
Zn9   O45   2.023916 S    
C107  C109  1.530240 S    
C59   C72   1.528393 S    
C70   C72   1.525422 S    
C36   C44   1.534046 S    
C63   C65   1.544093 S    
O57   H27   0.991030 S    
C80   C84   1.539625 S    
C16   C32   1.539442 S    
C108  O76   1.397940 S    
C73   O59   1.397721 S    
Zn11  O47   2.023916 S    
C25   C33   1.554238 S    
O80   H46   0.991142 S    
C101  C127  1.441375 S    
O78   H44   0.991159 S    
N11   O100  1.300216 A    
O6    Zn1   2.002008 S    
C113  O77   1.397808 S    
C10   C14   1.533493 S    
C128  C132  1.535581 S    
C74   C82   1.533777 S    
C60   O114  1.397719 S    
O9    Zn3   2.002315 S    
C57   C65   1.541484 S    
O33   C97   1.267448 A    
O50   H24   0.991144 S    
O4    Zn4   2.024065 S    
C130  C134  1.547737 S    
O25   Zn7   2.002867 S    
C15   C47   1.536851 S    
O28   C94   1.284549 A    
N7    O87   1.300192 A    
O112  H54   0.990785 S    
O22   C92   1.284512 A    
N1    O54   1.300401 A    
C1    C71   1.439607 S    
C134  C136  1.535611 S    
O20   C90   1.276278 A    
C38   C54   1.446880 S    
Zn3   O15   2.025408 S    
C107  C120  1.533343 S    
C20   C52   1.193535 T    
C47   O93   1.397864 S    
C13   O49   1.397872 S    
C10   C26   1.552325 S    
O14   C8    1.275464 A    
N4    O71   1.300145 A    
C84   C86   1.535997 S    
O75   H41   0.991076 S    
C11   N7    1.456722 S    
C105  C110  1.531578 S    
O11   C5    1.283740 A    
C118  H12   1.110080 S    
O12   Zn4   2.003870 S    
O20   Zn8   2.021667 S    
C123  C136  1.536166 S    
C122  C126  1.533161 S    
C80   C104  1.430246 S    
C76   C78   1.536235 S    
C129  C134  1.547912 S    
C78   C80   1.539519 S    
O36   C98   1.266131 A    
C65   C69   1.541248 S    
C125  O81   1.397889 S    
C106  C110  1.531438 S    
N16   O110  1.300253 A    
N5    O83   1.300199 A    
C131  C133  1.547702 S    
C25   H1    1.110069 S    
C65   H7    1.110136 S    
C57   C61   1.540771 S    
C123  C125  1.533189 S    
C57   O111  1.397658 S    
C82   O64   1.398025 S    
C18   C50   1.193599 T    
O22   Zn5   2.002588 S    
C121  C131  1.551306 S    
C77   C79   1.539513 S    
O60   H30   0.991135 S    
C90   C120  1.429529 S    
C109  N3    1.456437 S    
O73   H39   0.991080 S    
C73   C87   1.540158 S    
O39   Zn11  2.024107 S    
O1    C1    1.278093 A    
C2    C72   1.439279 S    
O23   C93   1.284517 A    
O24   C94   1.284469 A    
C108  C120  1.533618 S    
C13   C29   1.539492 S    
O62   H32   0.991066 S    
C58   C66   1.539723 S    
C73   C81   1.535183 S    
C112  C116  1.536227 S    
C102  C128  1.441401 S    
Zn12  O44   2.020934 S    
C132  C133  1.548100 S    
C85   C87   1.540264 S    
N10   O98   1.300215 A    
O58   H28   0.991059 S    
C97   C111  1.431612 S    
O23   Zn6   2.002511 S    
O41   C101  1.270524 A    
C14   O50   1.397867 S    
O45   C103  1.268349 A    
C111  C113  1.536047 S    
C129  H17   1.110200 S    
N13   O103  1.300198 A    
C11   C27   1.552347 S    
O76   H42   0.991114 S    
C12   C28   1.552361 S    
O26   Zn7   2.002786 S    
C64   C68   1.544328 S    
O36   Zn12  2.022437 S    
C127  C130  1.534227 S    
O1    Zn1   2.025410 S    
C29   C41   1.540696 S    
O2    Zn2   2.025410 S    
C31   C43   1.540694 S    
O38   C99   1.268720 A    
O32   C96   1.279138 A    
Zn6   O30   2.022047 S    
O49   H23   0.991139 S    
C26   H2    1.110062 S    
C61   C63   1.544903 S    
C27   C31   1.557127 S    
C34   C42   1.534067 S    
O21   Zn5   2.002511 S    
C107  C113  1.532569 S    
C36   C40   1.541995 S    
O113  H55   0.990515 S    
C105  C115  1.532535 S    
O114  H56   0.991184 S    
O7    Zn2   2.003556 S    
Zn12  O48   2.023839 S    
C128  C131  1.534301 S    
C25   C29   1.557099 S    
C81   O63   1.397746 S    
C26   C34   1.554153 S    
C131  H19   1.110248 S    
C60   C68   1.542291 S    
C106  O74   1.398008 S    
O4    C2    1.275570 A    
C9    C37   1.542717 S    
C32   C44   1.540716 S    
C58   C71   1.528831 S    
C11   C15   1.533457 S    
O35   Zn11  2.020899 S    
C12   C40   1.542728 S    
C98   C112  1.431769 S    
C12   C16   1.533501 S    
O91   H49   0.991147 S    
C111  C114  1.537984 S    
Zn5   O29   2.022047 S    
C33   C37   1.542023 S    
Zn8   O32   2.023123 S    
C37   C45   1.541820 S    
O3    C1    1.274963 A    
C96   C136  1.442279 S    
O28   Zn8   2.002786 S    
C122  C132  1.549027 S    
C79   C81   1.539543 S    
O81   H47   0.991101 S    
O111  H53   0.991128 S    
O19   Zn7   2.021667 S    
C35   N15   1.457007 S    
N12   O102  1.300222 A    
O11   Zn4   2.002315 S    
O37   C99   1.268195 A    
N2    O55   1.300420 A    
C110  N4    1.455464 S    
C40   C48   1.541826 S    
Zn4   O16   2.025408 S    
C10   N6    1.456721 S    
C86   O68   1.397768 S    
C42   N10   1.456938 S    
C74   O60   1.397873 S    
N5    O84   1.300189 A    
O92   H50   0.991145 S    
O12   C6    1.283855 A    
C27   H3    1.110058 S    
O93   H51   0.991147 S    
O33   Zn9   2.020899 S    
C13   C45   1.536839 S    
N11   O99   1.300198 A    
C76   C84   1.534983 S    
N8    O89   1.300202 A    
N3    O69   1.300123 A    
O27   C93   1.284471 A    
N6    O85   1.300195 A    
C133  C135  1.535658 S    
C122  C135  1.536228 S    
C38   C46   1.541815 S    
N9    O95   1.300195 A    
N15   O108  1.300247 A    
C70   N2    1.456268 S    
C89   C119  1.430810 S    
O74   H40   0.991043 S    
C117  H11   1.110135 S    
C83   C86   1.533547 S    
C39   C47   1.541802 S    
O43   C102  1.269098 A    
O40   Zn12  2.024184 S    
C132  H20   1.110192 S    
O2    C2    1.277352 A    
C33   C41   1.534088 S    
C61   H5    1.110147 S    
O46   C103  1.265285 A    
C75   C78   1.534117 S    
C43   C47   1.535543 S    
N13   O104  1.300251 A    
O17   Zn5   2.023122 S    
Zn2   O14   2.024065 S    
N4    O72   1.299890 A    
C79   C82   1.542108 S    
O82   H48   0.991107 S    
C21   C53   1.193650 T    
O10   Zn3   2.003870 S    
C66   C69   1.539095 S    
C114  C118  1.547149 S    
C35   C43   1.534090 S    
N3    O70   1.299634 A    
C64   C100  1.437576 S    
N2    O56   1.300341 A    
O38   Zn10  2.024184 S    
N14   O105  1.300196 A    
C15   O51   1.397874 S    
C123  C129  1.548866 S    
C9    N5    1.456704 S    
O52   H26   0.991139 S    
C63   C66   1.545166 S    
C23   C93   1.414683 S    
C80   C83   1.541891 S    
C22   C54   1.193574 T    
C12   N8    1.456692 S    
O7    C5    1.283253 A    
O79   H45   0.991114 S    
C67   C70   1.541321 S    
O13   C7    1.275116 A    
C30   C42   1.540716 S    
Zn9   O41   2.022468 S    
O3    Zn3   2.024065 S    
C124  H16   1.110169 S    
O68   H38   0.991097 S    
C44   N12   1.456959 S    
C39   C55   1.446910 S    
O37   Zn9   2.024107 S    
C66   H8    1.110151 S    
C27   C35   1.554194 S    
C34   C38   1.541965 S    
O21   C91   1.284505 A    
O31   C95   1.279160 A    
C105  C119  1.534602 S    
O64   H34   0.991157 S    
C106  C116  1.530417 S    
O15   C7    1.274113 A    
C26   C30   1.557165 S    
C46   O92   1.397864 S    
O16   C8    1.273805 A    
C134  H22   1.110200 S    
C60   C72   1.526338 S    
C28   H4    1.110065 S    
C15   C31   1.539524 S    
C57   C71   1.526322 S    
C10   C38   1.542665 S    
N7    O88   1.300186 A    
C125  C127  1.517085 S    
O59   H29   0.991055 S    
C117  C119  1.555230 S    
O42   C101  1.268956 A    
C81   C85   1.535687 S    
C95   C135  1.442253 S    
C36   N16   1.457023 S    
C82   C85   1.533444 S    
C108  C114  1.530468 S    
O18   C90   1.274280 A    
C4    C18   1.414779 S    
C109  C111  1.537811 S    
