data_mof_unit_46518.cif
_audit_creation_date              2012-12-10T18:49:59-0500
_audit_creation_method            fapswitch 2.2
_symmetry_space_group_name_H-M    P1
_symmetry_Int_Tables_number       1
_space_group_crystal_system       triclinic
_cell_length_a                    10.659845
_cell_length_b                    9.840291
_cell_length_c                    10.638789
_cell_angle_alpha                 89.821713
_cell_angle_beta                  90.08869
_cell_angle_gamma                 90.093823
_cell_volume                      1115.95793712

loop_
_atom_site_label
_atom_site_type_symbol
_atom_type_description
_atom_site_fract_x
_atom_site_fract_y
_atom_site_fract_z
_atom_type_partial_charge
C1    C     C_R   0.259917 0.499843 0.499867 1.006456
C2    C     C_R   0.579205 0.927928 0.576866 -0.081832
C3    C     C_R   0.421105 0.928218 0.422729 -0.056575
C4    C     C_R   0.420910 0.072103 0.422903 -0.043011
C5    C     C_R   0.498914 0.499893 0.257579 0.893094
C6    C     C_R   0.739646 0.500108 0.500098 0.897439
C7    C     C_R   0.498279 0.499406 0.742386 0.912811
C8    C     C_3   0.381850 0.578422 0.072378 -0.428559
C9    C     C_3   0.489235 0.350388 0.072878 -0.454778
C10   C     C_3   0.383832 0.584479 0.927547 0.408494
C11   C     C_3   0.486702 0.347970 0.929502 0.433785
C12   C     C_3   0.620222 0.561026 0.927361 -0.626687
C13   C     C_3   0.619451 0.565169 0.071456 -0.420396
C14   C     C_3   0.497496 0.498859 0.121245 0.033694
C15   C     C_3   0.495854 0.497493 0.878918 0.015694
C16   C     C_3   0.182604 0.641353 0.860455 -0.246601
C17   C     C_3   0.388987 0.142461 0.881592 -0.191600
C18   C     C_R   0.062781 0.411249 0.581467 0.359944
C19   C     C_R   0.062932 0.587002 0.416847 0.346593
C20   C     C_R   0.934044 0.411590 0.580318 -0.251813
C21   C     C_R   0.934151 0.588030 0.419080 -0.214122
C22   C     C_R   0.871449 0.500263 0.500117 -0.145127
C23   C     C_R   0.127142 0.499397 0.499442 -0.233818
C24   C     C_R   0.579552 0.071830 0.576486 -0.079194
Cl1   Cl    Cl    0.138304 0.302639 0.689851 -0.547056
Cl2   Cl    Cl    0.138808 0.690928 0.304729 -0.693682
H1    H     H_    0.381814 0.683900 0.109949 0.169615
H2    H     H_    0.702972 0.510343 0.108720 0.190247
H3    H     H_    0.632388 0.666124 0.890155 0.207058
H4    H     H_    0.701827 0.500318 0.894422 0.195115
H5    H     H_    0.882688 0.344933 0.643345 0.175171
H6    H     H_    0.882837 0.654313 0.355699 0.182915
H7    H     H_    0.643016 0.126299 0.637833 0.122221
H8    H     H_    0.642380 0.873300 0.638517 0.131050
H9    H     H_    0.214244 0.710678 0.784006 0.153400
H10   H     H_    0.167565 0.698889 0.949047 0.166946
H11   H     H_    0.091114 0.597400 0.831660 0.207586
H12   H     H_    0.571504 0.290578 0.106372 0.152963
H13   H     H_    0.418014 0.099555 0.973989 0.105802
H14   H     H_    0.457519 0.113851 0.807859 0.140916
H15   H     H_    0.297480 0.096155 0.856310 0.216323
H16   H     H_    0.358370 0.873881 0.360694 0.180730
H17   H     H_    0.357759 0.126752 0.361234 0.135419
H18   H     H_    0.294354 0.528208 0.105965 0.231542
H19   H     H_    0.403366 0.300571 0.111144 0.206703
H20   H     H_    0.402035 0.692223 0.898538 0.057117
H21   H     H_    0.571954 0.292432 0.896116 0.042786
H22   H     H_    0.626042 0.672613 0.103341 0.200032
N1    N     N_R   0.499970 0.857200 0.499970 -0.087211
N2    N     N_R   0.499970 0.142800 0.499970 -0.078279
O1    O     O_R   0.316750 0.614620 0.499990 -0.589352
O2    O     O_3   0.374424 0.284971 0.886792 -0.498192
O3    O     O_R   0.316750 0.385380 0.499990 -0.578922
O4    O     O_R   0.499970 0.614670 0.314790 -0.619738
O5    O     O_R   0.499970 0.385330 0.314790 -0.639964
O6    O     O_R   0.683220 0.614710 0.500010 -0.625456
O7    O     O_R   0.683220 0.385290 0.500010 -0.625980
O8    O     O_R   0.500010 0.614660 0.685200 -0.652197
O9    O     O_R   0.500010 0.385340 0.685200 -0.593887
O10   O     O_3   0.269047 0.534505 0.877726 -0.525578
Zn1   Zn    Zn3+2 0.499980 0.653120 0.500000 0.963445
Zn2   Zn    Zn3+2 0.499980 0.346880 0.500000 0.986500

loop_
_geom_bond_atom_site_label_1
_geom_bond_atom_site_label_2
_ccdc_geom_bond_type
C10   H20   S    
C13   H22   S    
C10   O10   S    
C9    C14   S    
C13   H2    S    
C9    H19   S    
O4    Zn1   S    
C13   C14   S    
C12   H3    S    
C9    C11   S    
O3    Zn2   S    
C7    O8    A    
C11   H21   S    
C24   H7    S    
O1    Zn1   S    
C12   C15   S    
C16   H11   S    
C12   H4    S    
C2    H8    S    
O8    Zn1   S    
C7    C15   S    
C3    N1    A    
O7    Zn2   S    
C3    H16   S    
C21   C22   A    
C16   H10   S    
C24   N2    A    
C1    O1    A    
C6    O7    A    
C5    C14   S    
C18   Cl1   S    
C17   O2    S    
C7    O9    A    
C9    H12   S    
C2    N1    A    
C4    H17   S    
C20   C22   A    
C1    C23   S    
C18   C20   A    
C10   C15   S    
C16   H9    S    
C2    C24   A    
N2    Zn2   S    
C21   H6    S    
C17   H15   S    
N1    Zn1   S    
C18   C23   A    
C6    C22   S    
O5    Zn2   S    
C5    O4    A    
C12   C13   S    
C8    C10   S    
C16   O10   S    
C6    O6    A    
C8    H1    S    
C19   Cl2   S    
C17   H13   S    
C19   C23   A    
O9    Zn2   S    
C1    O3    A    
C11   O2    S    
C8    C14   S    
C19   C21   A    
O6    Zn1   S    
C11   C15   S    
C17   H14   S    
C5    O5    A    
C3    C4    A    
C8    H18   S    
C4    N2    A    
C20   H5    S    
