data_mof_unit_40815.cif
_audit_creation_date              2012-12-10T18:50:50-0500
_audit_creation_method            fapswitch 2.2
_symmetry_space_group_name_H-M    P1
_symmetry_Int_Tables_number       1
_space_group_crystal_system       triclinic
_cell_length_a                    10.700624
_cell_length_b                    9.851584
_cell_length_c                    15.72889
_cell_angle_alpha                 89.129742
_cell_angle_beta                  89.696324
_cell_angle_gamma                 90.1479
_cell_volume                      1657.88921665

loop_
_atom_site_label
_atom_site_type_symbol
_atom_type_description
_atom_site_fract_x
_atom_site_fract_y
_atom_site_fract_z
_atom_type_partial_charge
C1    C     C_R   0.259895 0.499844 0.500729 0.869603
C2    C     C_3   0.635131 0.422866 0.952338 0.887835
C3    C     C_3   0.616184 0.410709 0.051684 -0.475595
C4    C     C_1   0.505533 0.493918 0.825853 -0.002358
C5    C     C_1   0.506344 0.504959 0.173856 0.002770
C6    C     C_1   0.503560 0.503724 0.249224 -0.185931
C7    C     C_R   0.063767 0.380850 0.481216 -0.196000
C8    C     C_R   0.064111 0.617713 0.524451 -0.186289
C9    C     C_R   0.935848 0.381004 0.481109 -0.196947
C10   C     C_R   0.936043 0.617903 0.524269 -0.205427
C11   C     C_R   0.872460 0.499787 0.502041 -0.005964
C12   C     C_R   0.127439 0.499452 0.502271 -0.005094
C13   C     C_R   0.603862 0.071561 0.523601 -0.079669
C14   C     C_R   0.603947 0.927865 0.523404 -0.084365
C15   C     C_R   0.500500 0.501046 0.338199 0.905450
C16   C     C_R   0.396273 0.928451 0.475930 -0.072247
C17   C     C_R   0.396304 0.072139 0.475878 -0.069371
C18   C     C_R   0.740034 0.500067 0.500638 0.859145
C19   C     C_R   0.499616 0.498932 0.661754 0.906501
C20   C     C_3   0.528218 0.647482 0.045775 -0.421853
C21   C     C_3   0.382486 0.445712 0.050222 -0.419539
C22   C     C_3   0.392607 0.410946 0.954591 0.721203
C23   C     C_3   0.508356 0.649164 0.947969 0.696603
C24   C     C_1   0.501966 0.495995 0.750537 -0.202915
C25   C     C_3   0.508482 0.502774 0.082278 0.018075
C26   C     C_3   0.510135 0.494470 0.917377 -0.068887
H1    H     H_    0.313245 0.874691 0.456471 0.130078
H2    H     H_    0.313348 0.126392 0.456332 0.124209
H3    H     H_    0.464464 0.720078 0.077783 0.200521
H4    H     H_    0.307881 0.521918 0.061768 0.224447
H5    H     H_    0.354859 0.353410 0.087736 0.200919
H6    H     H_    0.624639 0.681828 0.061259 0.213912
H7    H     H_    0.704335 0.437491 0.084840 0.182387
H8    H     H_    0.590315 0.306883 0.073029 0.185639
H9    H     H_    0.112425 0.288997 0.463731 0.146654
H10   H     H_    0.113189 0.709379 0.542031 0.153131
H11   H     H_    0.886971 0.289175 0.463599 0.151873
H12   H     H_    0.887185 0.709613 0.541800 0.144852
H13   H     H_    0.686879 0.125300 0.543099 0.133230
H14   H     H_    0.686974 0.873624 0.542840 0.131907
N1    N     N_R   0.499970 0.857200 0.499980 -0.076636
N2    N     N_R   0.499970 0.142800 0.499980 -0.076177
O1    O     O_R   0.316750 0.614620 0.499990 -0.632623
O2    O     O_R   0.316750 0.385380 0.499990 -0.633297
O3    O     O_R   0.499990 0.614720 0.377140 -0.604404
O4    O     O_R   0.499990 0.385280 0.377140 -0.608215
O5    O     O_R   0.683220 0.614710 0.500000 -0.632317
O6    O     O_R   0.683220 0.385290 0.500000 -0.634144
O7    O     O_R   0.499980 0.614620 0.622860 -0.611897
O8    O     O_R   0.499980 0.385380 0.622860 -0.609698
Zn1   Zn    Zn3+2 0.499980 0.653120 0.500000 0.950701
Zn2   Zn    Zn3+2 0.499980 0.346880 0.500000 0.949274
Cl1   Cl    Cl    0.357517 0.731679 0.930541 -0.689685
Cl2   Cl    Cl    0.242824 0.453195 0.906909 -0.672160
O9    O     O_3   0.412653 0.267445 0.951956 -0.651014
C27   C     C_3   0.387387 0.205652 0.872878 0.164402
H15   H     H_    0.471133 0.147219 0.854218 0.164307
H16   H     H_    0.368209 0.277283 0.819541 0.170082
C28   C     C_3   0.278073 0.106405 0.883368 -0.335430
H17   H     H_    0.299492 0.031877 0.934944 0.264101
H18   H     H_    0.192453 0.162604 0.901591 0.253003
C29   C     C_3   0.253207 0.030579 0.801214 -0.897620
H19   H     H_    0.227982 0.103234 0.749431 0.256813
H20   H     H_    0.174447 0.958377 0.811255 0.285731
H21   H     H_    0.337223 0.972478 0.781839 0.267805
O10   O     O_3   0.611464 0.723339 0.911016 -0.640304
C30   C     C_3   0.579304 0.819950 0.847244 0.124983
H22   H     H_    0.536961 0.909989 0.877845 0.183849
H23   H     H_    0.513548 0.776620 0.800225 0.181640
C31   C     C_3   0.696622 0.866193 0.798737 -0.383511
H24   H     H_    0.770889 0.895175 0.844132 0.232042
H25   H     H_    0.732113 0.781884 0.759568 0.216263
C32   C     C_3   0.668776 0.986043 0.739267 -0.980742
H26   H     H_    0.587515 0.962404 0.698488 0.273672
H27   H     H_    0.751431 0.007469 0.698201 0.261703
H28   H     H_    0.647507 0.078355 0.775918 0.272927
O11   O     O_3   0.743115 0.506524 0.938059 -0.646059
C33   C     C_3   0.790004 0.507197 0.853310 0.102568
H29   H     H_    0.730664 0.569594 0.811360 0.160801
H30   H     H_    0.796319 0.404661 0.825520 0.163335
C34   C     C_3   0.920202 0.571027 0.852564 -0.315968
H31   H     H_    0.914151 0.677039 0.875422 0.240825
H32   H     H_    0.981358 0.512909 0.896611 0.275428
C35   C     C_3   0.977953 0.571894 0.763551 -0.902690
H33   H     H_    0.988262 0.466525 0.740377 0.269770
H34   H     H_    0.071847 0.620013 0.765281 0.305777
H35   H     H_    0.918503 0.630647 0.718624 0.239172
O12   O     O_3   0.651156 0.293442 0.912603 -0.686119
C36   C     C_3   0.728979 0.195727 0.954376 0.061006
H36   H     H_    0.733742 0.107370 0.911907 0.173175
H37   H     H_    0.685200 0.152850 0.012733 0.150875
C37   C     C_3   0.864957 0.240025 0.970068 -0.370056
H38   H     H_    0.911548 0.266029 0.908809 0.233320
H39   H     H_    0.868705 0.328827 0.012328 0.250874
C38   C     C_3   0.939213 0.125553 0.012241 -0.932165
H40   H     H_    0.895817 0.095699 0.074081 0.265195
H41   H     H_    0.036249 0.160429 0.024089 0.277068
H42   H     H_    0.942751 0.035863 0.970308 0.267952

loop_
_geom_bond_atom_site_label_1
_geom_bond_atom_site_label_2
_ccdc_geom_bond_type
O9    C27   S    
C11   C18   S    
C32   H26   S    
C38   H40   S    
C19   O8    A    
C35   H35   S    
C18   O5    A    
C34   H31   S    
C38   H42   S    
C22   Cl2   S    
O11   C33   S    
C21   H5    S    
C23   O10   S    
C35   H34   S    
C5    C6    T    
C4    C24   T    
C33   H30   S    
C20   C25   S    
C3    H7    S    
O4    Zn2   S    
C27   H15   S    
C8    H10   S    
C23   C26   S    
C17   N2    A    
C29   H20   S    
C6    C15   S    
C1    O1    A    
C16   C17   A    
O7    Zn1   S    
O8    Zn2   S    
C2    O12   S    
C31   H24   S    
C36   H37   S    
O2    Zn2   S    
C16   H1    S    
O10   C30   S    
C28   H17   S    
C21   C22   S    
C32   H27   S    
C1    C12   S    
C37   H39   S    
C13   N2    A    
C34   H32   S    
C23   Cl1   S    
C20   H3    S    
C7    C12   A    
C28   H18   S    
C30   H22   S    
C3    C25   S    
C35   H33   S    
C33   H29   S    
O5    Zn1   S    
C3    H8    S    
C37   C38   S    
C30   H23   S    
C29   H19   S    
C19   O7    A    
C1    O2    A    
C20   C23   S    
C8    C12   A    
C31   C32   S    
C9    H11   S    
C2    C26   S    
C36   C37   S    
C9    C11   A    
C14   N1    A    
C5    C25   S    
C32   H28   S    
C15   O3    A    
C34   C35   S    
C20   H6    S    
C7    C9    A    
C21   C25   S    
C28   C29   S    
C29   H21   S    
C17   H2    S    
C7    H9    S    
C18   O6    A    
C4    C26   S    
C38   H41   S    
C22   O9    S    
C21   H4    S    
C27   C28   S    
C10   H12   S    
C30   C31   S    
C2    C3    S    
C2    O11   S    
C33   C34   S    
O1    Zn1   S    
C37   H38   S    
C27   H16   S    
C19   C24   S    
C13   H13   S    
C10   C11   A    
C14   H14   S    
O6    Zn2   S    
O12   C36   S    
C8    C10   A    
C22   C26   S    
O3    Zn1   S    
C31   H25   S    
C15   O4    A    
C36   H36   S    
C13   C14   A    
C16   N1    A    
N1    Zn1   S    
N2    Zn2   S    
