data_mof_unit_46817.cif
_audit_creation_date              2013-03-05T16:01:05-0500
_audit_creation_method            fapswitch 2.2
_symmetry_space_group_name_H-M    P1
_symmetry_Int_Tables_number       1
_space_group_crystal_system       triclinic
_cell_length_a                    14.697681
_cell_length_b                    14.601408
_cell_length_c                    15.884887
_cell_angle_alpha                 77.085973
_cell_angle_beta                  102.617428
_cell_angle_gamma                 114.636468
_cell_volume                      2989.96427776

loop_
_atom_site_label
_atom_site_type_symbol
_atom_site_description
_atom_site_fract_x
_atom_site_fract_y
_atom_site_fract_z
_atom_type_partial_charge
O1    O     O_R   0.977900 0.338120 0.529810 -0.573376
O2    O     O_R   0.022100 0.661880 0.470190 -0.572718
O3    O     O_R   0.839850 0.379180 0.491620 -0.596615
O4    O     O_R   0.160150 0.620820 0.508380 -0.597545
C1    C     C_R   0.880792 0.311962 0.510400 0.821140
C2    C     C_R   0.119347 0.688230 0.488517 0.822837
O5    O     O_R   0.069010 0.479460 0.640020 -0.596262
O6    O     O_R   0.930990 0.520540 0.359980 -0.597720
O7    O     O_R   0.930960 0.520530 0.601820 -0.516867
O8    O     O_R   0.069040 0.479470 0.398180 -0.515178
C3    C     C_R   0.999459 0.500012 0.659882 0.836708
C4    C     C_R   0.000532 0.499971 0.340122 0.835825
Cu1   Cu    Cu3+1 0.081740 0.475690 0.522610 1.021289
Cu2   Cu    Cu3+1 0.918260 0.524310 0.477390 1.020855
C5    C     C_3   0.001540 0.413030 0.045248 0.332105
C6    C     C_3   0.998403 0.586828 0.954795 0.331736
C7    C     C_3   0.917099 0.422842 0.972062 -0.120049
C8    C     C_3   0.082844 0.577018 0.027980 -0.120102
H1    H     H_    0.848094 0.521672 0.019022 0.205235
H2    H     H_    0.151853 0.478187 0.981023 0.205231
C9    C     C_1   0.998411 0.500052 0.749079 -0.051749
C10   C     C_1   0.001554 0.499877 0.250940 -0.050356
C11   C     C_3   0.083840 0.488596 0.989319 -0.301558
C12   C     C_3   0.916106 0.511263 0.010723 -0.301839
C13   C     C_3   0.998342 0.499580 0.916005 -0.037859
C14   C     C_3   0.001602 0.500280 0.084034 -0.037981
C15   C     C_1   0.998119 0.499900 0.824412 0.149757
C16   C     C_1   0.001831 0.499987 0.175617 0.149514
C17   C     C_R   0.814226 0.203951 0.506331 -0.130129
C18   C     C_R   0.186275 0.797245 0.485440 -0.129224
C19   C     C_R   0.777986 0.030550 0.488863 -0.172346
C20   C     C_R   0.221530 0.975530 0.483470 -0.174714
C21   C     C_R   0.848029 0.130169 0.494915 -0.026878
C22   C     C_R   0.152542 0.874258 0.488479 -0.028172
C23   C     C_R   0.711462 0.176092 0.509213 -0.214900
C24   C     C_R   0.288366 0.823837 0.480242 -0.210755
C25   C     C_R   0.639317 0.079142 0.494501 0.093466
C26   C     C_R   0.359378 0.924662 0.479564 0.094792
C27   C     C_R   0.674625 0.005175 0.487048 0.129930
C28   C     C_R   0.323982 0.000762 0.481034 0.128449
C29   C     C_R   0.533428 0.053748 0.487412 0.073402
C30   C     C_R   0.464676 0.951507 0.479992 0.071658
C31   C     C_R   0.503697 0.879919 0.473261 -0.180170
C32   C     C_R   0.493931 0.127826 0.485143 -0.178706
C33   C     C_R   0.606447 0.906768 0.476133 -0.176571
C34   C     C_R   0.391306 0.101538 0.481899 -0.176421
H3    H     H_    0.632716 0.849718 0.469692 0.153222
H4    H     H_    0.364646 0.160661 0.481441 0.156650
H5    H     H_    0.310886 0.763158 0.478775 0.160632
H6    H     H_    0.689664 0.232077 0.523644 0.164192
H7    H     H_    0.803602 0.973529 0.481097 0.164193
H8    H     H_    0.196091 0.034700 0.485886 0.165008
H9    H     H_    0.457210 0.802433 0.463714 0.157036
H10   H     H_    0.539938 0.207825 0.484013 0.145146
N1    N     N_R   0.795440 0.560790 0.443380 -0.201392
N2    N     N_R   0.204560 0.439210 0.556620 -0.201047
C35   C     C_R   0.721185 0.676842 0.360210 -0.110704
C36   C     C_R   0.278524 0.322820 0.639452 -0.110387
C37   C     C_R   0.802622 0.646150 0.385414 0.057605
C38   C     C_R   0.197246 0.353735 0.614440 0.056216
C39   C     C_R   0.711119 0.505262 0.482363 0.107006
C40   C     C_R   0.288814 0.494622 0.517523 0.111063
C41   C     C_R   0.629771 0.537920 0.468237 -0.005062
C42   C     C_R   0.370052 0.461829 0.531551 -0.006697
C43   C     C_R   0.632868 0.621231 0.401106 0.010460
C44   C     C_R   0.366886 0.378456 0.598623 0.006958
C45   C     C_R   0.544269 0.488315 0.515551 -0.061170
C46   C     C_R   0.455516 0.511365 0.484198 -0.059025
C47   C     C_R   0.456207 0.583500 0.406992 0.286516
C48   C     C_R   0.543523 0.416121 0.592730 0.288270
C49   C     C_R   0.546536 0.644064 0.373705 -0.217907
C50   C     C_R   0.453190 0.355592 0.626026 -0.208172
H11   H     H_    0.545037 0.703835 0.320052 0.221030
H12   H     H_    0.454699 0.295896 0.679749 0.221966
H13   H     H_    0.291737 0.565145 0.477105 0.155121
H14   H     H_    0.708224 0.434727 0.522730 0.156872
H15   H     H_    0.128611 0.311447 0.643694 0.156905
H16   H     H_    0.871228 0.688440 0.356115 0.156647
C51   C     C_2   0.824105 0.335012 0.943565 0.955679
O9    O     O_2   0.766276 0.280628 0.995838 -0.536357
O10   O     O_R   0.803951 0.315585 0.857798 -0.713854
H17   H     H_    0.739236 0.254030 0.846819 0.370440
C52   C     C_2   0.175819 0.664866 0.056480 0.955900
O11   O     O_2   0.233699 0.719205 0.004233 -0.535812
O12   O     O_R   0.195882 0.684380 0.142211 -0.713953
H18   H     H_    0.260566 0.745968 0.153184 0.370180
C53   C     C_2   0.731619 0.765525 0.290365 0.825215
O13   O     O_2   0.806155 0.844777 0.296451 -0.546547
O14   O     O_R   0.659462 0.757094 0.215661 -0.726972
H19   H     H_    0.676014 0.822458 0.172442 0.365894
C54   C     C_2   0.267719 0.233672 0.708838 0.830303
O15   O     O_2   0.193126 0.154558 0.702186 -0.542647
O16   O     O_R   0.339550 0.241472 0.783737 -0.727949
H20   H     H_    0.322727 0.175828 0.826612 0.366006
N3    N     N_R   0.364970 0.587735 0.354001 0.101411
O17   O     O_R   0.360695 0.675135 0.316928 -0.373545
O18   O     O_R   0.291944 0.504333 0.331934 -0.304665
N4    N     N_R   0.634703 0.411704 0.645670 0.101907
O19   O     O_R   0.707670 0.494950 0.668118 -0.304635
O20   O     O_R   0.639032 0.324180 0.682200 -0.367307
N5    N     N_R   0.003021 0.316097 0.093552 0.155501
O21   O     O_R   0.003713 0.248919 0.052275 -0.296941
O22   O     O_R   0.004198 0.296253 0.177669 -0.285785
N6    N     N_R   0.996917 0.683764 0.906508 0.155933
O23   O     O_R   0.996236 0.750934 0.947801 -0.296386
O24   O     O_R   0.995703 0.703610 0.822387 -0.284801
C55   C     C_2   0.048672 0.853039 0.502132 0.888334
O25   O     O_2   0.009625 0.786802 0.560597 -0.534803
O26   O     O_R   0.997365 0.912612 0.450652 -0.711203
H21   H     H_    0.927566 0.891768 0.466592 0.354281
C56   C     C_2   0.953518 0.153632 0.484560 0.890341
O27   O     O_2   0.995935 0.224679 0.430628 -0.535684
O28   O     O_R   0.002693 0.091031 0.533769 -0.713452
H22   H     H_    0.074040 0.113928 0.520544 0.351649

loop_
_geom_bond_atom_site_label_1
_geom_bond_atom_site_label_2
_geom_bond_distance
_ccdc_geom_bond_type
C53   O13   1.222864 D    
C41   C43   1.419233 A    
O16   H20   1.013859 S    
N1    C37   1.353598 A    
C29   C30   1.425678 A    
N3    O17   1.301582 A    
C8    C14   1.541821 S    
N6    O24   1.300259 A    
O10   H17   1.013807 S    
O12   H18   1.013804 S    
O5    C3    1.293661 A    
C36   C44   1.421305 A    
N5    O21   1.300339 A    
O1    C1    1.297650 A    
C22   C55   1.481207 S    
C42   C46   1.441848 A    
C23   C25   1.403954 A    
C12   C14   1.551161 S    
C26   C30   1.428173 A    
C35   C37   1.396943 A    
C36   C38   1.396689 A    
C4    C10   1.420326 S    
C7    C51   1.498498 S    
C39   C41   1.420411 A    
O4    Cu1   1.932217 S    
C47   C49   1.393927 A    
C20   H8    1.085411 S    
C40   C42   1.420316 A    
C6    N6    1.457869 S    
C44   C50   1.398870 A    
C52   O11   1.222040 D    
C17   C21   1.418899 A    
C32   C34   1.384663 A    
C46   C47   1.425725 A    
C55   O25   1.223059 D    
C19   C21   1.398443 A    
C21   C56   1.480436 S    
C36   C54   1.482319 S    
C27   C33   1.390633 A    
Cu1   N2    2.020197 S    
C5    C11   1.545482 S    
Cu2   N1    2.020197 S    
C9    C15   1.197102 T    
C6    C12   1.545442 S    
C10   C16   1.197036 T    
Cu1   Cu2   2.689511 S    
C55   O26   1.397685 S    
O2    C2    1.298266 A    
C37   H16   1.082651 S    
N6    O23   1.300340 A    
C31   H9    1.075562 S    
C1    C17   1.476545 S    
C33   H3    1.084853 S    
C39   H14   1.074196 S    
C41   C45   1.441935 A    
C38   H15   1.082630 S    
C7    C12   1.555089 S    
C18   C22   1.418524 A    
C45   C46   1.438825 A    
C50   H12   1.078845 S    
C19   H7    1.085210 S    
C54   O15   1.222960 D    
C51   O10   1.396672 S    
C5    C14   1.533692 S    
O3    C1    1.302889 A    
C43   C49   1.399001 A    
C3    C9    1.420452 S    
C35   C53   1.482513 S    
C42   C44   1.419154 A    
C28   C34   1.390585 A    
O7    Cu2   1.934763 S    
C54   O16   1.398097 S    
O7    C3    1.294719 A    
C8    C11   1.555103 S    
H2    C11   1.110368 S    
O6    C4    1.293652 A    
C23   H6    1.075939 S    
C8    C52   1.498522 S    
C56   O28   1.397686 S    
C5    N5    1.457889 S    
C31   C33   1.385921 A    
O3    Cu2   1.932215 S    
O8    C4    1.294681 A    
O4    C2    1.303322 A    
C2    C18   1.478026 S    
N4    O20   1.301607 A    
C53   O14   1.398109 S    
C29   C32   1.416054 A    
N2    C40   1.360105 A    
C40   H13   1.074278 S    
O1    Cu1   1.948064 S    
C30   C31   1.417574 A    
C49   H11   1.078840 S    
O28   H22   1.013959 S    
N5    O22   1.300271 A    
C6    C13   1.533712 S    
C5    C7    1.534863 S    
O6    Cu2   1.929598 S    
C56   O27   1.222976 D    
C52   O12   1.396674 S    
C35   C43   1.421324 A    
C47   N3    1.436433 S    
O8    Cu1   1.934763 S    
N3    O18   1.301759 A    
C13   C15   1.453202 S    
C17   C23   1.399458 A    
C14   C16   1.453105 S    
C18   C24   1.401111 A    
C45   C48   1.425805 A    
C7    C13   1.541853 S    
C24   C26   1.404843 A    
H1    C12   1.110369 S    
C25   C27   1.414570 A    
O26   H21   1.013860 S    
C26   C28   1.415876 A    
N1    C39   1.360098 A    
C19   C27   1.400848 A    
C20   C28   1.400450 A    
C25   C29   1.425930 A    
O2    Cu2   1.948063 S    
C51   O9    1.222038 D    
C34   H4    1.084806 S    
C32   H10   1.076771 S    
O5    Cu1   1.929599 S    
C11   C13   1.551221 S    
N2    C38   1.353398 A    
C6    C8    1.534840 S    
N4    O19   1.301766 A    
C48   C50   1.393961 A    
O14   H19   1.013863 S    
C24   H5    1.073398 S    
C48   N4    1.436246 S    
C20   C22   1.397728 A    
