data_mof_unit_29861.cif
_audit_creation_date              2012-12-10T17:47:15-0500
_audit_creation_method            fapswitch 2.2
_symmetry_space_group_name_H-M    P1
_symmetry_Int_Tables_number       1
_space_group_crystal_system       triclinic
_cell_length_a                    11.662872
_cell_length_b                    14.77802
_cell_length_c                    14.953376
_cell_angle_alpha                 64.354898
_cell_angle_beta                  105.084557
_cell_angle_gamma                 102.635312
_cell_volume                      2226.60471649

loop_
_atom_site_label
_atom_site_type_symbol
_atom_type_description
_atom_site_fract_x
_atom_site_fract_y
_atom_site_fract_z
_atom_type_partial_charge
C1    C     C_R   0.481071 0.119637 0.312480 0.802664
C2    C     C_R   0.513732 0.880537 0.687399 0.808790
C3    C     C_R   0.449171 0.323722 0.001500 -0.087091
C4    C     C_R   0.512418 0.678845 0.997152 -0.075994
C5    C     C_R   0.485797 0.467179 0.051791 -0.163896
C6    C     C_R   0.457215 0.533505 0.948148 -0.165450
C7    C     C_R   0.409045 0.489843 0.875348 0.393030
C8    C     C_R   0.534106 0.509866 0.125222 0.405469
C9    C     C_R   0.421259 0.389281 0.900014 0.417102
C10   C     C_R   0.534067 0.612825 0.098935 0.387374
C11   C     C_R   0.710655 0.288194 0.662822 -0.206598
C12   C     C_R   0.285314 0.705583 0.346330 -0.201805
C13   C     C_R   0.671638 0.202885 0.637756 0.526871
C14   C     C_R   0.320781 0.790739 0.371048 0.518560
C15   C     C_R   0.512259 0.286893 0.509757 0.526882
C16   C     C_R   0.497376 0.720329 0.481696 0.629970
C17   C     C_R   0.544067 0.369839 0.539892 -0.146607
C18   C     C_R   0.463796 0.631989 0.459308 -0.152516
C19   C     C_R   0.656534 0.376832 0.600871 0.031326
C20   C     C_R   0.346782 0.620515 0.405060 -0.064658
C21   C     C_R   0.475646 0.452492 0.502141 0.014529
C22   C     C_R   0.535026 0.550522 0.494472 0.089693
C23   C     C_R   0.284285 0.999999 0.499856 0.789259
C24   C     C_R   0.715734 0.999920 0.500269 0.816395
C25   C     C_R   0.661798 0.560542 0.522837 -0.037079
C26   C     C_R   0.349308 0.438797 0.482854 -0.050325
C27   C     C_R   0.717590 0.473716 0.587530 -0.199854
C28   C     C_R   0.288431 0.522777 0.421428 -0.053303
C29   C     C_1   0.162522 0.999874 0.499962 -0.199054
C30   C     C_1   0.837534 0.000059 0.500232 -0.164224
C31   C     C_1   0.059945 0.999934 0.500053 0.000608
C32   C     C_1   0.940137 0.000037 0.500167 0.011839
C33   C     C_R   0.470545 0.187092 0.204533 -0.179480
C34   C     C_R   0.509556 0.814137 0.794796 -0.170712
C35   C     C_R   0.450289 0.220191 0.028076 -0.233580
C36   C     C_R   0.529351 0.783841 0.970538 -0.245097
C37   C     C_R   0.462510 0.151371 0.129403 0.482682
C38   C     C_R   0.529602 0.852722 0.869715 0.494276
C39   C     C_R   0.468346 0.289914 0.176980 -0.232429
C40   C     C_R   0.482465 0.709886 0.821367 -0.271917
C41   C     C_R   0.469463 0.360854 0.077670 0.041328
C42   C     C_R   0.480462 0.640302 0.921262 0.055383
Cu1   Cu    Cu3+1 0.469550 0.918260 0.475690 1.045447
Cu2   Cu    Cu3+1 0.530450 0.081740 0.524310 1.021498
H1    H     H_    0.468718 0.684231 0.762680 0.221430
H2    H     H_    0.460004 0.313009 0.233632 0.256478
H3    H     H_    0.442607 0.192529 0.970305 0.181974
H4    H     H_    0.544149 0.812123 0.028776 0.183937
H5    H     H_    0.812769 0.482286 0.616789 0.176130
H6    H     H_    0.192102 0.511634 0.398845 0.213238
N1    N     N_R   0.576230 0.204580 0.560790 -0.240829
N2    N     N_R   0.423770 0.795420 0.439210 -0.245324
O1    O     O_R   0.459870 0.022090 0.338120 -0.498202
O2    O     O_R   0.540130 0.977910 0.661880 -0.482093
O3    O     O_R   0.511290 0.160150 0.379180 -0.552585
O4    O     O_R   0.488710 0.839850 0.620820 -0.587680
O5    O     O_R   0.311490 0.930960 0.479480 -0.551832
O6    O     O_R   0.688510 0.069040 0.520520 -0.569718
O7    O     O_R   0.362910 0.069020 0.520540 -0.594908
O8    O     O_R   0.637090 0.930980 0.479460 -0.506989
O9    O     O_3   0.386609 0.351675 0.825587 -0.558143
C43   C     C_3   0.487445 0.363822 0.784194 -0.268750
H7    H     H_    0.566073 0.332962 0.843292 0.161811
H8    H     H_    0.511257 0.444495 0.736512 0.172344
H9    H     H_    0.465097 0.321194 0.735351 0.173673
O10   O     O_3   0.575884 0.650836 0.172824 -0.564055
C44   C     C_3   0.478778 0.644028 0.215933 -0.195656
H10   H     H_    0.449029 0.563878 0.262217 0.204800
H11   H     H_    0.402404 0.680527 0.157747 0.145750
H12   H     H_    0.508821 0.685316 0.266142 0.213642
C45   C     C_2   0.740339 0.656338 0.480806 0.469059
H13   H     H_    0.832154 0.665338 0.519277 0.039154
O11   O     O_2   0.705469 0.724153 0.400673 -0.527299
C46   C     C_2   0.281234 0.343187 0.542364 0.342306
H14   H     H_    0.328122 0.281980 0.601933 0.063815
O12   O     O_2   0.171951 0.331801 0.526488 -0.555249
O13   O     O_3   0.539052 0.956775 0.841103 -0.559091
C47   C     C_3   0.629973 0.990217 0.907218 -0.250223
H15   H     H_    0.655312 0.072505 0.867400 0.189826
H16   H     H_    0.712143 0.952670 0.929982 0.158979
H17   H     H_    0.596258 0.980094 0.974309 0.158419
O14   O     O_3   0.475092 0.051228 0.156178 -0.561233
C48   C     C_3   0.369813 0.003311 0.114953 -0.242944
H18   H     H_    0.287750 0.019031 0.128021 0.173730
H19   H     H_    0.372520 0.920371 0.152940 0.186816
H20   H     H_    0.364821 0.025114 0.033159 0.143273
O15   O     O_3   0.345780 0.541817 0.780307 -0.594562
C49   C     C_3   0.229670 0.545511 0.789244 -0.249496
H21   H     H_    0.231784 0.589559 0.834152 0.159830
H22   H     H_    0.181880 0.468138 0.822882 0.182853
H23   H     H_    0.177919 0.584409 0.712560 0.180973
O16   O     O_3   0.586810 0.453778 0.223138 -0.552601
C50   C     C_3   0.707439 0.450865 0.224916 -0.204766
H24   H     H_    0.758058 0.528044 0.201766 0.175754
H25   H     H_    0.715227 0.413658 0.176378 0.145433
H26   H     H_    0.749339 0.405518 0.303468 0.190436
O17   O     O_3   0.601276 0.731744 0.548389 -0.542666
C51   C     C_3   0.595378 0.660250 0.647936 -0.333974
H27   H     H_    0.503281 0.623689 0.659680 0.175648
H28   H     H_    0.633706 0.698994 0.700007 0.189386
H29   H     H_    0.653458 0.601047 0.670662 0.161443
O18   O     O_3   0.458361 0.308572 0.409454 -0.546560
C52   C     C_3   0.334536 0.275621 0.396130 -0.223610
H30   H     H_    0.300439 0.227276 0.466698 0.158009
H31   H     H_    0.284874 0.342448 0.353846 0.170842
H32   H     H_    0.312987 0.232029 0.348147 0.160866
O19   O     O_3   0.254229 0.871563 0.324918 -0.573124
C53   C     C_3   0.143297 0.842120 0.358135 -0.287148
H33   H     H_    0.105387 0.911366 0.342070 0.193679
H34   H     H_    0.152572 0.795495 0.440918 0.164523
H35   H     H_    0.077048 0.800732 0.316748 0.142120
O20   O     O_3   0.730567 0.117526 0.688945 -0.560604
C54   C     C_3   0.845302 0.138779 0.663575 -0.256083
H36   H     H_    0.913052 0.171058 0.712601 0.141970
H37   H     H_    0.846471 0.190235 0.582881 0.174509
H38   H     H_    0.874212 0.066579 0.676879 0.184384
C55   C     C_2   0.796289 0.279348 0.758941 0.346616
H39   H     H_    0.831325 0.208492 0.808961 0.096909
O21   O     O_2   0.823169 0.348597 0.787250 -0.566563
C56   C     C_2   0.194541 0.711297 0.253444 0.329515
H40   H     H_    0.154545 0.780366 0.205372 0.105189
O22   O     O_2   0.168586 0.641834 0.225459 -0.566219

loop_
_geom_bond_atom_site_label_1
_geom_bond_atom_site_label_2
_ccdc_geom_bond_type
C21   C26   A    
C4    C36   A    
C50   H24   S    
Cu2   O3    S    
O15   C49   S    
C35   H3    S    
O17   C51   S    
C1    C33   S    
C39   C41   A    
O13   C47   S    
C23   O7    A    
C11   C19   A    
C33   C39   A    
C46   O12   D    
C34   C40   A    
C23   C29   S    
C35   C37   A    
C13   O20   S    
C55   O21   D    
C5    C6    A    
C47   H16   S    
C16   O17   S    
Cu2   O7    S    
C53   H33   S    
C15   C17   A    
C1    O1    A    
C43   H8    S    
C26   C46   S    
C12   C56   S    
C28   H6    S    
Cu1   O1    S    
C14   N2    A    
C31   C32   S    
Cu2   O6    S    
C22   C25   A    
O19   C53   S    
C25   C45   S    
C15   N1    A    
C19   C27   A    
C54   H38   S    
C2    C34   S    
C40   C42   A    
O10   C44   S    
C50   H25   S    
C13   N1    A    
C21   C22   A    
O9    C43   S    
O20   C54   S    
C56   O22   D    
C24   C30   S    
C10   O10   S    
C40   H1    S    
C7    O15   S    
C46   H14   S    
C44   H10   S    
C24   O6    A    
C2    O2    A    
C45   O11   D    
C47   H15   S    
C20   C28   A    
C17   C21   A    
C44   H11   S    
C34   C38   A    
Cu1   Cu2   S    
C43   H7    S    
C3    C9    A    
C48   H18   S    
C49   H23   S    
C3    C35   A    
C24   O8    A    
C12   C20   A    
C23   O5    A    
C52   H31   S    
Cu1   O8    S    
C39   H2    S    
C8    O16   S    
Cu2   N1    S    
C8    C10   A    
C14   O19   S    
C48   H19   S    
C12   C14   A    
O14   C48   S    
C50   H26   S    
C51   H28   S    
C9    O9    S    
C37   O14   S    
C4    C10   A    
C11   C55   S    
C56   H40   S    
C54   H36   S    
C7    C9    A    
C5    C41   A    
C3    C41   A    
C43   H9    S    
C18   C22   A    
C16   N2    A    
C49   H22   S    
C5    C8    A    
C6    C7    A    
C38   O13   S    
C25   C27   A    
C51   H29   S    
C26   C28   A    
C53   H35   S    
C44   H12   S    
C36   C38   A    
C1    O3    A    
C45   H13   S    
C29   C31   T    
C2    O4    A    
C55   H39   S    
C30   C32   T    
C11   C13   A    
C47   H17   S    
C4    C42   A    
O16   C50   S    
C17   C19   A    
C53   H34   S    
C36   H4    S    
C52   H32   S    
C18   C20   A    
C15   O18   S    
O18   C52   S    
Cu1   N2    S    
C33   C37   A    
Cu1   O5    S    
Cu2   O2    S    
Cu1   O4    S    
C48   H20   S    
C49   H21   S    
C16   C18   A    
C51   H27   S    
C6    C42   A    
C52   H30   S    
C27   H5    S    
C54   H37   S    
