data_mof_unit_23355.cif
_audit_creation_date              2013-03-05T15:45:18-0500
_audit_creation_method            fapswitch 2.2
_symmetry_space_group_name_H-M    P1
_symmetry_Int_Tables_number       1
_space_group_crystal_system       triclinic
_cell_length_a                    23.388966
_cell_length_b                    10.723721
_cell_length_c                    10.047394
_cell_angle_alpha                 90.186793
_cell_angle_beta                  90.167329
_cell_angle_gamma                 90.404842
_cell_volume                      2519.9674505

loop_
_atom_site_label
_atom_site_type_symbol
_atom_site_description
_atom_site_fract_x
_atom_site_fract_y
_atom_site_fract_z
_atom_type_partial_charge
O1    O     O_R   0.499990 0.319060 0.613040 -0.595584
O2    O     O_R   0.500010 0.319100 0.386900 -0.631408
C1    C     C_R   0.500669 0.262722 0.499606 0.951094
O3    O     O_R   0.416150 0.499940 0.613100 -0.593662
O4    O     O_R   0.416160 0.499980 0.386960 -0.592335
C2    C     C_R   0.389536 0.499111 0.499817 1.001456
Zn1   Zn    Zn3+2 0.499990 0.499970 0.650990 1.071726
Zn2   Zn    Zn3+2 0.500010 0.500030 0.349010 1.065933
O5    O     O_R   0.499990 0.680900 0.613100 -0.589857
O6    O     O_R   0.500010 0.680940 0.386960 -0.576278
O7    O     O_R   0.583840 0.500020 0.613040 -0.580533
O8    O     O_R   0.583850 0.500060 0.386900 -0.578541
C3    C     C_R   0.497590 0.737139 0.500251 1.019084
C4    C     C_R   0.610291 0.501327 0.500401 0.943903
C5    C     C_R   0.879989 0.563917 0.592098 0.573707
N1    N     N_R   0.851314 0.477594 0.516894 -0.359854
C6    C     C_R   0.878791 0.387760 0.445624 0.576112
C7    C     C_R   0.938629 0.379028 0.451206 -0.120822
C8    C     C_R   0.969249 0.474646 0.519161 -0.061680
C9    C     C_R   0.939923 0.569927 0.588814 -0.123597
C10   C     C_R   0.968987 0.281693 0.387021 0.314664
C11   C     C_R   0.028571 0.286218 0.382960 -0.165666
C12   C     C_R   0.058942 0.382409 0.446149 -0.078726
C13   C     C_R   0.029432 0.475642 0.516390 -0.002342
C14   C     C_R   0.060222 0.570438 0.582971 -0.076348
C15   C     C_R   0.031099 0.663739 0.651953 -0.159713
C16   C     C_R   0.971533 0.666185 0.653673 0.315291
C17   C     C_R   0.118643 0.387220 0.441734 0.620599
N2    N     N_R   0.147479 0.481289 0.505272 -0.333617
C18   C     C_R   0.119886 0.571075 0.576552 0.614684
O9    O     O_2   0.850069 0.641949 0.670623 -0.444325
O10   O     O_2   0.847991 0.310412 0.366718 -0.454550
O11   O     O_2   0.147794 0.299550 0.373760 -0.488866
O12   O     O_2   0.150268 0.660625 0.640451 -0.490317
C19   C     C_R   0.236265 0.572217 0.416903 0.278559
C20   C     C_R   0.296310 0.577439 0.417556 0.160710
C21   C     C_R   0.327307 0.494437 0.499239 -0.318580
C22   C     C_R   0.298439 0.406253 0.579366 0.265423
C23   C     C_R   0.239050 0.403901 0.579039 -0.168320
C24   C     C_R   0.208262 0.484968 0.498575 0.083581
C25   C     C_R   0.757372 0.389042 0.566213 -0.024511
C26   C     C_R   0.698298 0.396909 0.562425 -0.202657
C27   C     C_R   0.672065 0.499663 0.502876 -0.129591
C28   C     C_R   0.705178 0.597542 0.448202 0.300228
C29   C     C_R   0.764664 0.586879 0.450552 -0.121127
C30   C     C_R   0.790515 0.483806 0.510113 0.204205
C31   C     C_2   0.488892 0.932805 0.388564 -0.046786
C32   C     C_2   0.489543 0.868246 0.501779 -0.237614
C33   C     C_2   0.486215 0.067056 0.391101 -0.111997
C34   C     C_2   0.503415 0.130797 0.498523 -0.256413
C35   C     C_2   0.540357 0.552007 0.925026 0.223821
N3    N     N_2   0.500610 0.501330 0.852150 -0.250710
C36   C     C_2   0.538296 0.558993 0.075743 0.227202
N4    N     N_2   0.500630 0.501360 0.147810 -0.249198
N5    N     N_R   0.940724 0.174150 0.331653 0.254279
O13   O     O_R   0.909411 0.103683 0.407927 -0.259970
O14   O     O_R   0.955783 0.132340 0.215285 -0.292577
H1    H     H_    0.672866 0.322428 0.605409 0.175519
N6    N     N_R   0.679769 0.709488 0.396505 0.249737
O15   O     O_R   0.632702 0.752685 0.446970 -0.357923
O16   O     O_R   0.707418 0.777581 0.310731 -0.266839
H2    H     H_    0.791334 0.660309 0.409787 0.202767
H3    H     H_    0.490847 0.887431 0.291931 0.217352
H4    H     H_    0.482663 0.910651 0.598460 0.164110
H5    H     H_    0.471441 0.113795 0.301673 0.190301
H6    H     H_    0.520875 0.087611 0.586966 0.159633
N7    N     N_R   0.588059 0.609622 0.860318 0.269604
O17   O     O_R   0.638171 0.558071 0.866289 -0.303754
O18   O     O_R   0.583304 0.721700 0.812770 -0.311249
H7    H     H_    0.464663 0.466976 0.897818 0.157586
N8    N     N_R   0.581194 0.632511 0.141220 0.273605
O19   O     O_R   0.571518 0.749635 0.165270 -0.320635
O20   O     O_R   0.633332 0.591516 0.147027 -0.292212
H8    H     H_    0.051127 0.211874 0.332628 0.231700
H9    H     H_    0.471815 0.442989 0.101564 0.146756
H10   H     H_    0.054531 0.738351 0.701168 0.230219
N9    N     N_R   0.944525 0.771611 0.714384 0.253561
O21   O     O_R   0.914964 0.847606 0.641059 -0.259415
O22   O     O_R   0.959862 0.806767 0.833386 -0.291837
N10   N     N_R   0.203688 0.657955 0.337811 0.248858
O23   O     O_R   0.159854 0.619014 0.268891 -0.327738
O24   O     O_R   0.216283 0.776344 0.338650 -0.251050
N11   N     N_R   0.325627 0.666610 0.335472 0.251048
O25   O     O_R   0.361618 0.745688 0.388198 -0.377159
O26   O     O_R   0.315150 0.671351 0.208341 -0.288834
N12   N     N_R   0.328579 0.315526 0.657319 0.234883
O27   O     O_R   0.370498 0.253133 0.605244 -0.378626
O28   O     O_R   0.308443 0.280737 0.772063 -0.321487
H11   H     H_    0.216224 0.337269 0.640332 0.210080
H12   H     H_    0.777501 0.309801 0.613121 0.183851

loop_
_geom_bond_atom_site_label_1
_geom_bond_atom_site_label_2
_geom_bond_distance
_ccdc_geom_bond_type
C35   C36   1.516848 S    
N5    O13   1.301502 A    
C7    C10   1.420678 A    
C25   C26   1.385246 A    
C19   N10   1.438231 S    
C8    C9    1.418543 A    
C26   H1    1.084120 S    
C31   C33   1.441618 S    
N9    O21   1.301473 A    
Zn1   O7    1.998979 S    
C15   C16   1.393783 A    
N2    C18   1.365079 A    
C33   H5    1.086982 S    
C22   N12   1.438197 S    
C20   C21   1.414862 A    
Zn1   N3    2.021149 S    
O2    C1    1.285530 A    
C31   H3    1.085821 S    
O4    C2    1.295271 A    
O7    C4    1.291439 A    
N12   O28   1.301390 A    
C32   H4    1.084138 S    
C20   N11   1.436647 S    
C5    N1    1.364324 A    
C29   H2    1.083316 S    
C7    C8    1.418696 A    
O5    C3    1.287259 A    
C31   C32   1.333664 D    
C36   N4    1.296663 D    
N1    C6    1.364103 A    
C15   H10   1.083834 S    
C25   C30   1.395163 A    
C25   H12   1.082978 S    
N6    O15   1.300953 A    
C10   C11   1.394821 A    
O3    Zn1   1.996447 S    
C1    C34   1.416641 S    
N9    O22   1.301165 A    
C5    C9    1.403321 A    
N6    O16   1.301839 A    
C18   O12   1.350188 S    
N7    O17   1.300755 A    
C13   C14   1.407808 A    
O3    C2    1.295667 A    
Zn2   N4    2.021725 S    
C23   C24   1.392091 A    
C10   N5    1.435056 S    
N12   O27   1.301020 A    
C14   C15   1.397592 A    
C29   C30   1.398970 A    
C35   N3    1.296916 D    
N7    O18   1.300172 A    
C19   C20   1.405097 A    
C27   C28   1.413529 A    
C21   C22   1.413298 A    
C3    C32   1.419846 S    
N11   O25   1.301058 A    
Zn2   O8    1.996449 S    
C6    C7    1.404312 A    
C2    C21   1.455979 S    
C35   N7    1.430498 S    
C12   C17   1.397774 A    
C34   H6    1.083575 S    
N10   O24   1.301261 A    
N11   O26   1.301151 A    
O8    C4    1.295679 A    
C17   O11   1.350099 S    
N5    O14   1.301276 A    
C26   C27   1.400121 A    
C11   H8    1.083764 S    
N1    C30   1.425486 S    
C36   N8    1.429213 S    
C28   C29   1.396937 A    
N8    O20   1.300397 A    
C14   C18   1.397140 A    
Zn1   O5    1.978457 S    
C17   N2    1.365176 A    
O1    Zn1   1.975923 S    
O2    Zn2   1.978456 S    
N10   O23   1.301122 A    
C16   N9    1.434267 S    
O6    C3    1.287814 A    
O4    Zn2   1.998975 S    
C5    O9    1.348939 S    
C9    C16   1.420844 A    
C8    C13   1.407947 A    
N8    O19   1.299811 A    
C22   C23   1.389109 A    
N2    C24   1.423723 S    
C19   C24   1.406139 A    
N3    H7    1.025725 S    
C12   C13   1.407848 A    
N4    H9    1.025782 S    
Zn2   O6    1.975924 S    
C33   C34   1.335198 D    
C6    O10   1.348849 S    
C11   C12   1.398021 A    
C28   N6    1.441000 S    
O1    C1    1.288395 A    
C23   H11   1.083614 S    
C4    C27   1.445220 S    
