data_mof_unit_27150.cif
_audit_creation_date              2012-12-10T17:36:49-0500
_audit_creation_method            fapswitch 2.2
_symmetry_space_group_name_H-M    P1
_symmetry_Int_Tables_number       1
_space_group_crystal_system       triclinic
_cell_length_a                    10.61565
_cell_length_b                    12.329219
_cell_length_c                    13.231512
_cell_angle_alpha                 116.732164
_cell_angle_beta                  77.073647
_cell_angle_gamma                 101.748384
_cell_volume                      1496.89830089

loop_
_atom_site_label
_atom_site_type_symbol
_atom_type_description
_atom_site_fract_x
_atom_site_fract_y
_atom_site_fract_z
_atom_type_partial_charge
C1    C     C_R   0.513782 0.854491 0.286490 0.795954
C2    C     C_3   0.011274 0.902617 0.514917 0.347931
C3    C     C_3   0.955993 0.896596 0.414087 -0.246637
C4    C     C_3   0.877502 0.001630 0.499712 -0.097488
C5    C     C_R   0.358150 0.270040 0.028288 -0.155674
C6    C     C_R   0.464039 0.226977 0.834980 -0.063277
C7    C     C_R   0.627076 0.811102 0.090882 -0.276875
C8    C     C_R   0.687215 0.727798 0.988378 0.301355
C9    C     C_R   0.654692 0.601708 0.956821 0.196844
C10   C     C_R   0.543759 0.559310 0.019403 -0.040745
C11   C     C_R   0.485485 0.645401 0.125393 0.038090
C12   C     C_R   0.740466 0.000392 0.499968 0.832956
C13   C     C_R   0.490389 0.434475 0.983081 0.113222
C14   C     C_R   0.401186 0.394761 0.060448 0.143440
C15   C     C_R   0.347010 0.480584 0.164456 -0.197616
C16   C     C_R   0.380916 0.604038 0.191899 -0.144636
C17   C     C_R   0.510813 0.350583 0.868697 -0.182973
C18   C     C_R   0.392471 0.185729 0.916266 -0.170112
C19   C     C_R   0.535289 0.770634 0.164267 -0.149609
C20   C     C_R   0.710266 0.346637 0.328366 0.188519
C21   C     C_R   0.323391 0.758401 0.644894 0.122534
C22   C     C_R   0.284488 0.660993 0.675513 -0.182582
C23   C     C_R   0.481669 0.145032 0.713309 0.808150
C24   C     C_R   0.351007 0.557998 0.620539 -0.162689
C25   C     C_R   0.458168 0.550992 0.533569 0.016819
C26   C     C_R   0.494031 0.653192 0.504925 0.289122
C27   C     C_R   0.530842 0.447016 0.474195 -0.058384
C28   C     C_R   0.637585 0.447420 0.387448 0.093224
C29   C     C_R   0.669972 0.548260 0.361236 -0.189139
C30   C     C_R   0.600231 0.648046 0.418366 -0.171528
C31   C     C_R   0.502585 0.341984 0.497169 0.038842
C32   C     C_R   0.676285 0.246885 0.355573 0.088583
C33   C     C_R   0.259534 0.999353 0.499699 0.818225
C34   C     C_3   0.988645 0.096604 0.484280 0.354117
C35   C     C_3   0.069183 0.992266 0.398530 -0.229053
C36   C     C_3   0.122442 0.997650 0.499528 -0.103447
C37   C     C_3   0.043867 0.102634 0.585133 -0.228387
C38   C     C_3   0.930735 0.006941 0.600672 -0.198425
Cu1   Cu    Cu3+1 0.529830 0.098270 0.475420 0.979394
Cu2   Cu    Cu3+1 0.470170 0.901730 0.524580 0.958628
H1    H     H_    0.128215 0.986659 0.316047 0.173847
H2    H     H_    0.324103 0.666375 0.266452 0.185705
H3    H     H_    0.731015 0.169060 0.310850 0.167528
H4    H     H_    0.271234 0.837929 0.688111 0.152436
H5    H     H_    0.202412 0.665332 0.742143 0.190246
H6    H     H_    0.354973 0.090185 0.891518 0.162445
H7    H     H_    0.271712 0.452385 0.221128 0.183000
H8    H     H_    0.293310 0.238617 0.088155 0.162269
N1    N     N_R   0.575030 0.246270 0.438190 -0.209253
N2    N     N_R   0.425760 0.754330 0.561190 -0.215059
O1    O     O_R   0.537510 0.972500 0.318130 -0.584303
O2    O     O_R   0.487140 0.806530 0.359650 -0.609138
O3    O     O_R   0.708330 0.082950 0.479220 -0.544541
O4    O     O_R   0.657960 0.916980 0.520740 -0.597758
O5    O     O_R   0.512860 0.193470 0.640350 -0.579090
O6    O     O_R   0.462490 0.027500 0.681870 -0.591325
O7    O     O_R   0.342040 0.083020 0.479260 -0.584905
O8    O     O_R   0.291670 0.917050 0.520780 -0.564481
H9    H     H_    0.554851 0.382517 0.803719 0.195710
H10   H     H_    0.662602 0.907389 0.118369 0.199458
Br1   Br    Br    0.784398 0.497653 0.849934 -0.424717
Br2   Br    Br    0.824839 0.791721 0.900821 -0.413095
H11   H     H_    0.750439 0.551692 0.295716 0.201416
Br3   Br    Br    0.856771 0.338924 0.210539 -0.475115
H12   H     H_    0.423673 0.334069 0.561544 0.132631
Br4   Br    Br    0.978448 0.239924 0.462774 -0.436123
H13   H     H_    0.316435 0.485544 0.647882 0.149365
H14   H     H_    0.633824 0.719552 0.391283 0.200428
H15   H     H_    0.082370 0.187121 0.654783 0.177004
H16   H     H_    0.871697 0.012492 0.683141 0.190997
Br5   Br    Br    0.021201 0.759029 0.536064 -0.440107
H17   H     H_    0.917271 0.812100 0.344553 0.167854

loop_
_geom_bond_atom_site_label_1
_geom_bond_atom_site_label_2
_ccdc_geom_bond_type
Cu1   O1    S    
C29   H11   S    
C33   O8    A    
C37   H15   S    
C34   C37   S    
C35   C36   S    
C15   H7    S    
C34   Br4   S    
C38   H16   S    
C7    C8    A    
C11   C19   A    
C37   C38   S    
C9    Br1   S    
C36   C37   S    
C26   N2    A    
C15   C16   A    
Cu1   O7    S    
C33   C36   S    
C34   C35   S    
C24   H13   S    
Cu1   O5    S    
C8    C9    A    
Cu2   O6    S    
C4    C12   S    
C9    C10   A    
C12   O3    A    
C21   C22   A    
C31   N1    A    
C18   H6    S    
C21   N2    A    
C6    C18   A    
C5    H8    S    
C4    C34   S    
C1    C19   S    
Cu2   O8    S    
C27   C31   A    
C23   O6    A    
C24   C25   A    
Cu1   Cu2   S    
C5    C18   A    
C20   C28   A    
C25   C26   A    
Cu2   O2    S    
C20   Br3   S    
C29   C30   A    
C21   H4    S    
C11   C16   A    
C2    C38   S    
C3    C35   S    
C1    O1    A    
C5    C14   A    
C17   H9    S    
Cu1   N1    S    
C4    C38   S    
C26   C30   A    
Cu2   O4    S    
C22   C24   A    
C3    C4    S    
C16   H2    S    
C7    H10   S    
C20   C32   A    
C2    C36   S    
C31   H12   S    
C6    C17   A    
C28   C29   A    
C33   O7    A    
C10   C13   A    
C23   O5    A    
C25   C27   A    
C7    C19   A    
C13   C17   A    
C2    C3    S    
Cu1   O3    S    
Cu2   N2    S    
C6    C23   S    
C32   H3    S    
C3    H17   S    
C35   H1    S    
C1    O2    A    
C30   H14   S    
C32   N1    A    
C10   C11   A    
C22   H5    S    
C27   C28   A    
C14   C15   A    
C13   C14   A    
C12   O4    A    
C2    Br5   S    
C8    Br2   S    
