data_mof_unit_35150.cif
_audit_creation_date              2012-12-11T15:32:13-0500
_audit_creation_method            fapswitch 2.2
_symmetry_space_group_name_H-M    P1
_symmetry_Int_Tables_number       1
_space_group_crystal_system       triclinic
_cell_length_a                    13.568323
_cell_length_b                    13.588661
_cell_length_c                    27.681855
_cell_angle_alpha                 90.365542
_cell_angle_beta                  90.219055
_cell_angle_gamma                 119.96244
_cell_volume                      4421.50226315

loop_
_atom_site_label
_atom_site_type_symbol
_atom_type_description
_atom_site_fract_x
_atom_site_fract_y
_atom_site_fract_z
_atom_type_partial_charge
C1    C     C_R   0.619454 0.898427 0.431253 0.546055
C2    C     C_R   0.276304 0.893223 0.257423 -0.100786
C3    C     C_R   0.257249 0.883869 0.207463 -0.104018
C4    C     C_R   0.599683 0.218476 0.431286 0.545836
C5    C     C_R   0.053716 0.784504 0.221176 -0.101008
C6    C     C_R   0.072767 0.793748 0.271133 -0.104073
C7    C     C_R   0.184164 0.847695 0.289375 0.041896
C8    C     C_R   0.145837 0.829029 0.189219 0.041787
C9    C     C_1   0.124181 0.813836 0.137955 -0.055110
C10   C     C_1   0.205649 0.854377 0.340633 -0.055036
C11   C     C_1   0.096900 0.794430 0.095935 -0.011236
C12   C     C_R   0.630964 0.234755 0.208661 -0.104079
C13   C     C_1   0.634501 0.866049 0.383607 -0.011302
C14   C     C_R   0.701107 0.771709 0.272760 -0.104023
C15   C     C_R   0.708687 0.759764 0.222882 -0.100963
C16   C     C_R   0.279508 0.878869 0.430531 0.545303
C17   C     C_R   0.608239 0.862676 0.208260 -0.104048
C18   C     C_R   0.600560 0.874521 0.258132 -0.100820
C19   C     C_R   0.647418 0.829571 0.290503 0.041867
C20   C     C_R   0.662741 0.805625 0.190509 0.041792
C21   C     C_1   0.675813 0.796707 0.139313 -0.055280
C22   C     C_1   0.642095 0.846263 0.341669 -0.055033
C23   C     C_R   0.620253 0.217271 0.258553 -0.100776
C24   C     C_1   0.693119 0.786944 0.097321 -0.011574
C25   C     C_R   0.631979 0.261999 0.618539 0.026227
C26   C     C_R   0.693061 0.222517 0.645457 -0.124497
C27   C     C_R   0.697827 0.231725 0.695114 -0.125932
C28   C     C_R   0.620385 0.900954 0.569102 0.540067
C29   C     C_R   0.646292 0.285364 0.718721 0.036170
C30   C     C_R   0.591697 0.331950 0.691677 -0.119325
C31   C     C_R   0.583042 0.318736 0.641719 -0.132018
C32   C     C_R   0.562377 0.290044 0.797482 -0.130380
C33   C     C_R   0.577351 0.321603 0.845734 -0.141777
C34   C     C_R   0.665997 0.310272 0.290659 0.041902
C35   C     C_R   0.768290 0.346327 0.844339 -0.006029
C36   C     C_R   0.753068 0.317990 0.795430 -0.097699
C37   C     C_R   0.652995 0.295878 0.771368 0.023661
C38   C     C_R   0.682963 0.358670 0.868606 0.034625
C39   C     C_R   0.225624 0.864415 0.615311 0.023797
C40   C     C_R   0.600564 0.220512 0.569218 0.539539
C41   C     C_R   0.245885 0.959611 0.643119 -0.125788
C42   C     C_R   0.220606 0.948159 0.691975 -0.121467
C43   C     C_R   0.172737 0.841097 0.713506 0.035937
C44   C     C_R   0.144327 0.744687 0.684897 -0.119649
C45   C     C_R   0.687711 0.345440 0.190663 0.041822
C46   C     C_R   0.171305 0.756359 0.636102 -0.127522
C47   C     C_R   0.175598 0.754592 0.792147 -0.118640
C48   C     C_R   0.147523 0.736052 0.840770 -0.129541
C49   C     C_R   0.086593 0.876207 0.838286 -0.126071
C50   C     C_R   0.113072 0.893457 0.789612 -0.122070
C51   C     C_R   0.154435 0.830241 0.765847 0.036543
C52   C     C_R   0.280056 0.881710 0.568292 0.541484
C53   C     C_R   0.099159 0.793953 0.863701 0.023272
C54   C     C_R   0.638023 0.863422 0.616163 0.022217
C55   C     C_R   0.545440 0.772112 0.638959 -0.124629
C56   C     C_1   0.694376 0.365356 0.139458 -0.055304
C57   C     C_R   0.550951 0.753107 0.687792 -0.121975
C58   C     C_R   0.649867 0.823600 0.714424 0.036782
C59   C     C_R   0.745655 0.909119 0.690827 -0.122863
C60   C     C_R   0.739623 0.929316 0.642010 -0.133536
C61   C     C_R   0.709208 0.904551 0.797388 -0.119297
C62   C     C_R   0.722593 0.890640 0.846223 -0.127435
C63   C     C_R   0.612670 0.686011 0.835429 -0.128109
C64   C     C_1   0.631024 0.264411 0.383698 -0.011358
C65   C     C_R   0.601073 0.699871 0.786502 -0.123293
C66   C     C_R   0.652501 0.809163 0.766837 0.035831
C67   C     C_1   0.650132 0.290312 0.341789 -0.055092
C68   C     C_R   0.677815 0.781214 0.865109 0.024119
C69   C     C_R   0.049282 0.761102 0.048252 0.546234
C70   C     C_R   0.714338 0.435799 0.049735 0.544358
C71   C     C_R   0.723610 0.770710 0.049563 0.545018
C72   C     C_R   0.044024 0.755940 0.910534 0.542990
C73   C     C_R   0.707126 0.426452 0.913066 0.542506
C74   C     C_R   0.717024 0.765222 0.911991 0.540562
C75   C     C_R   0.723723 0.420954 0.272678 -0.104078
C76   C     C_R   0.734544 0.438441 0.222779 -0.100927
C77   C     C_3   0.878035 0.368231 0.867936 -0.378549
C78   C     C_1   0.701714 0.390832 0.097455 -0.011544
C79   C     C_1   0.232566 0.862918 0.382689 -0.011225
Cr1   Cr    Cr6+3 0.417720 0.831920 0.499820 1.023663
Cr2   Cr    Cr6+3 0.668190 0.085770 0.500360 1.023175
Cr3   Cr    Cr6+3 0.414060 0.082260 0.499840 1.025324
Cr4   Cr    Cr6+3 0.908000 0.821090 0.979770 1.023358
Cr5   Cr    Cr6+3 0.912420 0.571130 0.979880 1.013632
Cr6   Cr    Cr6+3 0.657970 0.566940 0.980940 1.023360
H1    H     H_    0.759134 0.493436 0.297090 0.103569
H2    H     H_    0.554181 0.376805 0.709146 0.101789
H3    H     H_    0.778139 0.524481 0.209209 0.098862
H4    H     H_    0.535036 0.348940 0.621492 0.120699
H5    H     H_    0.288830 0.044227 0.628077 0.135387
H6    H     H_    0.210874 0.707500 0.774800 0.103851
H7    H     H_    0.158715 0.672796 0.859746 0.122225
H8    H     H_    0.243780 0.023849 0.713293 0.101797
H9    H     H_    0.095706 0.952047 0.770110 0.101155
H10   H     H_    0.048990 0.921839 0.855016 0.133152
H11   H     H_    0.104080 0.660725 0.700528 0.104862
H12   H     H_    0.751437 0.715812 0.209537 0.098638
H13   H     H_    0.154461 0.681796 0.615212 0.124854
H14   H     H_    0.465768 0.719812 0.619977 0.131792
H15   H     H_    0.593934 0.162285 0.184237 0.103299
H16   H     H_    0.746329 0.989792 0.783245 0.101229
H17   H     H_    0.772584 0.965112 0.868679 0.122177
H18   H     H_    0.475842 0.686765 0.705105 0.099822
H19   H     H_    0.557282 0.624915 0.763722 0.100297
H20   H     H_    0.578337 0.600594 0.849088 0.131822
H21   H     H_    0.824216 0.962280 0.710390 0.100975
H22   H     H_    0.812367 0.999810 0.625201 0.124450
H23   H     H_    0.572830 0.898866 0.183664 0.103293
H24   H     H_    0.575161 0.131246 0.272104 0.098565
H25   H     H_    0.362878 0.934875 0.271154 0.098455
H26   H     H_    0.329082 0.918159 0.183189 0.103416
H27   H     H_    0.967121 0.741469 0.207443 0.098756
H28   H     H_    0.000909 0.757944 0.295401 0.103340
H29   H     H_    0.737903 0.736896 0.297354 0.103559
H30   H     H_    0.860424 0.325645 0.903518 0.140187
H31   H     H_    0.922130 0.333641 0.845790 0.098348
H32   H     H_    0.936916 0.460919 0.872197 0.171811
H33   H     H_    0.559077 0.919724 0.271468 0.098338
H34   H     H_    0.729830 0.176142 0.628672 0.139940
H35   H     H_    0.482093 0.267176 0.780001 0.103542
H36   H     H_    0.508604 0.324904 0.864019 0.130670
H37   H     H_    0.738556 0.193169 0.714973 0.099182
H38   H     H_    0.822858 0.320462 0.775560 0.099145
O1    O     O_R   0.302900 0.805360 0.446400 -0.504572
O2    O     O_R   0.638120 0.455970 0.034270 -0.504407
O3    O     O_R   0.667540 0.672320 0.030160 -0.492860
O4    O     O_R   0.522090 0.841370 0.450730 -0.493269
O5    O     O_R   0.814460 0.840990 0.926980 -0.520247
O6    O     O_R   0.001710 0.811400 0.930110 -0.503387
O7    O     O_R   0.023410 0.659800 0.926210 -0.527697
O8    O     O_R   0.806940 0.473170 0.931090 -0.505472
O9    O     O_R   0.633420 0.451310 0.927930 -0.525525
O10   O     O_R   0.663190 0.668000 0.931580 -0.503430
O11   O     O_3   0.826130 0.653050 0.980200 -0.244225
O12   O     O_R   0.657980 0.180990 0.549630 -0.507833
O13   O     O_R   0.693280 0.995650 0.447220 -0.503608
O14   O     O_R   0.657260 0.178740 0.451050 -0.492567
O15   O     O_R   0.502640 0.195380 0.446850 -0.504164
O16   O     O_R   0.319630 0.976590 0.450330 -0.492974
O17   O     O_R   0.303680 0.807790 0.552740 -0.519876
O18   O     O_R   0.522820 0.843620 0.549310 -0.504004
O19   O     O_R   0.694060 0.998080 0.553560 -0.524609
O20   O     O_R   0.503420 0.197810 0.553190 -0.518963
O21   O     O_R   0.320350 0.978840 0.548910 -0.504688
O22   O     O_3   0.499990 0.999990 0.500010 -0.247137
O23   O     O_R   0.819150 0.845650 0.033320 -0.505559
O24   O     O_R   0.006060 0.815720 0.028680 -0.492989
O25   O     O_R   0.028100 0.664460 0.032550 -0.504296
O26   O     O_R   0.811290 0.477490 0.029660 -0.494816

loop_
_geom_bond_atom_site_label_1
_geom_bond_atom_site_label_2
_ccdc_geom_bond_type
C25   C31   A    
C7    C10   S    
C63   C65   A    
C70   C78   S    
C42   H8    S    
C41   C42   A    
Cr6   O2    S    
C2    C7    A    
Cr4   O5    S    
C75   C76   A    
C73   O8    A    
C72   O6    A    
C39   C41   A    
C54   C60   A    
Cr2   O14   S    
C12   C23   A    
Cr5   O11   S    
C26   C27   A    
C29   C30   A    
C45   C76   A    
C35   C38   A    
C36   C37   A    
C32   H35   S    
Cr4   O6    S    
C77   H32   S    
C25   C40   S    
C30   C31   A    
C27   C29   A    
C68   C74   S    
C74   O10   A    
C17   C20   A    
C56   C78   T    
C18   C19   A    
Cr4   O11   S    
C4    O14   A    
C63   C68   A    
C61   C66   A    
C58   C66   S    
C74   O5    A    
C35   C36   A    
C45   C56   S    
C3    H26   S    
C8    C9    S    
C31   H4    S    
C71   O3    A    
C63   H20   S    
C1    O13   A    
C76   H3    S    
Cr6   O11   S    
Cr5   O26   S    
C39   C52   S    
C46   H13   S    
C73   O9    A    
C59   C60   A    
C33   H36   S    
Cr6   O3    S    
C48   C53   A    
C70   O26   A    
C15   H12   S    
C23   H24   S    
C27   H37   S    
C44   C46   A    
Cr2   O12   S    
Cr5   O25   S    
C15   C20   A    
C57   H18   S    
C40   O12   A    
C59   H21   S    
C71   O23   A    
C64   C67   T    
C19   C22   S    
C26   H34   S    
Cr3   O21   S    
C3    C8    A    
C17   H23   S    
C28   C54   S    
C50   H9    S    
C47   C51   A    
C50   C51   A    
C25   C26   A    
C14   H29   S    
C35   C77   S    
C61   H16   S    
C43   C44   A    
C6    H28   S    
Cr3   O16   S    
C44   H11   S    
Cr4   O23   S    
C75   H1    S    
C47   C48   A    
C23   C34   A    
C36   H38   S    
C17   C18   A    
C52   O21   A    
C32   C37   A    
C49   H10   S    
C9    C11   T    
C60   H22   S    
C39   C46   A    
Cr4   O24   S    
C70   O2    A    
Cr2   O19   S    
Cr1   O4    S    
C49   C50   A    
Cr2   O22   S    
C55   C57   A    
C69   O24   A    
C21   C24   T    
C16   O16   A    
C1    C13   S    
C42   C43   A    
C29   C37   S    
C77   H31   S    
Cr3   O22   S    
Cr2   O13   S    
Cr1   O1    S    
C18   H33   S    
C54   C55   A    
C2    H25   S    
C47   H6    S    
C14   C19   A    
C1    O4    A    
Cr3   O20   S    
C34   C67   S    
C5    C8    A    
C10   C79   T    
C11   C69   S    
C72   O7    A    
C6    C7    A    
C12   C45   A    
C5    H27   S    
C4    C64   S    
Cr5   O8    S    
C33   C38   A    
C62   C68   A    
C16   C79   S    
C32   C33   A    
C2    C3    A    
C58   C59   A    
Cr6   O9    S    
Cr1   O17   S    
C43   C51   S    
C57   C58   A    
C5    C6    A    
C49   C53   A    
Cr5   O7    S    
C52   O17   A    
C13   C22   T    
C41   H5    S    
C16   O1    A    
C61   C62   A    
C12   H15   S    
Cr1   O22   S    
C4    O15   A    
C34   C75   A    
C28   O19   A    
C20   C21   S    
Cr3   O15   S    
C65   C66   A    
C48   H7    S    
C40   O20   A    
C55   H14   S    
C69   O25   A    
C14   C15   A    
C28   O18   A    
C65   H19   S    
C30   H2    S    
C77   H30   S    
C53   C72   S    
Cr1   O18   S    
C24   C71   S    
Cr6   O10   S    
C62   H17   S    
C38   C73   S    
