data_mof_unit_16151.cif
_audit_creation_date              2012-12-10T18:57:04-0500
_audit_creation_method            fapswitch 2.2
_symmetry_space_group_name_H-M    P1
_symmetry_Int_Tables_number       1
_space_group_crystal_system       triclinic
_cell_length_a                    10.638657
_cell_length_b                    9.851741
_cell_length_c                    10.674545
_cell_angle_alpha                 90.077727
_cell_angle_beta                  90.198948
_cell_angle_gamma                 89.973574
_cell_volume                      1118.7836277

loop_
_atom_site_label
_atom_site_type_symbol
_atom_type_description
_atom_site_fract_x
_atom_site_fract_y
_atom_site_fract_z
_atom_type_partial_charge
C1    C     C_R   0.260254 0.499947 0.502814 0.935670
C2    C     C_R   0.477144 0.623487 0.936270 0.100238
C3    C     C_R   0.475319 0.500715 0.128527 -0.107023
C4    C     C_R   0.475592 0.500875 0.871354 -0.101060
C5    C     C_R   0.449393 0.379477 0.064439 -0.203510
C6    C     C_R   0.449524 0.379562 0.934853 -0.126533
C7    C     C_3   0.568068 0.738962 0.929895 -0.385016
C8    C     C_3   0.567811 0.738906 0.071897 -0.478049
C9    C     C_R   0.065549 0.421176 0.598176 0.342540
C10   C     C_R   0.935330 0.421298 0.598321 0.341506
C11   C     C_R   0.872136 0.500101 0.508517 -0.166470
C12   C     C_R   0.739764 0.499916 0.503015 0.943275
C13   C     C_R   0.127951 0.500133 0.508408 -0.185061
C14   C     C_R   0.935367 0.581381 0.422787 -0.208391
C15   C     C_R   0.063988 0.581452 0.422776 -0.188790
C16   C     C_R   0.578129 0.072044 0.577952 -0.167996
C17   C     C_R   0.421940 0.071912 0.421940 -0.177663
C18   C     C_R   0.578409 0.928253 0.577808 0.581814
C19   C     C_R   0.421829 0.928084 0.421914 0.585491
C20   C     C_R   0.495867 0.499992 0.259910 0.867033
C21   C     C_R   0.496078 0.500111 0.740093 0.926318
C22   C     C_R   0.476982 0.623397 0.064032 0.176757
Cl1   Cl    Cl    0.149192 0.328374 0.713532 -0.536665
Cl2   Cl    Cl    0.852736 0.329255 0.714249 -0.544563
F1    F     F_    0.657673 0.860634 0.655293 -0.640643
F2    F     F_    0.343466 0.860253 0.343508 -0.649434
H1    H     H_    0.437968 0.283980 0.113323 0.179276
H2    H     H_    0.359579 0.126445 0.359507 0.180972
H3    H     H_    0.438129 0.284107 0.885578 0.194628
H4    H     H_    0.660086 0.709107 0.889031 0.245933
H5    H     H_    0.524368 0.831450 0.112898 0.236208
H6    H     H_    0.524830 0.831612 0.888849 0.233356
H7    H     H_    0.659682 0.709085 0.113683 0.204684
H8    H     H_    0.885023 0.642438 0.354624 0.173438
H9    H     H_    0.113752 0.642577 0.354626 0.206528
H10   H     H_    0.640526 0.126623 0.640326 0.220671
N1    N     N_R   0.500000 0.857200 0.500000 -0.186073
N2    N     N_R   0.500000 0.142810 0.500000 -0.138917
O1    O     O_R   0.316770 0.614620 0.499990 -0.579791
O2    O     O_R   0.683230 0.614620 0.500010 -0.581621
O3    O     O_R   0.316800 0.385290 0.500000 -0.588932
O4    O     O_R   0.683200 0.385290 0.500000 -0.590567
O5    O     O_R   0.500000 0.614690 0.316780 -0.587497
O6    O     O_R   0.500000 0.614690 0.683220 -0.590488
O7    O     O_R   0.500020 0.385360 0.316780 -0.633680
O8    O     O_R   0.499980 0.385360 0.683220 -0.601146
Zn1   Zn    Zn3+2 0.500000 0.653120 0.500000 1.060704
Zn2   Zn    Zn3+2 0.500000 0.346880 0.500000 1.008539

loop_
_geom_bond_atom_site_label_1
_geom_bond_atom_site_label_2
_ccdc_geom_bond_type
C14   H8    S    
O2    Zn1   S    
C8    C22   S    
C11   C12   S    
C2    C22   A    
N1    Zn1   S    
C21   O6    A    
C9    C10   A    
C2    C4    A    
C2    C7    S    
O6    Zn1   S    
C8    H7    S    
C6    H3    S    
C7    C8    S    
C7    H4    S    
O4    Zn2   S    
C16   H10   S    
C4    C21   S    
C8    H5    S    
C18   F1    S    
O1    Zn1   S    
C1    O3    A    
C17   C19   A    
C18   N1    A    
N2    Zn2   S    
C17   N2    A    
C13   C15   A    
C5    C6    A    
C11   C14   A    
O8    Zn2   S    
C1    C13   S    
C10   C11   A    
C1    O1    A    
C3    C20   S    
C20   O5    A    
C4    C6    A    
C21   O8    A    
O7    Zn2   S    
C15   H9    S    
C19   F2    S    
C9    C13   A    
C14   C15   A    
C9    Cl1   S    
C3    C22   A    
C12   O4    A    
C7    H6    S    
C19   N1    A    
C10   Cl2   S    
C5    H1    S    
C17   H2    S    
O5    Zn1   S    
O3    Zn2   S    
C16   C18   A    
C20   O7    A    
C16   N2    A    
C3    C5    A    
C12   O2    A    
