data_mof_unit_16886.cif
_audit_creation_date              2012-12-10T19:46:23-0500
_audit_creation_method            fapswitch 2.2
_symmetry_space_group_name_H-M    P1
_symmetry_Int_Tables_number       1
_space_group_crystal_system       triclinic
_cell_length_a                    11.135196
_cell_length_b                    10.956249
_cell_length_c                    10.536167
_cell_angle_alpha                 92.636068
_cell_angle_beta                  89.837233
_cell_angle_gamma                 95.479765
_cell_volume                      1278.18226991

loop_
_atom_site_label
_atom_site_type_symbol
_atom_type_description
_atom_site_fract_x
_atom_site_fract_y
_atom_site_fract_z
_atom_type_partial_charge
C1    C     C_R   0.507017 0.262058 0.496860 0.882320
C2    C     C_R   0.492983 0.737942 0.503140 0.882320
C3    C     C_R   0.872258 0.503475 0.501169 -0.104020
C4    C     C_R   0.127742 0.496525 0.498831 -0.104020
C5    C     C_R   0.941411 0.534975 0.613524 -0.097840
C6    C     C_R   0.058589 0.465025 0.386476 -0.097840
C7    C     C_R   0.421885 0.172857 0.061193 -0.280221
C8    C     C_R   0.578114 0.827143 0.938807 -0.280221
C9    C     C_R   0.396447 0.128419 0.181827 0.058468
C10   C     C_R   0.603553 0.871581 0.818173 0.058468
C11   C     C_R   0.491018 0.095523 0.257143 0.113826
C12   C     C_R   0.508982 0.904477 0.742857 0.113825
C13   C     C_R   0.608767 0.102469 0.208963 -0.212579
C14   C     C_R   0.391233 0.897531 0.791037 -0.212579
C15   C     C_R   0.634505 0.149071 0.089868 0.089080
C16   C     C_R   0.365495 0.850929 0.910131 0.089080
C17   C     C_R   0.540667 0.187402 0.017495 -0.103393
C18   C     C_R   0.459332 0.812598 0.982505 -0.103393
C19   C     C_R   0.446531 0.926289 0.400730 0.084139
C20   C     C_R   0.553468 0.073711 0.599270 0.084138
C21   C     C_R   0.485468 0.872041 0.508426 -0.153371
C22   C     C_R   0.514531 0.127959 0.491574 -0.153371
C23   C     C_R   0.261385 0.496509 0.499486 0.843252
C24   C     C_R   0.738614 0.503491 0.500514 0.843252
C25   C     C_R   0.527801 0.947802 0.613423 0.031085
C26   C     C_R   0.472199 0.052198 0.386577 0.031085
C27   C     C_1   0.500067 0.500024 0.072265 0.077504
C28   C     C_1   0.499932 0.499976 0.927735 0.077504
C29   C     C_R   0.195057 0.460944 0.058305 -0.123505
C30   C     C_R   0.804943 0.539055 0.941695 -0.123505
C31   C     C_R   0.169854 0.497220 0.183237 -0.042097
C32   C     C_R   0.830146 0.502780 0.816763 -0.042097
C33   C     C_R   0.110179 0.414675 0.265726 0.004416
C34   C     C_R   0.889821 0.585325 0.734274 0.004416
C35   C     C_R   0.070013 0.294233 0.217789 0.026150
C36   C     C_R   0.929987 0.705767 0.782211 0.026151
C37   C     C_R   0.088211 0.262504 0.088532 -0.106173
C38   C     C_R   0.911789 0.737496 0.911467 -0.106173
C39   C     C_R   0.152993 0.344243 0.010511 -0.203544
C40   C     C_R   0.847007 0.655757 0.989489 -0.203545
C41   C     C_R   0.932792 0.471991 0.387534 -0.071323
C42   C     C_R   0.067208 0.528009 0.612466 -0.071323
Cu1   Cu    Cu3+1 0.500000 0.500000 0.625300 1.036855
Cu2   Cu    Cu3+1 0.500000 0.500000 0.374700 1.036855
H1    H     H_    0.169763 0.317179 0.912455 0.146417
H2    H     H_    0.830237 0.682821 0.087545 0.146417
H3    H     H_    0.681228 0.074376 0.266242 0.165821
H4    H     H_    0.318772 0.925624 0.733758 0.165820
H5    H     H_    0.243706 0.525005 0.997139 0.187468
H6    H     H_    0.756294 0.474995 0.002860 0.187468
H7    H     H_    0.193480 0.591092 0.214970 0.201714
H8    H     H_    0.806520 0.408908 0.785030 0.201714
H9    H     H_    0.054121 0.173290 0.048114 0.165425
H10   H     H_    0.945878 0.826710 0.951886 0.165425
H11   H     H_    0.558191 0.227170 0.926873 0.180839
H12   H     H_    0.441809 0.772830 0.073127 0.180839
H13   H     H_    0.350242 0.198777 0.001854 0.140423
H14   H     H_    0.649758 0.801223 0.998146 0.140423
N1    N     N_1   0.500010 0.499990 0.186410 -0.133684
N2    N     N_1   0.499990 0.500010 0.813590 -0.133684
O1    O     O_R   0.499990 0.319650 0.605810 -0.578081
O2    O     O_R   0.500010 0.680350 0.394190 -0.578081
O3    O     O_R   0.499990 0.319640 0.394190 -0.553291
O4    O     O_R   0.500010 0.680360 0.605810 -0.553290
O5    O     O_R   0.319640 0.500010 0.605810 -0.556167
O6    O     O_R   0.680360 0.499990 0.394190 -0.556167
O7    O     O_R   0.319650 0.500010 0.394190 -0.581617
O8    O     O_R   0.680350 0.499990 0.605810 -0.581617
C43   C     C_2   0.760019 0.157008 0.044242 0.412759
H15   H     H_    0.819491 0.090522 0.072904 0.093982
O9    O     O_2   0.799811 0.240188 0.978553 -0.554812
C44   C     C_2   0.239981 0.842992 0.955758 0.412759
H16   H     H_    0.180509 0.909478 0.927096 0.093982
O10   O     O_2   0.200188 0.759812 0.021447 -0.554812
I1    I     I_    0.303911 0.829262 0.295103 -0.361819
I2    I     I_    0.696089 0.170737 0.704897 -0.361819
C45   C     C_2   0.004811 0.203530 0.300866 0.474962
H17   H     H_    0.990543 0.226719 0.400603 0.105183
O11   O     O_2   0.968331 0.100744 0.259683 -0.572750
C46   C     C_2   0.995188 0.796470 0.699134 0.474962
H18   H     H_    0.009457 0.773281 0.599397 0.105184
O12   O     O_2   0.031669 0.899256 0.740317 -0.572750
C47   C     C_2   0.867254 0.444607 0.265097 0.387674
H19   H     H_    0.893171 0.498276 0.184183 0.084326
O13   O     O_2   0.792654 0.355848 0.251819 -0.535563
C48   C     C_2   0.132746 0.555393 0.734903 0.387674
H20   H     H_    0.106829 0.501724 0.815817 0.084325
O14   O     O_2   0.207346 0.644152 0.748181 -0.535563
C49   C     C_2   0.271250 0.113764 0.226100 0.390382
H21   H     H_    0.200649 0.080298 0.159554 0.084503
O15   O     O_2   0.246504 0.134362 0.337545 -0.543123
C50   C     C_2   0.728750 0.886236 0.773899 0.390382
H22   H     H_    0.799350 0.919702 0.840445 0.084503
O16   O     O_2   0.753496 0.865637 0.662455 -0.543123

loop_
_geom_bond_atom_site_label_1
_geom_bond_atom_site_label_2
_ccdc_geom_bond_type
C38   C40   A    
C5    C42   A    
Cu2   O6    S    
C16   C44   S    
C29   H5    S    
C45   H17   S    
C40   H2    S    
C19   C21   A    
C48   O14   D    
C20   C25   A    
Cu2   N1    S    
C41   C47   S    
C20   I2    S    
C7    C9    A    
C23   O7    A    
C43   O9    D    
C19   C26   A    
C32   H8    S    
C8    H14   S    
Cu1   O8    S    
C7    C17   A    
C6    C41   A    
C31   C33   A    
C42   C48   S    
C49   O15   D    
C17   H11   S    
C18   H12   S    
C39   H1    S    
C37   H9    S    
C45   O11   D    
C30   H6    S    
C10   C50   S    
C1    C22   S    
C3    C24   S    
C1    O3    A    
C2    O4    A    
Cu1   O4    S    
C28   N2    T    
Cu2   O3    S    
C15   C43   S    
C44   O10   D    
C36   C46   S    
C9    C49   S    
C13   H3    S    
C4    C23   S    
C48   H20   S    
C44   H16   S    
C14   H4    S    
C11   C26   S    
Cu2   O2    S    
C35   C45   S    
C8    C18   A    
C32   C34   A    
Cu1   Cu2   S    
C31   H7    S    
C47   H19   S    
C38   H10   S    
Cu1   O5    S    
C5    C34   S    
C29   C39   A    
C2    C21   S    
C50   O16   D    
C30   C40   A    
C16   C18   A    
C9    C11   A    
C10   C12   A    
Cu1   N2    S    
C46   O12   D    
C47   O13   D    
C20   C22   A    
C13   C15   A    
C14   C16   A    
C4    C6    A    
Cu1   O1    S    
C15   C17   A    
C21   C25   A    
C3    C41   A    
C35   C37   A    
C12   C14   A    
C46   H18   S    
C3    C5    A    
C1    O1    A    
C24   O6    A    
C6    C33   S    
C12   C25   S    
C23   O5    A    
C36   C38   A    
C29   C31   A    
C27   N1    T    
C30   C32   A    
C11   C13   A    
C4    C42   A    
C19   I1    S    
C50   H22   S    
C33   C35   A    
C34   C36   A    
C43   H15   S    
C24   O8    A    
C37   C39   A    
C8    C10   A    
C22   C26   A    
C27   C28   S    
Cu2   O7    S    
C49   H21   S    
C7    H13   S    
C2    O2    A    
