data_mof_unit_38478.cif
_audit_creation_date              2013-03-05T15:52:27-0500
_audit_creation_method            fapswitch 2.2
_symmetry_space_group_name_H-M    P1
_symmetry_Int_Tables_number       1
_space_group_crystal_system       triclinic
_cell_length_a                    27.765932
_cell_length_b                    10.847639
_cell_length_c                    9.614263
_cell_angle_alpha                 88.670345
_cell_angle_beta                  90.320527
_cell_angle_gamma                 94.806705
_cell_volume                      2884.78549917

loop_
_atom_site_label
_atom_site_type_symbol
_atom_site_description
_atom_site_fract_x
_atom_site_fract_y
_atom_site_fract_z
_atom_type_partial_charge
O1    O     O_R   0.500000 0.319640 0.618810 -0.548428
O2    O     O_R   0.500000 0.319660 0.381240 -0.587711
C1    C     C_R   0.501649 0.262274 0.502561 0.825802
O3    O     O_R   0.430260 0.500010 0.618770 -0.581143
O4    O     O_R   0.430270 0.500030 0.381200 -0.586629
C2    C     C_R   0.407563 0.500347 0.499491 0.775049
Cu1   Cu    Cu3+1 0.500000 0.499990 0.640660 1.020765
Cu2   Cu    Cu3+1 0.500000 0.500010 0.359340 0.953772
O5    O     O_R   0.500000 0.680340 0.618760 -0.553355
O6    O     O_R   0.500000 0.680360 0.381190 -0.546836
O7    O     O_R   0.569730 0.499970 0.618800 -0.469094
O8    O     O_R   0.569740 0.499990 0.381230 -0.622788
C3    C     C_R   0.495006 0.735905 0.498834 0.827236
C4    C     C_R   0.592315 0.496081 0.500368 0.838050
C5    C     C_R   0.175945 0.397720 0.544976 0.546619
O9    O     O_2   0.199094 0.296676 0.578767 -0.497841
N1    N     N_R   0.202237 0.502946 0.499373 -0.476464
C6    C     C_R   0.180616 0.606468 0.458853 0.533420
C7    C     C_R   0.279868 0.522059 0.621954 -0.117193
C8    C     C_R   0.329989 0.521441 0.622013 -0.241070
C9    C     C_R   0.328373 0.487493 0.373407 -0.222256
C10   C     C_R   0.278170 0.488862 0.373384 -0.110765
C11   C     C_R   0.253857 0.505451 0.497836 0.369958
C12   C     C_R   0.102214 0.500855 0.513344 -0.119530
C13   C     C_R   0.125167 0.394475 0.554970 -0.123794
C14   C     C_R   0.096835 0.289544 0.607041 0.495437
C15   C     C_R   0.130241 0.607478 0.464811 0.006531
C16   C     C_R   0.354674 0.502976 0.498170 -0.023774
H1    H     H_    0.346470 0.473328 0.276247 0.149881
H2    H     H_    0.258113 0.475816 0.277178 0.131091
C17   C     C_R   0.645181 0.489512 0.500698 -0.096583
C18   C     C_R   0.971731 0.386831 0.539287 0.110284
C19   C     C_R   0.978249 0.613305 0.506887 -0.149092
C20   C     C_R   0.949592 0.499378 0.518636 0.031832
C21   C     C_R   0.942067 0.274587 0.543281 -0.213955
C22   C     C_R   0.892191 0.273346 0.531486 -0.152746
C23   C     C_R   0.869971 0.384006 0.517355 0.018180
C24   C     C_R   0.898503 0.497865 0.511459 -0.111838
C25   C     C_R   0.875912 0.609639 0.498359 -0.217167
C26   C     C_R   0.824845 0.603679 0.495204 0.575284
N2    N     N_R   0.798112 0.491779 0.499390 -0.456892
C27   C     C_R   0.819565 0.383095 0.509245 0.541143
C28   C     C_R   0.720209 0.446958 0.617089 -0.210099
C29   C     C_R   0.669578 0.446445 0.619444 0.365357
C30   C     C_R   0.671772 0.529463 0.381599 -0.306461
C31   C     C_R   0.721910 0.529182 0.380723 -0.109398
C32   C     C_R   0.746310 0.488649 0.498595 0.312912
O10   O     O_2   0.792077 0.274345 0.511408 -0.541992
C33   C     C_R   0.022754 0.390071 0.553213 -0.023736
C34   C     C_R   0.051186 0.500808 0.519329 0.080641
C35   C     C_R   0.028886 0.611094 0.488457 0.076024
C36   C     C_R   0.046370 0.286301 0.599308 -0.313959
H3    H     H_    0.739568 0.415791 0.707691 0.140442
H4    H     H_    0.871048 0.184701 0.534260 0.196452
H5    H     H_    0.956567 0.185577 0.551091 0.155344
H6    H     H_    0.026504 0.201954 0.635103 0.159519
O11   O     O_2   0.207889 0.708285 0.413847 -0.536760
C37   C     C_R   0.107414 0.712132 0.421797 -0.148452
H7    H     H_    0.349469 0.535520 0.718715 0.149853
H8    H     H_    0.261146 0.535168 0.718321 0.127859
H9    H     H_    0.127982 0.793605 0.379533 0.191929
C38   C     C_R   0.954970 0.725048 0.512889 0.282141
C39   C     C_R   0.904824 0.723533 0.495875 0.474771
O12   O     O_2   0.801798 0.708325 0.491147 -0.519653
C40   C     C_R   0.057576 0.713561 0.432238 -0.222842
H10   H     H_    0.653857 0.563216 0.289658 0.176828
H11   H     H_    0.741921 0.561390 0.288669 0.149677
H12   H     H_    0.041761 0.794655 0.391365 0.187321
H13   H     H_    0.506177 0.120911 0.284535 0.164397
C41   C     C_R   0.502194 0.103829 0.768312 -0.165317
H14   H     H_    0.522573 0.190798 0.787031 0.205356
C42   C     C_R   0.485031 0.037172 0.885642 -0.196728
H15   H     H_    0.489699 0.079089 0.986445 0.146462
C43   C     C_R   0.460436 0.920456 0.874609 0.487276
C44   C     C_R   0.458469 0.865806 0.742280 -0.246955
H16   H     H_    0.439180 0.776699 0.727869 0.141800
C45   C     C_R   0.480321 0.928736 0.624716 -0.021315
C46   C     C_R   0.495004 0.055497 0.633918 0.063248
C47   C     C_R   0.501734 0.127025 0.508334 -0.142550
C48   C     C_R   0.501661 0.067598 0.380982 -0.291220
C49   C     C_R   0.496340 0.939443 0.374793 0.398416
C50   C     C_R   0.488205 0.868813 0.498170 -0.148802
H17   H     H_    0.450391 0.345234 0.133907 0.147405
C51   C     C_R   0.558265 0.678740 0.147686 -0.170804
H18   H     H_    0.565837 0.671003 0.255122 0.194937
C52   C     C_R   0.577850 0.786964 0.083715 0.366837
C53   C     C_R   0.574519 0.798130 0.942334 -0.299406
H19   H     H_    0.589695 0.883971 0.895156 0.178344
C54   C     C_R   0.560118 0.694211 0.862022 0.450613
C55   C     C_R   0.529267 0.592495 0.925132 0.029321
C56   C     C_R   0.528821 0.589410 0.074976 0.096949
N3    N     N_R   0.500460 0.501210 0.147910 -0.194675
C57   C     C_R   0.472276 0.415392 0.075766 -0.170129
C58   C     C_R   0.471179 0.416369 0.926951 0.509434
N4    N     N_R   0.500480 0.501290 0.852040 -0.213506
O13   O     O_3   0.979176 0.836518 0.547619 -0.733371
H20   H     H_    0.006141 0.819029 0.611142 0.332602
O14   O     O_3   0.884281 0.835619 0.493533 -0.540493
C59   C     C_3   0.877616 0.875827 0.353914 0.129710
H21   H     H_    0.846079 0.932521 0.352402 0.194399
H22   H     H_    0.868483 0.798141 0.281546 0.110767
C60   C     C_3   0.921987 0.956725 0.301101 -0.361984
H23   H     H_    0.932742 0.028220 0.378674 0.249763
H24   H     H_    0.952589 0.898581 0.286887 0.228602
C61   C     C_3   0.911624 0.020625 0.162394 -0.905928
H25   H     H_    0.900806 0.950857 0.082850 0.264532
H26   H     H_    0.944670 0.076588 0.126013 0.262455
H27   H     H_    0.882290 0.083166 0.174453 0.265922
O15   O     O_3   0.441790 0.866795 0.998548 -0.607382
C62   C     C_3   0.413929 0.752230 0.988444 0.098063
H28   H     H_    0.412228 0.710894 0.095366 0.205474
H29   H     H_    0.431440 0.683846 0.926016 0.101323
C63   C     C_3   0.362150 0.770734 0.939967 -0.376040
H30   H     H_    0.350446 0.857443 0.983472 0.247180
H31   H     H_    0.360901 0.779487 0.824757 0.204306
C64   C     C_3   0.326600 0.663222 0.987774 -0.912006
H32   H     H_    0.338944 0.573725 0.955235 0.232213
H33   H     H_    0.290460 0.674334 0.941441 0.264436
H34   H     H_    0.323245 0.661842 0.102885 0.269014
O16   O     O_3   0.497823 0.882200 0.248589 -0.686074
H35   H     H_    0.507288 0.944796 0.175017 0.350314
O17   O     O_3   0.601969 0.881934 0.156180 -0.716760
H36   H     H_    0.601540 0.859965 0.256825 0.321818
O18   O     O_3   0.576615 0.692077 0.726431 -0.551139
C65   C     C_3   0.622100 0.758126 0.697798 0.059120
H37   H     H_    0.643449 0.698767 0.634705 0.163399
H38   H     H_    0.645209 0.777988 0.790892 0.137622
C66   C     C_3   0.614739 0.874815 0.610020 -0.404906
H39   H     H_    0.596433 0.847450 0.511127 0.205632
H40   H     H_    0.591209 0.935324 0.665166 0.225228
C67   C     C_3   0.662769 0.947802 0.576452 -0.808466
H41   H     H_    0.681376 0.978355 0.673846 0.263863
H42   H     H_    0.656116 0.030892 0.511814 0.266430
H43   H     H_    0.686421 0.889993 0.517578 0.268070
O19   O     O_3   0.443438 0.326298 0.855226 -0.586253
C68   C     C_3   0.394288 0.317953 0.896116 0.026106
H44   H     H_    0.372150 0.331091 0.801275 0.180926
H45   H     H_    0.385019 0.390149 0.969994 0.098514
C69   C     C_3   0.379846 0.188722 0.957247 -0.342993
H46   H     H_    0.384816 0.118555 0.877260 0.236535
H47   H     H_    0.403336 0.169500 0.047710 0.218094
C70   C     C_3   0.327202 0.176645 0.004068 -0.883799
H48   H     H_    0.321609 0.243963 0.086632 0.253626
H49   H     H_    0.317719 0.081716 0.046571 0.264017
H50   H     H_    0.302899 0.193662 0.914712 0.261352
O20   O     O_3   0.118207 0.185820 0.655992 -0.558830
C71   C     C_3   0.112062 0.171578 0.802022 0.076312
H51   H     H_    0.114218 0.072113 0.829339 0.171496
H52   H     H_    0.076010 0.195393 0.838518 0.115466
C72   C     C_3   0.152435 0.247061 0.880007 -0.336506
H53   H     H_    0.188099 0.218077 0.847855 0.257507
H54   H     H_    0.151193 0.347031 0.853683 0.207074
C73   C     C_3   0.147339 0.228455 0.037246 -0.899068
H55   H     H_    0.112328 0.259157 0.072535 0.258473
H56   H     H_    0.177116 0.283962 0.090423 0.261347
H57   H     H_    0.149317 0.129423 0.066941 0.264219
O21   O     O_3   0.643565 0.403857 0.735516 -0.719675
H58   H     H_    0.666192 0.377558 0.808437 0.321860

loop_
_geom_bond_atom_site_label_1
_geom_bond_atom_site_label_2
_geom_bond_distance
_ccdc_geom_bond_type
C53   H19   1.080342 S    
C57   C58   1.430712 A    
C38   O13   1.380353 S    
C41   C46   1.412531 A    
N2    C27   1.365875 A    
C21   C22   1.387839 A    
C12   C15   1.410403 A    
C4    C17   1.475529 S    
C44   H16   1.076557 S    
C67   H43   1.111118 S    
C1    C47   1.467092 S    
C66   H39   1.110342 S    
C43   O15   1.396760 S    
C49   C50   1.406017 A    
O19   C68   1.417299 S    
C45   C46   1.405744 A    
Cu1   O7    1.948679 S    
C61   H26   1.110478 S    
C49   O16   1.378159 S    
O21   H58   0.991702 S    
C22   C23   1.398441 A    
C71   H52   1.115053 S    
C51   C52   1.383995 A    
O20   C71   1.418561 S    
C39   O14   1.385275 S    
C68   C69   1.530238 S    
O4    C2    1.303652 A    
O7    C4    1.306206 A    
C5    C13   1.411124 A    
C5    O9    1.348814 S    
H17   C57   1.080490 S    
C64   H32   1.108558 S    
C60   C61   1.525744 S    
C5    N1    1.367044 A    
C35   C40   1.410943 A    
C23   C27   1.400532 A    
C14   O20   1.387026 S    
O5    C3    1.300733 A    
C62   H28   1.111593 S    
C37   C40   1.389393 A    
C28   H3    1.083304 S    
C2    C16   1.471130 S    
C71   H51   1.110950 S    
C64   H33   1.110267 S    
C19   C38   1.423172 A    
C72   C73   1.526291 S    
C52   O17   1.381164 S    
C65   C66   1.532341 S    
C41   H14   1.076981 S    
Cu2   N3    2.032588 S    
C51   C56   1.410089 A    
C73   H56   1.110692 S    
C63   C64   1.527409 S    
C40   H12   1.080673 S    
C37   H9    1.083369 S    
C58   O19   1.386608 S    
O1    Cu1   1.972459 S    
C9    C10   1.395252 A    
C29   O21   1.381886 S    
C70   H50   1.111076 S    
C58   N4    1.370896 A    
O3    Cu1   1.946649 S    
N1    C6    1.365026 A    
C12   C34   1.418303 A    
C61   H27   1.111040 S    
O18   C65   1.423813 S    
C70   H48   1.111195 S    
C43   C44   1.414864 A    
C21   H5    1.077712 S    
C18   C21   1.411561 A    
Cu1   Cu2   2.704679 S    
C71   C72   1.534438 S    
C12   C13   1.413139 A    
C42   C43   1.393242 A    
C17   C29   1.414259 A    
C56   N3    1.369647 A    
C46   C47   1.424611 A    
C42   H15   1.082581 S    
C27   O10   1.350087 S    
C8    C16   1.403838 A    
C13   C14   1.411742 A    
C30   C31   1.392468 A    
C9    H1    1.083293 S    
C3    C50   1.469526 S    
C15   C37   1.399074 A    
O1    C1    1.294642 A    
C18   C20   1.421600 A    
C7    C11   1.398772 A    
C28   C29   1.405682 A    
C23   C24   1.410527 A    
C14   C36   1.400290 A    
C6    O11   1.349761 S    
C59   H21   1.111273 S    
Cu2   O8    1.946643 S    
C33   C36   1.410947 A    
O13   H20   0.991390 S    
C38   C39   1.399789 A    
C34   C35   1.417144 A    
N2    C32   1.435869 S    
N1    C11   1.431390 S    
C51   H18   1.055775 S    
C8    H7    1.080448 S    
C60   H24   1.110664 S    
C44   C45   1.419201 A    
C62   C63   1.536555 S    
C68   H45   1.116123 S    
C26   N2    1.368603 A    
C59   H22   1.117135 S    
C9    C16   1.406880 A    
O8    C4    1.304180 A    
O14   C59   1.417714 S    
C53   C54   1.410049 A    
C65   H37   1.104573 S    
C70   H49   1.110376 S    
O3    C2    1.305521 A    
C67   H41   1.110790 S    
C66   C67   1.524953 S    
C25   C26   1.414150 A    
C25   C39   1.415650 A    
O16   H35   0.990120 S    
C52   C53   1.365171 A    
C63   H30   1.111866 S    
Cu1   O5    1.962805 S    
C31   C32   1.398132 A    
C10   H2    1.082962 S    
C20   C24   1.418578 A    
O2    Cu2   1.962806 S    
C6    C15   1.401158 A    
C48   C49   1.388265 A    
C67   H42   1.110563 S    
O6    C3    1.307266 A    
C66   H40   1.109352 S    
O4    Cu2   1.948682 S    
C69   H46   1.111642 S    
O17   H36   0.991054 S    
C54   O18   1.385486 S    
C7    H8    1.082921 S    
C19   C35   1.420357 A    
Cu1   N4    2.032601 S    
C61   H25   1.110881 S    
C26   O12   1.348715 S    
C64   H34   1.110790 S    
C7    C8    1.392244 A    
O2    C1    1.311725 A    
C54   C55   1.461424 A    
C31   H11   1.082903 S    
O15   C62   1.412786 S    
C69   H47   1.110562 S    
C55   C56   1.440354 A    
C24   C25   1.413833 A    
C45   C50   1.419230 A    
C73   H57   1.110870 S    
N3    C57   1.364514 A    
C69   C70   1.526069 S    
C19   C20   1.415236 A    
C72   H54   1.111154 S    
C60   H23   1.110144 S    
C62   H29   1.109637 S    
C18   C33   1.419841 A    
C22   H4    1.083692 S    
C47   C48   1.396811 A    
C59   C60   1.533239 S    
Cu2   O6    1.972459 S    
C33   C34   1.413531 A    
C17   C30   1.406009 A    
C30   H10   1.083245 S    
C65   H38   1.112901 S    
C10   C11   1.399705 A    
C68   H44   1.109941 S    
H13   C48   1.083631 S    
C41   C42   1.390255 A    
C73   H55   1.110953 S    
C28   C32   1.399278 A    
C55   N4    1.415972 A    
C36   H6    1.078325 S    
C72   H53   1.111350 S    
C63   H31   1.110126 S    
