data_mof_unit_56056.cif
_audit_creation_date              2012-12-11T15:44:52-0500
_audit_creation_method            fapswitch 2.2
_symmetry_space_group_name_H-M    P1
_symmetry_Int_Tables_number       1
_space_group_crystal_system       triclinic
_cell_length_a                    6.926206
_cell_length_b                    16.87387
_cell_length_c                    17.084001
_cell_angle_alpha                 100.389775
_cell_angle_beta                  89.586663
_cell_angle_gamma                 90.017098
_cell_volume                      1963.84996502

loop_
_atom_site_label
_atom_site_type_symbol
_atom_type_description
_atom_site_fract_x
_atom_site_fract_y
_atom_site_fract_z
_atom_type_partial_charge
O1    O     O_R   0.494370 0.415690 0.413450 -0.541717
O2    O     O_R   0.819420 0.429360 0.578420 -0.544670
O3    O     O_R   0.994280 0.584310 0.586550 -0.542598
C1    C     C_R   0.652718 0.414526 0.606000 0.703398
O4    O     O_R   0.823790 0.406230 0.413570 -0.542852
O5    O     O_R   0.998670 0.561000 0.420530 -0.537247
C2    C     C_R   0.655172 0.383005 0.384863 0.687411
O6    O     O_R   0.489970 0.439000 0.579470 -0.536485
O7    O     O_3   0.662300 0.550810 0.502470 -0.369198
V1    V     V_3+5 0.935380 0.490570 0.499540 1.405244
O8    O     O_R   0.328650 0.570640 0.421580 -0.543093
C3    C     C_R   0.161794 0.586088 0.394806 0.701886
O9    O     O_R   0.324290 0.593770 0.586430 -0.543644
C4    C     C_R   0.154477 0.615987 0.615529 0.695355
V2    V     V_3+5 0.435930 0.509430 0.500460 1.405799
O10   O     O_3   0.159140 0.449190 0.497530 -0.370307
C5    C     C_R   0.304011 0.733065 0.703212 -0.174521
H1    H     H_    0.432726 0.721337 0.666466 0.121042
C6    C     C_R   0.301203 0.798918 0.766590 0.117477
C7    C     C_R   0.129099 0.815939 0.814077 -0.058944
C8    C     C_R   0.969616 0.764342 0.795187 -0.186080
H2    H     H_    0.839368 0.773286 0.831056 0.144914
C9    C     C_R   0.975501 0.699940 0.730713 -0.150349
H3    H     H_    0.849059 0.662150 0.718026 0.128171
C10   C     C_R   0.143364 0.683822 0.684092 -0.070316
C11   C     C_R   0.167811 0.636129 0.331527 -0.063238
C12   C     C_R   0.102039 0.855013 0.161360 -0.194715
C13   C     C_R   0.921699 0.809836 0.268844 -0.162412
C14   C     C_R   0.949072 0.863921 0.217067 -0.161353
C15   C     C_R   0.232225 0.789170 0.158687 0.323132
C16   C     C_R   0.215734 0.739537 0.218038 0.036243
C17   C     C_R   0.053565 0.747633 0.270386 0.104791
C18   C     C_R   0.027819 0.694684 0.325138 -0.207329
C19   C     C_R   0.332937 0.631509 0.282585 -0.186844
C20   C     C_R   0.357696 0.682591 0.227775 -0.093257
H4    H     H_    0.903835 0.701324 0.364896 0.114639
H5    H     H_    0.447054 0.588882 0.287802 0.133473
H6    H     H_    0.798624 0.817822 0.309046 0.121888
H7    H     H_    0.493901 0.679059 0.196296 0.195361
H8    H     H_    0.845574 0.912436 0.219223 0.145775
C21   C     C_R   0.661347 0.363406 0.668724 -0.069053
C22   C     C_R   0.602141 0.141508 0.835126 -0.057468
C23   C     C_R   0.398036 0.199557 0.742817 -0.205396
C24   C     C_R   0.426102 0.145209 0.794181 -0.155501
C25   C     C_R   0.750556 0.194830 0.823016 -0.244052
C26   C     C_R   0.720733 0.251629 0.772472 0.159435
C27   C     C_R   0.543272 0.253763 0.731790 0.163040
C28   C     C_R   0.514081 0.309592 0.680392 -0.238754
C29   C     C_R   0.834687 0.362352 0.711901 -0.147507
C30   C     C_R   0.864238 0.307240 0.762639 -0.191984
H9    H     H_    0.380479 0.309155 0.647637 0.121493
H10   H     H_    0.951196 0.403472 0.705074 0.131935
H11   H     H_    0.260860 0.199998 0.712757 0.119921
H12   H     H_    0.000416 0.307719 0.793572 0.126835
H13   H     H_    0.306014 0.106545 0.802662 0.120895
H14   H     H_    0.885206 0.194251 0.854859 0.122145
C31   C     C_R   0.812018 0.275722 0.281901 -0.152431
H15   H     H_    0.952912 0.294478 0.305318 0.115816
C32   C     C_R   0.800515 0.212023 0.216875 -0.149429
H16   H     H_    0.933277 0.183618 0.192422 0.114747
C33   C     C_R   0.620689 0.185317 0.184019 -0.044587
C34   C     C_R   0.452706 0.224202 0.218194 -0.153316
H17   H     H_    0.311816 0.205448 0.194772 0.113972
C35   C     C_R   0.464209 0.287902 0.283220 -0.146748
H18   H     H_    0.331451 0.316313 0.307670 0.118874
C36   C     C_R   0.644037 0.314606 0.316079 -0.047961
O11   O     O_R   0.774880 0.061150 0.920630 -0.549200
O12   O     O_R   0.440980 0.093710 0.086500 -0.549779
O13   O     O_R   0.266190 0.938890 0.079390 -0.501415
C37   C     C_R   0.609579 0.116931 0.115227 0.671285
O14   O     O_R   0.445420 0.070740 0.921670 -0.552551
O15   O     O_R   0.270660 0.915760 0.913380 -0.522190
C38   C     C_R   0.612150 0.087795 0.895829 0.684660
O16   O     O_R   0.770400 0.084270 0.086640 -0.548831
O17   O     O_3   0.602590 0.949210 0.997500 -0.325210
V3    V     V_3+5 0.329470 0.009420 0.000470 1.481682
O18   O     O_R   0.940650 0.906250 0.913470 -0.548863
C39   C     C_R   0.111596 0.884514 0.883266 0.707190
O19   O     O_R   0.936210 0.929220 0.078300 -0.526463
C40   C     C_R   0.103923 0.910945 0.102746 0.784809
V4    V     V_3+5 0.828930 0.990510 0.999490 1.487320
O20   O     O_3   0.105680 0.050790 0.002500 -0.390059
S1    S     S_3+6 0.394564 0.762477 0.076161 0.004039
O21   O     O_2   0.579762 0.808244 0.094183 -0.318829
O22   O     O_2   0.438173 0.673725 0.059690 -0.335871
O23   O     O_3   0.300021 0.785047 0.992740 -0.491340
H19   H     H_    0.180790 0.752293 0.983668 0.322326
C41   C     C_3   0.483334 0.849767 0.775169 -0.346940
C42   C     C_3   0.459715 0.924008 0.736110 -0.327119
C43   C     C_3   0.655691 0.957183 0.715981 -0.767166
H20   H     H_    0.747959 0.969769 0.769601 0.224095
H21   H     H_    0.730959 0.912854 0.669844 0.223343
H22   H     H_    0.635056 0.013581 0.692196 0.226596
H23   H     H_    0.376864 0.908248 0.679911 0.195483
H24   H     H_    0.377657 0.970651 0.776881 0.185198
H25   H     H_    0.533106 0.865715 0.837375 0.209700
H26   H     H_    0.604887 0.813473 0.744638 0.164348

loop_
_geom_bond_atom_site_label_1
_geom_bond_atom_site_label_2
_ccdc_geom_bond_type
C33   C37   S    
C41   H25   S    
C12   C14   A    
C19   H5    S    
O2    C1    A    
C6    C7    A    
C31   C36   A    
O15   V3    S    
V4    O20   S    
C31   H15   S    
O18   C39   A    
C30   H12   S    
C13   C14   A    
O5    C3    A    
O14   V3    S    
C31   C32   A    
C1    C21   S    
V2    O10   S    
C15   S1    S    
C18   H4    S    
O13   V3    S    
C19   C20   A    
C42   H23   S    
O15   C39   A    
O8    V2    S    
C11   C19   A    
C28   H9    S    
C27   C28   A    
C25   H14   S    
C37   O16   A    
C34   C35   A    
C9    H3    S    
O11   C38   A    
C13   H6    S    
O7    V1    S    
C41   H26   S    
C1    O6    A    
C32   H16   S    
O9    C4    A    
C12   C15   A    
C22   C24   A    
C21   C29   A    
C23   H11   S    
C32   C33   A    
C13   C17   A    
C6    C41   S    
V3    O20   S    
O19   V4    S    
O23   H19   S    
O17   V4    S    
C25   C26   A    
C3    C11   S    
C22   C25   A    
C35   C36   A    
C42   H24   S    
C20   H7    S    
O17   V3    S    
C34   H17   S    
C11   C18   A    
C43   H21   S    
S1    O21   D    
O18   V4    S    
C29   H10   S    
C5    H1    S    
C41   C42   S    
O3    C4    A    
O1    V2    S    
S1    O22   D    
O11   V4    S    
O6    V2    S    
C8    C9    A    
C23   C24   A    
C16   C20   A    
O16   V4    S    
O2    V1    S    
C43   H22   S    
O4    C2    A    
C26   C27   A    
C22   C38   S    
O1    C2    A    
C16   C17   A    
O5    V1    S    
O8    C3    A    
O12   V3    S    
C26   C30   A    
C7    C39   S    
C5    C10   A    
C17   C18   A    
O9    V2    S    
O7    V2    S    
O4    V1    S    
O3    V1    S    
V1    O10   S    
C35   H18   S    
C2    C36   S    
C24   H13   S    
C43   H20   S    
C15   C16   A    
C14   H8    S    
C5    C6    A    
C21   C28   A    
C9    C10   A    
C4    C10   S    
C33   C34   A    
O19   C40   A    
S1    O23   S    
C7    C8    A    
C12   C40   S    
O12   C37   A    
C29   C30   A    
O14   C38   A    
O13   C40   A    
C42   C43   S    
C8    H2    S    
C23   C27   A    
