data_mof_unit_55454.cif
_audit_creation_date              2012-12-10T20:27:14-0500
_audit_creation_method            fapswitch 2.2
_symmetry_space_group_name_H-M    P1
_symmetry_Int_Tables_number       1
_space_group_crystal_system       triclinic
_cell_length_a                    10.486536
_cell_length_b                    10.688394
_cell_length_c                    9.903327
_cell_angle_alpha                 90.158918
_cell_angle_beta                  101.69627
_cell_angle_gamma                 89.327164
_cell_volume                      1086.88356275

loop_
_atom_site_label
_atom_site_type_symbol
_atom_type_description
_atom_site_fract_x
_atom_site_fract_y
_atom_site_fract_z
_atom_type_partial_charge
C1    C     C_R   0.496288 0.260246 0.499346 0.887637
C2    C     C_R   0.595762 0.437946 0.090245 0.205217
C3    C     C_R   0.595687 0.439945 0.946827 -0.069067
C4    C     C_R   0.257950 0.503473 0.444650 0.890520
C5    C     C_R   0.407772 0.564775 0.909133 0.144674
C6    C     C_3   0.264518 0.547816 0.868179 -0.460043
C7    C     C_3   0.261770 0.538084 0.020651 -0.236636
C8    C     C_R   0.498510 0.739886 0.499890 0.846492
C9    C     C_R   0.742357 0.506038 0.555255 0.910308
C10   C     C_2   0.117558 0.515046 0.418508 -0.076719
C11   C     C_2   0.061247 0.606694 0.482310 -0.022574
C12   C     C_R   0.478287 0.128988 0.497483 -0.132677
C13   C     C_2   0.880421 0.533680 0.578860 -0.342614
C14   C     C_2   0.922968 0.599976 0.482333 -0.090162
C15   C     C_R   0.491261 0.064518 0.621727 0.157801
C16   C     C_3   0.702440 0.365412 0.181135 -0.837861
C17   C     C_2   0.225013 0.408822 0.058381 0.521543
C18   C     C_2   0.133719 0.716374 0.550518 0.395686
C19   C     C_3   0.040449 0.415738 0.330220 -0.836729
C20   C     C_3   0.553888 0.864682 0.872000 -0.791089
C21   C     C_2   0.731865 0.885567 0.734371 0.475627
C22   C     C_2   0.536852 0.134122 0.870377 0.463181
C23   C     C_R   0.444822 0.064869 0.371921 -0.208807
C24   C     C_R   0.446759 0.935447 0.372367 -0.187188
C25   C     C_R   0.483815 0.871768 0.498207 -0.151128
C26   C     C_R   0.497757 0.936975 0.622347 0.035535
C27   C     C_3   0.600199 0.932462 0.753838 0.035682
C28   C     C_3   0.590584 0.076466 0.753576 -0.246082
C29   C     C_R   0.405766 0.561910 0.050880 0.073379
H1    H     H_    0.856207 0.638540 0.393306 0.165986
H2    H     H_    0.770134 0.431660 0.242543 0.255959
H3    H     H_    0.662897 0.299698 0.247572 0.265871
H4    H     H_    0.760075 0.308637 0.120236 0.210964
H5    H     H_    0.297105 0.345274 0.116553 0.092586
H6    H     H_    0.234429 0.731322 0.544775 0.064219
H7    H     H_    0.105656 0.343485 0.298751 0.254809
H8    H     H_    0.975319 0.367261 0.388072 0.249052
H9    H     H_    0.983275 0.459865 0.235514 0.264645
H10   H     H_    0.564066 0.762096 0.861164 0.247737
H11   H     H_    0.614784 0.892038 0.972760 0.232317
H12   H     H_    0.679889 0.124655 0.737513 0.124939
H13   H     H_    0.450290 0.887371 0.872627 0.247439
H14   H     H_    0.742281 0.836905 0.640866 0.056703
H15   H     H_    0.597779 0.136656 0.972863 0.055797
H16   H     H_    0.671139 0.391410 0.906534 0.147601
H17   H     H_    0.214838 0.633708 0.820255 0.215559
H18   H     H_    0.238152 0.460796 0.807429 0.239499
H19   H     H_    0.205054 0.614460 0.058351 0.180624
H20   H     H_    0.946787 0.498337 0.669892 0.182359
H21   H     H_    0.424715 0.113805 0.274081 0.175696
H22   H     H_    0.426607 0.886176 0.274724 0.176662
N1    N     N_R   0.499160 0.499140 0.142600 -0.121656
N2    N     N_R   0.499160 0.499180 0.856960 -0.112385
O1    O     O_R   0.500020 0.316790 0.614700 -0.579603
O2    O     O_2   0.080059 0.792921 0.612673 -0.534405
O3    O     O_2   0.828314 0.901202 0.824907 -0.531045
O4    O     O_2   0.426684 0.178271 0.851839 -0.551824
O5    O     O_R   0.500000 0.316760 0.385350 -0.639477
O6    O     O_R   0.317820 0.500020 0.571850 -0.616824
O7    O     O_R   0.317800 0.499980 0.342510 -0.624850
O8    O     O_R   0.500000 0.683240 0.614650 -0.625283
O9    O     O_R   0.499980 0.683210 0.385300 -0.614908
O10   O     O_R   0.682200 0.500020 0.657490 -0.606127
O11   O     O_R   0.682180 0.499980 0.428150 -0.612573
O12   O     O_2   0.112885 0.373932 0.021988 -0.580693
Zn1   Zn    Zn3+2 0.500010 0.500020 0.653140 0.965371
Zn2   Zn    Zn3+2 0.499990 0.499980 0.346860 0.925354

loop_
_geom_bond_atom_site_label_1
_geom_bond_atom_site_label_2
_ccdc_geom_bond_type
C1    C12   S    
C21   O3    D    
C20   H13   S    
C23   C24   A    
C11   C18   S    
C6    C7    S    
O1    Zn1   S    
C19   H9    S    
C16   H4    S    
C16   H3    S    
C9    O11   A    
C2    C16   S    
C18   H6    S    
C10   C19   S    
C17   O12   D    
C17   H5    S    
C12   C15   A    
C8    O8    A    
C1    O1    A    
C7    H19   S    
C4    O7    A    
C22   O4    D    
C2    C3    A    
C15   C28   S    
O10   Zn1   S    
C22   C28   S    
C13   C14   D    
C16   H2    S    
C8    C25   S    
C3    N2    A    
C12   C23   A    
C6    H17   S    
C26   C27   S    
N1    Zn2   S    
C1    O5    A    
C18   O2    D    
C14   H1    S    
C13   H20   S    
O9    Zn2   S    
C4    O6    A    
C5    N2    A    
C20   C27   S    
C2    N1    A    
C5    C29   A    
C19   H7    S    
O6    Zn1   S    
C21   C27   S    
C5    C6    S    
C20   H11   S    
C11   C14   S    
C24   H22   S    
C21   H14   S    
C6    H18   S    
C4    C10   S    
C7    C29   S    
O11   Zn2   S    
O5    Zn2   S    
C24   C25   A    
C10   C11   D    
C27   C28   S    
C20   H10   S    
N2    Zn1   S    
C23   H21   S    
C9    C13   S    
C19   H8    S    
C7    C17   S    
C25   C26   A    
C9    O10   A    
O8    Zn1   S    
C3    H16   S    
C22   H15   S    
C28   H12   S    
O7    Zn2   S    
C8    O9    A    
C15   C26   A    
C29   N1    A    
