data_mof_unit_36607.cif
_audit_creation_date              2012-12-10T18:18:27-0500
_audit_creation_method            fapswitch 2.2
_symmetry_space_group_name_H-M    P1
_symmetry_Int_Tables_number       1
_space_group_crystal_system       triclinic
_cell_length_a                    13.98959
_cell_length_b                    14.973903
_cell_length_c                    15.518545
_cell_angle_alpha                 89.886341
_cell_angle_beta                  67.063804
_cell_angle_gamma                 89.515255
_cell_volume                      2993.68477847

loop_
_atom_site_label
_atom_site_type_symbol
_atom_type_description
_atom_site_fract_x
_atom_site_fract_y
_atom_site_fract_z
_atom_type_partial_charge
C1    C     C_R   0.498697 0.673478 0.501375 0.870115
C2    C     C_R   0.497742 0.769384 0.495621 -0.134396
C3    C     C_R   0.601258 0.183292 0.438948 -0.083327
C4    C     C_R   0.403851 0.817396 0.533640 -0.074550
C5    C     C_R   0.598968 0.090342 0.424922 -0.046609
C6    C     C_R   0.403055 0.908638 0.513227 -0.048612
C7    C     C_R   0.502104 0.045865 0.464103 -0.014224
C8    C     C_R   0.499416 0.952504 0.467890 -0.017535
C9    C     C_R   0.408056 0.094639 0.503748 0.022194
C10   C     C_R   0.593424 0.903233 0.430747 0.025682
C11   C     C_R   0.690160 0.039747 0.374833 0.401399
C12   C     C_R   0.502027 0.326263 0.496406 0.870236
C13   C     C_R   0.309216 0.957728 0.537444 0.404920
C14   C     C_R   0.687903 0.946659 0.381007 -0.120367
C15   C     C_R   0.311726 0.050722 0.535626 -0.124537
C16   C     C_R   0.434862 0.501464 0.677109 0.896854
C17   C     C_R   0.565259 0.499899 0.323403 0.914026
C18   C     C_R   0.179992 0.438103 0.551981 -0.033316
C19   C     C_R   0.820311 0.561325 0.447183 -0.061528
C20   C     C_R   0.223943 0.561605 0.447705 -0.027736
C21   C     C_R   0.775815 0.438803 0.552804 0.009660
C22   C     C_R   0.123927 0.562980 0.446165 0.006900
C23   C     C_R   0.371741 0.479400 0.112276 -0.190824
C24   C     C_R   0.876042 0.437164 0.553836 -0.005452
C25   C     C_R   0.050667 0.499963 0.499854 0.087160
C26   C     C_R   0.949368 0.500062 0.499943 0.085796
C27   C     C_R   0.078703 0.436754 0.553366 0.004589
C28   C     C_R   0.921502 0.562960 0.446039 0.023880
C29   C     C_R   0.095569 0.625487 0.392505 -0.202465
C30   C     C_R   0.904637 0.374293 0.606983 -0.176586
C31   C     C_R   0.995163 0.625523 0.392478 -0.175058
C32   C     C_R   0.005197 0.374006 0.606642 -0.159715
C33   C     C_R   0.393080 0.500018 0.780634 -0.241351
C34   C     C_R   0.605822 0.424494 0.904025 -0.187448
C35   C     C_R   0.607525 0.490478 0.221329 -0.233606
C36   C     C_R   0.253368 0.490231 0.934980 -0.233020
C37   C     C_R   0.730400 0.427841 0.076117 -0.236559
C38   C     C_R   0.285797 0.495010 0.837607 -0.069472
C39   C     C_R   0.704984 0.450586 0.169638 -0.082018
C40   C     C_R   0.464965 0.500928 0.823784 0.387632
C41   C     C_R   0.540866 0.512241 0.176563 0.395400
C42   C     C_R   0.433134 0.479380 0.918699 -0.034469
C43   C     C_R   0.557383 0.473996 0.089492 -0.036425
C44   C     C_R   0.326218 0.483267 0.976692 0.038255
C45   C     C_R   0.295853 0.481076 0.074609 -0.020747
C46   C     C_R   0.656812 0.437457 0.035467 0.038275
C47   C     C_R   0.506743 0.460453 0.957786 0.049327
C48   C     C_R   0.478423 0.473448 0.054009 0.043136
C49   C     C_1   0.188026 0.483953 0.138365 0.154887
C50   C     C_1   0.778139 0.371035 0.884616 0.145680
C51   C     C_3   0.496382 0.659254 0.188073 0.118134
C52   C     C_3   0.414830 0.727269 0.244714 -0.861586
C53   C     C_3   0.574771 0.619248 0.784409 0.123094
C54   C     C_3   0.684729 0.648152 0.724487 -0.783313
C55   C     C_1   0.780519 0.432067 0.209706 0.214842
C56   C     C_R   0.679505 0.410932 0.942592 -0.011447
C57   C     C_1   0.206568 0.498169 0.799635 0.229054
C58   C     C_1   0.699259 0.229637 0.413316 0.296860
C59   C     C_1   0.312093 0.774474 0.600902 0.278418
C60   C     C_3   0.784243 0.095921 0.230917 0.087467
C61   C     C_3   0.884909 0.141940 0.171234 -0.768424
C62   C     C_3   0.197974 0.890946 0.483723 0.088372
C63   C     C_3   0.096078 0.840940 0.512292 -0.773628
C64   C     C_1   0.784364 0.897228 0.336483 0.215494
C65   C     C_1   0.214018 0.099549 0.567535 0.223768
C66   C     C_R   0.412167 0.186334 0.511996 -0.216653
C67   C     C_R   0.590556 0.811319 0.443515 -0.230269
C68   C     C_R   0.506751 0.230120 0.483609 -0.133447
H1    H     H_    0.203232 0.390078 0.592522 0.136024
H2    H     H_    0.806445 0.399328 0.036592 0.165869
H3    H     H_    0.345937 0.476933 0.187654 0.203346
H4    H     H_    0.624694 0.401990 0.832938 0.188988
H5    H     H_    0.340847 0.224340 0.544688 0.163879
H6    H     H_    0.660772 0.771364 0.413468 0.158862
H7    H     H_    0.510272 0.667393 0.112791 0.144891
H8    H     H_    0.569364 0.673816 0.198280 0.128373
H9    H     H_    0.403882 0.723948 0.319483 0.248932
H10   H     H_    0.440474 0.795581 0.218306 0.210178
H11   H     H_    0.339872 0.713660 0.238480 0.252746
H12   H     H_    0.797272 0.608839 0.406045 0.135588
H13   H     H_    0.558539 0.636208 0.858690 0.133967
H14   H     H_    0.520222 0.657092 0.761009 0.129970
H15   H     H_    0.701903 0.634580 0.649569 0.263253
H16   H     H_    0.693008 0.720799 0.733684 0.200952
H17   H     H_    0.741275 0.610930 0.745429 0.255513
H18   H     H_    0.718389 0.140096 0.234150 0.133078
H19   H     H_    0.780038 0.031843 0.196212 0.141094
H20   H     H_    0.952314 0.099248 0.165859 0.260510
H21   H     H_    0.886912 0.153913 0.099908 0.202411
H22   H     H_    0.890559 0.207084 0.202918 0.265781
H23   H     H_    0.281280 0.609551 0.407250 0.161731
H24   H     H_    0.261255 0.846100 0.437777 0.130139
H25   H     H_    0.193298 0.951269 0.443349 0.146869
H26   H     H_    0.031161 0.883284 0.559190 0.265103
H27   H     H_    0.081058 0.823819 0.449138 0.202634
H28   H     H_    0.099953 0.778318 0.549331 0.259582
H29   H     H_    0.718165 0.391200 0.593893 0.141060
H30   H     H_    0.150967 0.674338 0.350636 0.141856
H31   H     H_    0.849298 0.325293 0.648674 0.153373
H32   H     H_    0.975166 0.674415 0.350570 0.153953
H33   H     H_    0.025462 0.324788 0.648067 0.167848
H34   H     H_    0.170891 0.490801 0.977794 0.164316
N1    N     N_R   0.249980 0.499930 0.499960 -0.104848
N2    N     N_1   0.136049 0.138454 0.592935 -0.213867
N3    N     N_R   0.750020 0.500070 0.500040 -0.105012
N4    N     N_1   0.101796 0.486265 0.189516 -0.183185
N5    N     N_1   0.857113 0.339021 0.838494 -0.215782
N6    N     N_1   0.841406 0.417445 0.241440 -0.180048
N7    N     N_1   0.142698 0.500814 0.769661 -0.200165
N8    N     N_1   0.777301 0.266568 0.393505 -0.166360
N9    N     N_1   0.239387 0.740023 0.654503 -0.178624
N10   N     N_1   0.861352 0.857835 0.300970 -0.225479
O1    O     O_R   0.419720 0.632140 0.499980 -0.623427
O2    O     O_3   0.566769 0.526385 0.773736 -0.610069
O3    O     O_3   0.783009 0.080328 0.321195 -0.598592
O4    O     O_3   0.214145 0.915596 0.564854 -0.596927
O5    O     O_R   0.580280 0.367860 0.500020 -0.624399
O6    O     O_R   0.580270 0.632160 0.499970 -0.629100
O7    O     O_R   0.419730 0.367840 0.500030 -0.627040
O8    O     O_R   0.373870 0.499980 0.632250 -0.613237
O9    O     O_R   0.626130 0.500020 0.367750 -0.619965
O10   O     O_R   0.534420 0.500000 0.632240 -0.553893
O11   O     O_R   0.465580 0.500000 0.367760 -0.561659
O12   O     O_3   0.460165 0.572393 0.218502 -0.619201
Zn1   Zn    Zn3+2 0.392800 0.499980 0.500010 0.970803
Zn2   Zn    Zn3+2 0.607200 0.500020 0.499990 0.966624

loop_
_geom_bond_atom_site_label_1
_geom_bond_atom_site_label_2
_ccdc_geom_bond_type
C66   C68   A    
C34   C56   A    
C23   C45   A    
C22   C29   A    
C2    C4    A    
C3    C68   A    
C54   H16   S    
C61   H22   S    
C7    C8    A    
C20   N1    A    
C10   C67   A    
C53   O2    S    
C12   C68   S    
C63   H26   S    
C1    O1    A    
N3    Zn2   S    
C41   O12   S    
C53   H13   S    
C24   C26   A    
C5    C11   A    
C16   O8    A    
C8    C10   A    
C11   C14   A    
C64   N10   T    
O1    Zn1   S    
C38   C57   S    
C63   H27   S    
C36   H34   S    
C1    C2    S    
C16   O10   A    
C9    C66   A    
C40   O2    S    
C17   O11   A    
C39   C55   S    
C22   C25   A    
C62   H24   S    
C59   N9    T    
C52   H11   S    
C11   O3    S    
O5    Zn2   S    
C1    O6    A    
C18   H1    S    
C40   C42   A    
C37   H2    S    
C51   O12   S    
C41   C43   A    
C42   C44   A    
C52   H10   S    
C54   H15   S    
C60   H19   S    
C61   H21   S    
C20   H23   S    
C57   N7    T    
C33   C40   A    
C51   C52   S    
C23   H3    S    
C51   H8    S    
C4    C6    A    
C2    C67   A    
C10   C14   A    
C5    C7    A    
C60   H18   S    
O8    Zn1   S    
C6    C8    A    
C25   C26   A    
C53   C54   S    
C66   H5    S    
C30   H31   S    
C50   C56   S    
C53   H14   S    
O10   Zn2   S    
C35   C39   A    
C62   O4    S    
C62   C63   S    
C61   H20   S    
C16   C33   S    
C12   O7    A    
C21   H29   S    
C47   C48   A    
C45   C49   S    
C14   C64   S    
C67   H6    S    
C31   H32   S    
C19   C28   A    
C29   H30   S    
C17   O9    A    
C20   C22   A    
C13   C15   A    
C50   N5    T    
C36   C44   A    
C21   C24   A    
C52   H9    S    
C34   H4    S    
C44   C45   A    
O7    Zn1   S    
C43   C48   A    
C7    C9    A    
C23   C48   A    
C27   C32   A    
C58   N8    T    
C28   C31   A    
C18   C27   A    
C51   H7    S    
C3    C5    A    
C54   H17   S    
C49   N4    T    
C25   C27   A    
O6    Zn2   S    
C26   C28   A    
C33   C38   A    
C55   N6    T    
C36   C38   A    
C9    C15   A    
O9    Zn2   S    
C29   C31   A    
C6    C13   A    
C30   C32   A    
C63   H28   S    
C4    C59   S    
C18   N1    A    
C19   H12   S    
C35   C41   A    
C43   C46   A    
C24   C30   A    
C13   O4    S    
O11   Zn1   S    
C12   O5    A    
C3    C58   S    
C42   C47   A    
C19   N3    A    
C37   C39   A    
C62   H25   S    
C46   C56   A    
C32   H33   S    
C60   C61   S    
C60   O3    S    
C34   C47   A    
C17   C35   S    
C65   N2    T    
C37   C46   A    
N1    Zn1   S    
C21   N3    A    
C15   C65   S    
