data_mof_unit_32282.cif
_audit_creation_date              2012-12-10T20:11:28-0500
_audit_creation_method            fapswitch 2.2
_symmetry_space_group_name_H-M    P1
_symmetry_Int_Tables_number       1
_space_group_crystal_system       triclinic
_cell_length_a                    15.920334
_cell_length_b                    15.902147
_cell_length_c                    51.664346
_cell_angle_alpha                 90.082148
_cell_angle_beta                  89.951356
_cell_angle_gamma                 90.015408
_cell_volume                      13079.7142535

loop_
_atom_site_label
_atom_site_type_symbol
_atom_type_description
_atom_site_fract_x
_atom_site_fract_y
_atom_site_fract_z
_atom_type_partial_charge
C1    C     C_R   0.970009 0.549211 0.634374 -0.092688
C2    C     C_R   0.427664 0.026489 0.863466 -0.098263
C3    C     C_1   0.276624 0.223435 0.250018 -0.140887
C4    C     C_1   0.223377 0.723432 0.750006 -0.139943
C5    C     C_1   0.776616 0.276575 0.249991 -0.141518
C6    C     C_1   0.276571 0.223381 0.749995 -0.139652
C7    C     C_1   0.723408 0.776602 0.249996 -0.141432
C8    C     C_1   0.776590 0.723398 0.250002 -0.141607
C9    C     C_1   0.223385 0.276580 0.749987 -0.138018
C10   C     C_1   0.723387 0.223421 0.250010 -0.141582
C11   C     C_1   0.276605 0.776588 0.749986 -0.139426
C12   C     C_1   0.223359 0.276551 0.249992 -0.139773
C13   C     C_R   0.973081 0.427524 0.136566 -0.098268
C14   C     C_1   0.776635 0.723445 0.750014 -0.140741
C15   C     C_1   0.276610 0.776591 0.250004 -0.141648
C16   C     C_1   0.723405 0.223393 0.749988 -0.138625
C17   C     C_R   0.527374 0.069417 0.945015 0.513258
C18   C     C_R   0.472722 0.930577 0.054992 0.513143
C19   C     C_R   0.930843 0.528103 0.945032 0.513417
C20   C     C_R   0.069133 0.471747 0.054961 0.513526
C21   C     C_R   0.472179 0.930308 0.945023 0.513306
C22   C     C_R   0.527723 0.069757 0.054984 0.513183
C23   C     C_R   0.069760 0.472842 0.944993 0.513051
C24   C     C_R   0.973311 0.428037 0.863452 -0.098192
C25   C     C_R   0.930316 0.527271 0.055000 0.513156
C26   C     C_R   0.059838 0.516882 0.445418 0.509322
C27   C     C_R   0.964641 0.399743 0.555378 0.510179
C28   C     C_R   0.431218 0.056171 0.445364 0.512227
C29   C     C_R   0.548795 0.967013 0.555630 0.503097
C30   C     C_R   0.967019 0.399711 0.444844 0.502015
C31   C     C_R   0.073327 0.502377 0.555545 0.496512
C32   C     C_R   0.555255 0.972610 0.445716 0.504317
C33   C     C_R   0.432294 0.060569 0.555649 0.517582
C34   C     C_R   0.468076 0.929424 0.972453 -0.069085
C35   C     C_R   0.572294 0.973418 0.136538 -0.098234
C36   C     C_R   0.531879 0.070621 0.027555 -0.069160
C37   C     C_R   0.070565 0.468362 0.972414 -0.069065
C38   C     C_R   0.929486 0.531680 0.027578 -0.069012
C39   C     C_R   0.531702 0.070449 0.972438 -0.068983
C40   C     C_R   0.468343 0.929562 0.027570 -0.069056
C41   C     C_R   0.929785 0.532160 0.972462 -0.069079
C42   C     C_R   0.070219 0.467760 0.027530 -0.069014
C43   C     C_R   0.968752 0.393861 0.472407 -0.077643
C44   C     C_R   0.075874 0.503382 0.528015 -0.074460
C45   C     C_R   0.554232 0.968158 0.473134 -0.070848
C46   C     C_R   0.572012 0.973103 0.863422 -0.098232
C47   C     C_R   0.432906 0.064755 0.528157 -0.076727
C48   C     C_R   0.066383 0.513378 0.472860 -0.076997
C49   C     C_R   0.968893 0.392590 0.527879 -0.077366
C50   C     C_R   0.429898 0.059974 0.472891 -0.073758
C51   C     C_R   0.549266 0.963691 0.528202 -0.076936
C52   C     C_R   0.389080 0.790789 0.972921 0.201744
C53   C     C_R   0.430779 0.714515 0.968231 -0.111635
C54   C     C_R   0.388768 0.648317 0.955975 -0.145841
C55   C     C_R   0.304851 0.657760 0.948549 -0.100270
C56   C     C_R   0.262827 0.733273 0.953476 -0.115164
C57   C     C_R   0.026622 0.571985 0.136543 -0.098143
C58   C     C_R   0.304737 0.799752 0.965583 -0.111260
C59   C     C_R   0.610817 0.209280 0.027098 0.201620
C60   C     C_R   0.695052 0.200248 0.034543 -0.110960
C61   C     C_R   0.736870 0.266715 0.046687 -0.115085
C62   C     C_R   0.694866 0.342289 0.051538 -0.100310
C63   C     C_R   0.611064 0.351806 0.044000 -0.145799
C64   C     C_R   0.569141 0.285615 0.031713 -0.111920
C65   C     C_R   0.209044 0.389341 0.972780 0.201853
C66   C     C_R   0.285506 0.431004 0.968463 -0.113555
C67   C     C_R   0.351732 0.389224 0.956164 -0.146309
C68   C     C_R   0.027008 0.572441 0.863430 -0.098321
C69   C     C_R   0.342112 0.305583 0.948309 -0.100181
C70   C     C_R   0.266385 0.263600 0.952847 -0.115186
C71   C     C_R   0.199899 0.305265 0.965012 -0.110042
C72   C     C_R   0.791062 0.610814 0.027199 0.201992
C73   C     C_R   0.800160 0.695032 0.034828 -0.110485
C74   C     C_R   0.733683 0.736842 0.046951 -0.115264
C75   C     C_R   0.658022 0.694856 0.051593 -0.100011
C76   C     C_R   0.648454 0.611066 0.043881 -0.146205
C77   C     C_R   0.714662 0.569147 0.031618 -0.113136
C78   C     C_R   0.610699 0.209092 0.972852 0.201802
C79   C     C_R   0.499947 0.999974 0.986241 -0.036634
C80   C     C_R   0.569134 0.285528 0.968384 -0.112486
C81   C     C_R   0.611071 0.351661 0.956107 -0.146363
C82   C     C_R   0.694759 0.341967 0.948417 -0.100266
C83   C     C_R   0.736637 0.266273 0.953106 -0.114920
C84   C     C_R   0.694820 0.199882 0.965252 -0.110908
C85   C     C_R   0.389417 0.790887 0.027167 0.201676
C86   C     C_R   0.305401 0.800151 0.034869 -0.110631
C87   C     C_R   0.263685 0.733770 0.047052 -0.114834
C88   C     C_R   0.305553 0.658025 0.051669 -0.100307
C89   C     C_R   0.389127 0.648270 0.043873 -0.146310
C90   C     C_R   0.500053 0.000054 0.013766 -0.036596
C91   C     C_R   0.430968 0.714401 0.031564 -0.112735
C92   C     C_R   0.791489 0.611476 0.972961 0.201795
C93   C     C_R   0.715147 0.569980 0.968302 -0.111489
C94   C     C_R   0.649240 0.612238 0.956066 -0.146052
C95   C     C_R   0.659049 0.696194 0.948623 -0.100054
C96   C     C_R   0.734642 0.738008 0.953509 -0.114918
C97   C     C_R   0.800823 0.695855 0.965601 -0.111538
C98   C     C_R   0.208475 0.388358 0.027017 0.201912
C99   C     C_R   0.199228 0.303841 0.034232 -0.111982
C100  C     C_R   0.265412 0.261569 0.046282 -0.114987
C101  C     C_R   0.000092 0.500120 0.986234 -0.036595
C102  C     C_R   0.340914 0.303406 0.051277 -0.099937
C103  C     C_R   0.350633 0.387507 0.043982 -0.145980
C104  C     C_R   0.284731 0.429880 0.031782 -0.111036
C105  C     C_R   0.876328 0.263629 0.472728 0.203325
C106  C     C_R   0.914486 0.185032 0.468897 -0.131757
C107  C     C_R   0.869004 0.118865 0.457853 -0.137997
C108  C     C_R   0.785044 0.130617 0.450822 -0.103300
C109  C     C_R   0.746656 0.208645 0.454737 -0.125137
C110  C     C_R   0.792130 0.275208 0.465517 -0.085610
C111  C     C_R   0.198681 0.605170 0.526801 0.208264
C112  C     C_R   0.935061 0.518520 0.365108 -0.096851
C113  C     C_R   0.999935 0.499861 0.013759 -0.036637
C114  C     C_R   0.275354 0.564199 0.531293 -0.130873
C115  C     C_R   0.344777 0.609659 0.540140 -0.145910
C116  C     C_R   0.338212 0.696282 0.544236 -0.089145
C117  C     C_R   0.261696 0.737251 0.539995 -0.108462
C118  C     C_R   0.191769 0.691766 0.531613 -0.099577
C119  C     C_R   0.676349 0.865361 0.473975 0.204779
C120  C     C_R   0.758390 0.896303 0.471065 -0.131024
C121  C     C_R   0.820093 0.846529 0.459388 -0.144108
C122  C     C_R   0.800232 0.765701 0.450642 -0.085471
C123  C     C_R   0.718584 0.734565 0.453550 -0.109097
C124  C     C_R   0.019033 0.451880 0.486458 -0.034196
C125  C     C_R   0.656685 0.784148 0.465213 -0.102729
C126  C     C_R   0.326061 0.182728 0.527395 0.193259
C127  C     C_R   0.366747 0.256117 0.535920 -0.118018
C128  C     C_R   0.320245 0.322459 0.546412 -0.138393
C129  C     C_R   0.232884 0.316462 0.548152 -0.094701
C130  C     C_R   0.192010 0.243504 0.539827 -0.113616
C131  C     C_R   0.238361 0.176242 0.529812 -0.096287
C132  C     C_R   0.165564 0.638395 0.474319 0.203739
C133  C     C_R   0.124528 0.715479 0.470367 -0.111715
C134  C     C_R   0.168840 0.784281 0.460549 -0.148276
C135  C     C_R   0.021185 0.449306 0.514097 -0.033357
C136  C     C_R   0.254221 0.776587 0.454731 -0.090403
C137  C     C_R   0.295224 0.699726 0.458418 -0.110383
C138  C     C_R   0.251035 0.630594 0.468084 -0.108294
C139  C     C_R   0.874167 0.263771 0.526971 0.203023
C140  C     C_R   0.785997 0.265904 0.527538 -0.106119
C141  C     C_R   0.740701 0.196253 0.536302 -0.109768
C142  C     C_R   0.783002 0.125065 0.545301 -0.098127
C143  C     C_R   0.870795 0.123318 0.545389 -0.133598
C144  C     C_R   0.916358 0.192179 0.536087 -0.108204
C145  C     C_R   0.299585 0.152970 0.473797 0.199631
C146  C     C_R   0.491880 0.014301 0.486800 -0.039212
C147  C     C_R   0.228148 0.106964 0.466414 -0.102845
C148  C     C_R   0.156853 0.148632 0.457260 -0.149484
C149  C     C_R   0.155663 0.236406 0.456017 -0.095213
C150  C     C_R   0.226557 0.282576 0.463318 -0.109049
C151  C     C_R   0.298949 0.241069 0.471684 -0.112474
C152  C     C_R   0.651276 0.841991 0.527406 0.202949
C153  C     C_R   0.608467 0.767081 0.533100 -0.130094
C154  C     C_R   0.651023 0.700000 0.544548 -0.137808
C155  C     C_R   0.736424 0.707305 0.550313 -0.081249
C156  C     C_R   0.779383 0.781918 0.544749 -0.114208
C157  C     C_R   0.491421 0.014401 0.514363 -0.039734
C158  C     C_R   0.736981 0.849298 0.533341 -0.101130
C159  C     C_1   0.947722 0.604790 0.590114 0.224131
C160  C     C_1   0.869127 0.537596 0.408370 0.208192
C161  C     C_1   0.385717 0.898102 0.595596 0.209834
C162  C     C_1   0.447086 0.862523 0.406375 0.205302
C163  C     C_1   0.070723 0.322535 0.602723 0.220691
C164  C     C_1   0.144319 0.397959 0.400753 0.204347
C165  C     C_1   0.587849 0.132479 0.596626 0.198512
C166  C     C_1   0.542724 0.156958 0.403886 0.218157
C167  C     C_1   0.353539 0.048344 0.094898 0.200460
C168  C     C_R   0.432772 0.860909 0.986370 -0.065666
C169  C     C_1   0.352876 0.047206 0.905190 0.200774
C170  C     C_1   0.951843 0.352646 0.094868 0.201032
C171  C     C_1   0.952290 0.353514 0.905164 0.200249
C172  C     C_1   0.647050 0.952601 0.094815 0.200740
C173  C     C_1   0.646536 0.951913 0.905110 0.200491
C174  C     C_1   0.047588 0.646519 0.094829 0.200290
C175  C     C_1   0.048334 0.647291 0.905127 0.200985
C176  C     C_1   0.935581 0.626210 0.645052 0.193360
C177  C     C_1   0.865411 0.564058 0.353726 0.227601
C178  C     C_1   0.392878 0.886995 0.650569 0.222721
C179  C     C_R   0.567192 0.139133 0.013641 -0.065700
C180  C     C_1   0.442730 0.856152 0.351521 0.238036
C181  C     C_1   0.065242 0.346088 0.657503 0.201724
C182  C     C_1   0.135934 0.406983 0.346238 0.234614
C183  C     C_1   0.604253 0.117959 0.651297 0.225962
C184  C     C_1   0.560149 0.148323 0.349450 0.241147
C185  C     C_1   0.354033 0.059077 0.149727 0.240609
C186  C     C_1   0.353649 0.058452 0.850378 0.240283
C187  C     C_1   0.941125 0.353490 0.149700 0.240346
C188  C     C_1   0.941156 0.353943 0.850346 0.240128
C189  C     C_1   0.646256 0.941339 0.149627 0.240482
C190  C     C_R   0.138908 0.432759 0.986289 -0.065696
C191  C     C_1   0.646065 0.941161 0.850282 0.240486
C192  C     C_1   0.058687 0.646120 0.149647 0.240318
C193  C     C_1   0.059042 0.646440 0.850295 0.240162
C194  C     C_R   0.861144 0.567279 0.013700 -0.065659
C195  C     C_R   0.567118 0.139043 0.986333 -0.065533
C196  C     C_R   0.445800 0.947031 0.637095 -0.097096
C197  C     C_R   0.432923 0.860968 0.013677 -0.065572
C198  C     C_R   0.861308 0.567540 0.986393 -0.065629
C199  C     C_R   0.138699 0.432390 0.013596 -0.065599
C200  C     C_R   0.922780 0.331762 0.486295 -0.067648
C201  C     C_R   0.129204 0.558701 0.514051 -0.061821
C202  C     C_R   0.611699 0.917256 0.487177 -0.065430
C203  C     C_R   0.375747 0.115911 0.514174 -0.061896
C204  C     C_R   0.119944 0.568112 0.487004 -0.068835
C205  C     C_R   0.921818 0.331866 0.513757 -0.063942
C206  C     C_R   0.370324 0.109179 0.486870 -0.064952
C207  C     C_R   0.471853 0.932288 0.364165 -0.099829
C208  C     C_R   0.605702 0.911376 0.514343 -0.064056
C209  C     C_R   0.974786 0.538138 0.607213 -0.001367
C210  C     C_R   0.937258 0.507238 0.392300 -0.010842
C211  C     C_R   0.441727 0.952415 0.609894 -0.007001
C212  C     C_R   0.470552 0.935949 0.391484 -0.010463
C213  C     C_R   0.037320 0.399904 0.613330 -0.012898
C214  C     C_R   0.072211 0.436930 0.388664 -0.013673
C215  C     C_R   0.541734 0.068086 0.610378 -0.008790
C216  C     C_R   0.520046 0.080456 0.390301 -0.013599
C217  C     C_R   0.428021 0.025092 0.109310 -0.011864
C218  C     C_R   0.034594 0.411750 0.640477 -0.086390
C219  C     C_R   0.427526 0.024371 0.890738 -0.011776
C220  C     C_R   0.974990 0.427344 0.109291 -0.011647
C221  C     C_R   0.975433 0.428067 0.890723 -0.011888
C222  C     C_R   0.572435 0.975544 0.109267 -0.011705
C223  C     C_R   0.572018 0.975044 0.890696 -0.011936
C224  C     C_R   0.024512 0.571946 0.109272 -0.011849
C225  C     C_R   0.025107 0.572618 0.890705 -0.011683
C226  C     C_R   0.008316 0.463388 0.596489 0.202083
C227  C     C_R   0.006146 0.467305 0.404176 0.216438
C228  C     C_R   0.490230 0.012195 0.596500 0.215740
C229  C     C_R   0.069393 0.445264 0.361474 -0.093724
C230  C     C_R   0.493215 0.010292 0.404569 0.211886
C231  C     C_R   0.500243 0.000311 0.095732 0.220934
C232  C     C_R   0.499757 0.999718 0.904274 0.220887
C233  C     C_R   0.999702 0.499592 0.095724 0.220857
C234  C     C_R   0.000324 0.500393 0.904270 0.220874
C235  C     C_R   0.000016 0.500057 0.820315 0.802239
C236  C     C_R   0.999985 0.499942 0.179684 0.803353
C237  C     C_R   0.499965 0.999978 0.820308 0.801940
C238  C     C_R   0.500035 0.000024 0.179693 0.802705
C239  C     C_R   0.500242 0.000373 0.320364 0.802024
C240  C     C_R   0.547090 0.062587 0.637532 -0.090958
C241  C     C_R   0.500229 0.000197 0.679858 0.810552
C242  C     C_R   0.000135 0.498212 0.320337 0.801671
C243  C     C_R   0.000136 0.498884 0.679810 0.815649
C244  C     C_R   0.839736 0.660331 0.750008 0.855515
C245  C     C_R   0.160258 0.339664 0.249995 0.853152
C246  C     C_R   0.339703 0.839694 0.749988 0.855605
C247  C     C_R   0.660291 0.160312 0.250009 0.852845
C248  C     C_R   0.160277 0.339694 0.749989 0.859045
C249  C     C_R   0.839704 0.660288 0.250002 0.852747
C250  C     C_R   0.660286 0.160274 0.749991 0.854353
C251  C     C_R   0.525341 0.076467 0.363060 -0.096602
C252  C     C_R   0.339723 0.839716 0.250005 0.851742
C253  C     C_R   0.839711 0.339686 0.249992 0.852625
C254  C     C_R   0.160288 0.660316 0.750007 0.854181
C255  C     C_R   0.339731 0.160327 0.250010 0.852679
C256  C     C_R   0.660267 0.839672 0.749992 0.853435
C257  C     C_R   0.160279 0.660282 0.249994 0.851924
C258  C     C_R   0.839729 0.339709 0.750002 0.854121
C259  C     C_R   0.660294 0.839710 0.249997 0.852214
C260  C     C_R   0.339699 0.160284 0.750000 0.853665
C261  C     C_R   0.001104 0.486607 0.651154 -0.108068
C262  C     C_R   0.428030 0.027023 0.136584 -0.098172
C263  C     C_R   0.001443 0.487817 0.349310 -0.129537
C264  C     C_R   0.498847 0.002022 0.651109 -0.121091
C265  C     C_R   0.499621 0.002611 0.349499 -0.133051
C266  C     C_R   0.500116 0.000138 0.150645 -0.132761
C267  C     C_R   0.499884 0.999872 0.849358 -0.132615
C268  C     C_R   0.999904 0.499811 0.150637 -0.132981
C269  C     C_R   0.000102 0.500185 0.849360 -0.132656
C270  C     C_1   0.776622 0.276579 0.749999 -0.139415
C271  C     C_1   0.223393 0.723406 0.249994 -0.141572
C272  C     C_1   0.723372 0.776563 0.749987 -0.140753
H1    H     H_    0.495372 0.706470 0.974213 0.113817
H2    H     H_    0.504631 0.293709 0.025654 0.113823
H3    H     H_    0.293688 0.495376 0.974776 0.114451
H4    H     H_    0.410568 0.421536 0.952819 0.117927
H5    H     H_    0.393391 0.273162 0.938812 0.160601
H6    H     H_    0.259162 0.198738 0.947004 0.156733
H7    H     H_    0.141520 0.272155 0.968495 0.123078
H8    H     H_    0.858482 0.728149 0.031258 0.123101
H9    H     H_    0.740860 0.801823 0.052675 0.156706
H10   H     H_    0.606750 0.727391 0.061057 0.160854
H11   H     H_    0.589666 0.578749 0.047305 0.118101
H12   H     H_    0.421123 0.589641 0.952332 0.118339
H13   H     H_    0.706511 0.504667 0.025406 0.114382
H14   H     H_    0.504707 0.293751 0.974556 0.114244
H15   H     H_    0.578842 0.410481 0.952645 0.117998
H16   H     H_    0.727295 0.393162 0.938929 0.160066
H17   H     H_    0.801536 0.259000 0.947392 0.156584
H18   H     H_    0.727846 0.141526 0.968851 0.123025
H19   H     H_    0.272389 0.858553 0.031331 0.122988
H20   H     H_    0.198878 0.741094 0.052854 0.156603
H21   H     H_    0.273098 0.606841 0.061188 0.159758
H22   H     H_    0.421348 0.589413 0.047281 0.117884
H23   H     H_    0.272248 0.606502 0.939087 0.161143
H24   H     H_    0.495317 0.706141 0.025319 0.114240
H25   H     H_    0.706823 0.505354 0.974292 0.113952
H26   H     H_    0.590506 0.580043 0.952450 0.118242
H27   H     H_    0.608020 0.728988 0.939174 0.160131
H28   H     H_    0.741999 0.803117 0.947993 0.156385
H29   H     H_    0.859105 0.728828 0.969352 0.122963
H30   H     H_    0.141023 0.270845 0.030391 0.122993
H31   H     H_    0.258133 0.196345 0.051675 0.156350
H32   H     H_    0.391946 0.270519 0.060693 0.160423
H33   H     H_    0.409301 0.419721 0.047681 0.118440
H34   H     H_    0.197743 0.740330 0.947981 0.156474
H35   H     H_    0.292996 0.494610 0.025896 0.113892
H36   H     H_    0.978731 0.174818 0.474936 0.108258
H37   H     H_    0.898523 0.058231 0.455030 0.124534
H38   H     H_    0.749563 0.079175 0.442507 0.162136
H39   H     H_    0.681426 0.217361 0.449694 0.152212
H40   H     H_    0.761552 0.335159 0.468722 0.121224
H41   H     H_    0.281801 0.497752 0.527183 0.113691
H42   H     H_    0.404092 0.578077 0.543309 0.128391
H43   H     H_    0.392622 0.731621 0.550504 0.139757
H44   H     H_    0.256679 0.804479 0.542763 0.149534
H45   H     H_    0.271605 0.857973 0.969364 0.123073
H46   H     H_    0.133231 0.724297 0.527946 0.119781
H47   H     H_    0.774454 0.958493 0.478044 0.115636
H48   H     H_    0.883354 0.870467 0.457213 0.123461
H49   H     H_    0.848185 0.727207 0.441674 0.145098
H50   H     H_    0.703230 0.671947 0.446851 0.152946
H51   H     H_    0.593740 0.759403 0.467544 0.119215
H52   H     H_    0.434249 0.262244 0.534067 0.121104
H53   H     H_    0.351875 0.378903 0.552915 0.137137
H54   H     H_    0.196910 0.368292 0.555978 0.142833
H55   H     H_    0.124375 0.239296 0.541045 0.129936
H56   H     H_    0.728163 0.141973 0.030827 0.123043
H57   H     H_    0.205967 0.120193 0.523310 0.115287
H58   H     H_    0.058780 0.722482 0.475335 0.117164
H59   H     H_    0.137254 0.843835 0.457739 0.126277
H60   H     H_    0.288515 0.830396 0.447499 0.143933
H61   H     H_    0.361435 0.693831 0.454068 0.148174
H62   H     H_    0.283548 0.571692 0.471261 0.117512
H63   H     H_    0.752521 0.320231 0.520275 0.114882
H64   H     H_    0.672761 0.197143 0.535798 0.139946
H65   H     H_    0.747750 0.071133 0.552052 0.152423
H66   H     H_    0.903515 0.067958 0.552192 0.136924
H67   H     H_    0.801862 0.259594 0.052273 0.156499
H68   H     H_    0.984158 0.188833 0.535294 0.108292
H69   H     H_    0.227284 0.039116 0.468249 0.116246
H70   H     H_    0.102021 0.112893 0.451573 0.131076
H71   H     H_    0.099820 0.268618 0.449414 0.145118
H72   H     H_    0.225233 0.350601 0.462670 0.140298
H73   H     H_    0.353106 0.277513 0.477614 0.120392
H74   H     H_    0.542434 0.760600 0.528466 0.111206
H75   H     H_    0.617899 0.642226 0.548844 0.132399
H76   H     H_    0.769056 0.654956 0.559054 0.150206
H77   H     H_    0.845532 0.787567 0.549197 0.148502
H78   H     H_    0.727395 0.393535 0.061030 0.160861
H79   H     H_    0.770655 0.906814 0.529055 0.109297
H80   H     H_    0.578727 0.410529 0.047586 0.118218
N1    N     N_R   0.499758 0.999815 0.932217 -0.340689
N2    N     N_1   0.814607 0.561469 0.421241 -0.229788
N3    N     N_1   0.340284 0.854814 0.584339 -0.221501
N4    N     N_1   0.429100 0.803515 0.418203 -0.231653
N5    N     N_1   0.097078 0.260255 0.594455 -0.189327
N6    N     N_1   0.202724 0.367191 0.410056 -0.187921
N7    N     N_1   0.624433 0.184588 0.585842 -0.202511
N8    N     N_1   0.560246 0.218350 0.414641 -0.209911
N9    N     N_1   0.293938 0.066490 0.083399 -0.220138
N10   N     N_1   0.293135 0.064982 0.916722 -0.220184
N11   N     N_1   0.933798 0.292866 0.083361 -0.219790
N12   N     N_R   0.500240 0.000214 0.067790 -0.340663
N13   N     N_1   0.934245 0.293859 0.916690 -0.220352
N14   N     N_1   0.706766 0.934736 0.083284 -0.220203
N15   N     N_1   0.706164 0.933867 0.916611 -0.220146
N16   N     N_1   0.065575 0.706188 0.083302 -0.220371
N17   N     N_1   0.066447 0.707051 0.916634 -0.219783
N18   N     N_1   0.908092 0.687658 0.653586 -0.186241
N19   N     N_1   0.809774 0.600476 0.344688 -0.169515
N20   N     N_1   0.350621 0.839119 0.661297 -0.173469
N21   N     N_1   0.419382 0.795314 0.341517 -0.162758
N22   N     N_1   0.089687 0.293764 0.671100 -0.193724
N23   N     N_R   0.000335 0.500504 0.932211 -0.340673
N24   N     N_1   0.189025 0.376306 0.334163 -0.166150
N25   N     N_1   0.649876 0.162098 0.662250 -0.174567
N26   N     N_1   0.588031 0.205718 0.338688 -0.163260
N27   N     N_1   0.294913 0.084768 0.160123 -0.163964
N28   N     N_1   0.294513 0.084071 0.840026 -0.163947
N29   N     N_1   0.915513 0.294339 0.160089 -0.163983
N30   N     N_1   0.915385 0.294748 0.839980 -0.163981
N31   N     N_1   0.705349 0.915629 0.159980 -0.164016
N32   N     N_1   0.705230 0.915560 0.839888 -0.163747
N33   N     N_1   0.084385 0.705350 0.160012 -0.164035
N34   N     N_R   0.999692 0.499478 0.067782 -0.340728
N35   N     N_1   0.084717 0.705561 0.839904 -0.163922
N36   N     N_R   0.010880 0.461050 0.432229 -0.340538
N37   N     N_R   0.016103 0.454022 0.568479 -0.342586
N38   N     N_R   0.492928 0.013069 0.432638 -0.341470
N39   N     N_R   0.490294 0.013511 0.568512 -0.342044
N40   N     N_1   0.927020 0.658356 0.576418 -0.236681
O1    O     O_3   0.000000 0.500000 0.750000 -0.492614
O2    O     O_R   0.000000 0.430630 0.192350 -0.632924
O3    O     O_R   0.430630 0.000000 0.807650 -0.633133
O4    O     O_R   0.569370 1.000000 0.192350 -0.632829
O5    O     O_R   0.500000 0.930630 0.307650 -0.630891
O6    O     O_R   0.500000 0.069370 0.692350 -0.631896
O7    O     O_R   0.069370 0.500000 0.307650 -0.631604
O8    O     O_R   0.930630 0.500000 0.692350 -0.628946
O9    O     O_R   0.500000 0.069370 0.307650 -0.633034
O10   O     O_R   0.500000 0.930630 0.692350 -0.630656
O11   O     O_R   0.930630 0.500000 0.307650 -0.629695
O12   O     O_3   0.000000 0.500000 0.250000 -0.491235
O13   O     O_R   0.069370 0.500000 0.692350 -0.628525
O14   O     O_R   0.902350 0.666510 0.764820 -0.633128
O15   O     O_R   0.097650 0.333490 0.235180 -0.634349
O16   O     O_R   0.333490 0.902350 0.764820 -0.633292
O17   O     O_R   0.666510 0.097650 0.235180 -0.633541
O18   O     O_R   0.097650 0.333490 0.764820 -0.633291
O19   O     O_R   0.902350 0.666510 0.235180 -0.633527
O20   O     O_R   0.666510 0.097650 0.764820 -0.633372
O21   O     O_R   0.333490 0.902350 0.235180 -0.633351
O22   O     O_R   0.902350 0.333490 0.235180 -0.631458
O23   O     O_3   0.500000 0.000000 0.750000 -0.492076
O24   O     O_R   0.097650 0.666510 0.764820 -0.631025
O25   O     O_R   0.333490 0.097650 0.235180 -0.631224
O26   O     O_R   0.666510 0.902350 0.764820 -0.630310
O27   O     O_R   0.097650 0.666510 0.235180 -0.631255
O28   O     O_R   0.902350 0.333490 0.764820 -0.630489
O29   O     O_R   0.666510 0.902350 0.235180 -0.631312
O30   O     O_R   0.333490 0.097650 0.764820 -0.630716
O31   O     O_R   0.402350 0.166510 0.264820 -0.633243
O32   O     O_R   0.597650 0.833490 0.735180 -0.635387
O33   O     O_R   0.833490 0.402350 0.264820 -0.633877
O34   O     O_3   0.500000 0.000000 0.250000 -0.490913
O35   O     O_R   0.166510 0.597650 0.735180 -0.634571
O36   O     O_R   0.597650 0.833490 0.264820 -0.633412
O37   O     O_R   0.402350 0.166510 0.735180 -0.634583
O38   O     O_R   0.166510 0.597650 0.264820 -0.633380
O39   O     O_R   0.833490 0.402350 0.735180 -0.634679
O40   O     O_R   0.402350 0.833490 0.735180 -0.631430
O41   O     O_R   0.597650 0.166510 0.264820 -0.631332
O42   O     O_R   0.833490 0.597650 0.735180 -0.633228
O43   O     O_R   0.166510 0.402350 0.264820 -0.629903
O44   O     O_R   0.597650 0.166510 0.735180 -0.631479
O45   O     O_R   0.000000 0.430630 0.807650 -0.633195
O46   O     O_R   0.402350 0.833490 0.264820 -0.631447
O47   O     O_R   0.166510 0.402350 0.735180 -0.632165
O48   O     O_R   0.833490 0.597650 0.264820 -0.631112
O49   O     O_2   0.549796 0.137194 0.930956 -0.559801
O50   O     O_2   0.450443 0.862750 0.069050 -0.559818
O51   O     O_2   0.863191 0.550746 0.930990 -0.559546
O52   O     O_2   0.136713 0.448904 0.069005 -0.559399
O53   O     O_2   0.449565 0.862487 0.930966 -0.559484
O54   O     O_2   0.550189 0.137629 0.069040 -0.559521
O55   O     O_2   0.137563 0.450484 0.930922 -0.559921
O56   O     O_R   0.000000 0.569370 0.192350 -0.632558
O57   O     O_2   0.862581 0.549824 0.069073 -0.559761
O58   O     O_2   0.102419 0.575011 0.431690 -0.552354
O59   O     O_2   0.908065 0.354792 0.568989 -0.546239
O60   O     O_2   0.372496 0.096024 0.431170 -0.549164
O61   O     O_2   0.606989 0.925368 0.569580 -0.557380
O62   O     O_2   0.921870 0.345141 0.430527 -0.552192
O63   O     O_2   0.125707 0.551172 0.569525 -0.549498
O64   O     O_2   0.617804 0.937048 0.431906 -0.561020
O65   O     O_2   0.373488 0.101473 0.569614 -0.544484
O66   O     O_R   0.569370 0.000000 0.807650 -0.632871
O67   O     O_R   0.430630 1.000000 0.192350 -0.632616
O68   O     O_R   0.000000 0.569370 0.807650 -0.633398
Zn1   Zn    Zn3+2 0.900880 0.500000 0.727850 1.000753
Zn2   Zn    Zn3+2 0.599120 0.000000 0.772150 0.997479
Zn3   Zn    Zn3+2 0.000000 0.400880 0.227850 0.996603
Zn4   Zn    Zn3+2 0.000000 0.599120 0.772150 0.998044
Zn5   Zn    Zn3+2 0.599120 0.000000 0.227850 0.996816
Zn6   Zn    Zn3+2 0.400880 0.000000 0.772150 0.997863
Zn7   Zn    Zn3+2 0.000000 0.599120 0.227850 0.997070
Zn8   Zn    Zn3+2 0.000000 0.400880 0.772150 0.998999
Zn9   Zn    Zn3+2 0.099120 0.500000 0.272150 0.997869
Zn10  Zn    Zn3+2 0.500000 0.900880 0.727850 0.998998
Zn11  Zn    Zn3+2 0.500000 0.099120 0.272150 0.997607
Zn12  Zn    Zn3+2 0.099120 0.500000 0.727850 1.002524
Zn13  Zn    Zn3+2 0.900880 0.500000 0.272150 0.997996
Zn14  Zn    Zn3+2 0.500000 0.099120 0.727850 0.998888
Zn15  Zn    Zn3+2 0.500000 0.900880 0.272150 0.997334
Zn16  Zn    Zn3+2 0.400880 0.000000 0.227850 0.996905

loop_
_geom_bond_atom_site_label_1
_geom_bond_atom_site_label_2
_ccdc_geom_bond_type
C105  C110  A    
C173  N15   T    
C1    C176  S    
C126  C127  A    
C221  C234  A    
C20   O52   S    
C101  C113  A    
C32   C45   A    
C7    C259  S    
C219  C232  A    
C55   C56   A    
C114  C115  A    
C146  C157  A    
O1    Zn1   S    
O23   Zn6   S    
O45   Zn8   S    
C30   O62   S    
C178  N20   T    
C72   C194  S    
C22   N12   A    
C259  O36   A    
C27   O59   S    
C106  C107  A    
C12   C245  S    
O42   Zn1   S    
C25   O57   S    
C108  C109  A    
C215  C228  A    
C17   C39   A    
C18   C40   A    
C79   C90   A    
C213  C226  A    
O9    Zn11  S    
C21   O53   S    
C57   C224  A    
C238  O67   A    
C103  H33   S    
C183  N25   T    
C68   C193  S    
C243  O13   A    
C44   C135  A    
C138  H62   S    
C59   C60   A    
C32   N38   A    
C93   H25   S    
C66   H3    S    
C36   C179  A    
C30   N36   A    
C190  C199  A    
O34   Zn16  S    
O3    Zn6   S    
C168  C197  A    
C144  H68   S    
C140  C141  A    
C57   C192  S    
C31   C44   A    
O12   Zn7   S    
C243  O8    A    
C179  C195  A    
C23   C37   A    
C39   C195  A    
C51   C157  A    
C183  C240  S    
C75   C76   A    
C151  H73   S    
O56   Zn7   S    
C41   C198  A    
C254  O24   A    
C136  H60   S    
C180  N21   T    
C109  H39   S    
C31   O63   S    
C87   H20   S    
C110  H40   S    
C76   C77   A    
C154  C155  A    
C52   C58   A    
C14   C244  S    
C106  H36   S    
C207  C265  A    
C111  C118  A    
C33   C47   A    
C30   C43   A    
C185  N27   T    
C209  C226  A    
C70   C71   A    
C223  C232  A    
O23   Zn2   S    
O47   Zn12  S    
C181  N22   T    
C236  O56   A    
C124  C135  A    
C77   H13   S    
C72   C73   A    
C70   H6    S    
C20   C42   A    
C139  C140  A    
C235  C269  S    
C22   C36   A    
C80   H14   S    
C159  C209  S    
C237  C267  S    
C156  C158  A    
C130  C131  A    
C137  H61   S    
O5    Zn15  S    
C226  N37   S    
O29   Zn5   S    
O34   Zn5   S    
C17   N1    A    
C227  N36   S    
C177  N19   T    
C260  O30   A    
C186  N28   T    
C239  O9    A    
C69   C70   A    
C155  H76   S    
C84   H18   S    
C88   C89   A    
C257  O27   A    
C176  N18   T    
C98   C99   A    
C40   C197  A    
C155  C156  A    
C128  H53   S    
C254  O35   A    
C109  C110  A    
C214  C229  A    
C18   O50   S    
C143  C144  A    
C13   C187  S    
O44   Zn14  S    
C129  H54   S    
C4    C254  S    
C46   C191  S    
C128  C129  A    
C111  C201  S    
C6    C9    T    
C83   H17   S    
C7    C8    T    
C255  O25   A    
C24   C221  A    
C118  H46   S    
C98   C199  S    
C225  C234  A    
C160  N2    T    
C62   H78   S    
C85   C86   A    
C131  H57   S    
C78   C80   A    
C89   H22   S    
C2    C267  A    
C115  C116  A    
C91   H24   S    
C26   N36   A    
C88   H21   S    
C5    C253  S    
C67   H4    S    
C9    C248  S    
C237  O66   A    
O18   Zn8   S    
C42   C113  A    
C142  H65   S    
O68   Zn4   S    
C74   H9    S    
C241  O10   A    
C107  C108  A    
C230  N38   S    
C234  N23   S    
C89   C91   A    
C171  N13   T    
C251  C265  A    
C31   N37   A    
C252  O21   A    
C66   C67   A    
C49   C135  A    
C32   O64   S    
O23   Zn10  S    
C153  H74   S    
C119  C202  S    
C240  C264  A    
C92   C198  S    
C33   O65   S    
C65   C190  S    
C171  C221  S    
C92   C97   A    
C236  C268  S    
C257  O38   A    
C104  H35   S    
C1    C209  A    
C140  H63   S    
C220  C233  A    
C238  C266  S    
O27   Zn7   S    
C46   C267  A    
O34   Zn11  S    
C164  C214  S    
C178  C196  S    
C71   H7    S    
C148  H70   S    
C25   C38   A    
C83   C84   A    
C108  H38   S    
C237  O3    A    
C242  O7    A    
C23   O55   S    
C141  H64   S    
C94   H26   S    
C236  O2    A    
C214  C227  A    
O10   Zn10  S    
O36   Zn15  S    
C191  N32   T    
C257  C271  S    
O35   Zn12  S    
C50   C206  A    
C143  H66   S    
C260  O37   A    
O66   Zn2   S    
C248  O47   A    
C28   N38   A    
O39   Zn1   S    
C13   C268  A    
C82   H16   S    
C52   C53   A    
C255  O31   A    
O8    Zn1   S    
C47   C157  A    
C36   C90   A    
C256  O32   A    
C54   C55   A    
C86   H19   S    
C152  C208  S    
C156  H77   S    
C161  N3    T    
C184  N26   T    
C16   C270  T    
C213  C218  A    
C122  C123  A    
C158  H79   S    
C126  C203  S    
C48   C204  A    
C211  C228  A    
C58   H45   S    
O19   Zn7   S    
O13   Zn12  S    
O14   Zn4   S    
C68   C269  A    
C117  C118  A    
C123  H50   S    
C37   C101  A    
C194  C198  A    
C107  H37   S    
C216  C251  A    
C56   C58   A    
C242  O11   A    
C13   C220  A    
C61   C62   A    
C172  C222  S    
C122  H49   S    
C63   C64   A    
C134  H59   S    
C152  C153  A    
C166  C216  S    
C218  C261  A    
C60   H56   S    
C150  C151  A    
C10   C247  S    
C243  C261  S    
O15   Zn3   S    
C167  C217  S    
C165  N7    T    
C27   C49   A    
C163  N5    T    
C87   C88   A    
C200  C205  A    
C187  N29   T    
C253  O33   A    
C73   C74   A    
C33   N39   A    
C228  N39   S    
O31   Zn11  S    
C232  N1    S    
C247  O17   A    
C120  C121  A    
C114  H41   S    
C75   H10   S    
O22   Zn3   S    
C42   C199  A    
C193  N35   T    
C129  C130  A    
C29   O61   S    
C29   C51   A    
C14   C272  T    
C185  C262  S    
C123  C125  A    
C15   C252  S    
C132  C138  A    
C26   O58   S    
C6    C260  S    
C120  H47   S    
O32   Zn10  S    
C115  H42   S    
C253  O22   A    
O6    Zn14  S    
C139  C205  S    
C165  C215  S    
C147  C148  A    
C57   C268  A    
C20   N34   A    
C45   C202  A    
C149  H71   S    
C43   C200  A    
C81   H15   S    
C182  N24   T    
C180  C207  S    
O20   Zn2   S    
O12   Zn13  S    
C26   C48   A    
O7    Zn9   S    
C50   C146  A    
C256  O26   A    
C35   C189  S    
O12   Zn9   S    
C249  O48   A    
C34   C168  A    
C145  C147  A    
O4    Zn5   S    
C18   N12   A    
C229  C263  A    
C203  C206  A    
C152  C158  A    
C132  C204  S    
O1    Zn8   S    
C164  N6    T    
C35   C222  A    
C258  O28   A    
C38   C113  A    
C86   C87   A    
C136  C137  A    
C166  N8    T    
C21   C34   A    
C64   H2    S    
C207  C212  A    
C53   C54   A    
C46   C223  A    
C38   C194  A    
C60   C61   A    
C112  C210  A    
C162  N4    T    
C48   C124  A    
C62   C63   A    
O11   Zn13  S    
C150  H72   S    
O24   Zn4   S    
C256  C272  S    
C170  N11   T    
C196  C264  A    
O2    Zn3   S    
O23   Zn14  S    
C47   C203  A    
C235  O68   A    
C4    C11   T    
C121  C122  A    
C99   H30   S    
C119  C125  A    
C85   C197  S    
C169  C219  S    
C49   C205  A    
C2    C219  A    
C169  N10   T    
C127  C128  A    
C173  C223  S    
C192  N33   T    
O34   Zn15  S    
O16   Zn6   S    
C247  O41   A    
C154  H75   S    
C68   C225  A    
C11   C246  S    
C245  O43   A    
C119  C120  A    
C244  O42   A    
C22   O54   S    
C160  C210  S    
C105  C106  A    
C175  C225  S    
C24   C269  A    
C24   C188  S    
O38   Zn9   S    
C100  H31   S    
C59   C179  S    
O41   Zn11  S    
C56   H34   S    
C149  C150  A    
O30   Zn6   S    
C250  O44   A    
C163  C213  S    
C235  O45   A    
C25   N34   A    
C244  O14   A    
C92   C93   A    
C41   C101  A    
C111  C114  A    
C94   C95   A    
C258  C270  S    
C112  C263  A    
C241  O6    A    
C82   C83   A    
C103  C104  A    
C175  N17   T    
C142  C143  A    
C215  C240  A    
C40   C90   A    
C63   H80   S    
C52   C168  S    
C19   C41   A    
C39   C79   A    
C112  C177  S    
O1    Zn4   S    
O33   Zn13  S    
C34   C79   A    
C93   C94   A    
C21   N1    A    
C210  C227  A    
C76   H11   S    
C95   C96   A    
C224  C233  A    
C188  N30   T    
C81   C82   A    
C85   C91   A    
C246  O40   A    
C161  C211  S    
C59   C64   A    
C231  N12   S    
O67   Zn16  S    
C29   N39   A    
C116  H43   S    
C116  C117  A    
C239  C265  S    
C96   H28   S    
C3    C12   T    
O12   Zn3   S    
C196  C211  A    
C28   C50   A    
C105  C200  S    
C132  C133  A    
C241  C264  S    
C172  N14   T    
C216  C230  A    
C242  C263  S    
C252  O46   A    
C174  N16   T    
C121  H48   S    
C248  O18   A    
O46   Zn15  S    
C245  O15   A    
C202  C208  A    
O26   Zn2   S    
C246  O16   A    
C102  C103  A    
C15   C271  T    
C145  C206  S    
C28   O60   S    
C170  C220  S    
C73   H8    S    
C54   H12   S    
C8    C249  S    
C74   C75   A    
C125  H51   S    
C45   C146  A    
C174  C224  S    
C148  C149  A    
C133  H58   S    
C16   C250  S    
C51   C208  A    
C134  C136  A    
C249  O19   A    
C65   C71   A    
C250  O20   A    
O21   Zn16  S    
C159  N40   T    
C67   C69   A    
C2    C186  S    
C72   C77   A    
C258  O39   A    
C212  C230  A    
C139  C144  A    
C182  C229  S    
C99   C100  A    
C69   H5    S    
C96   C97   A    
O43   Zn9   S    
C100  C102  A    
C127  H52   S    
O37   Zn14  S    
C145  C151  A    
C1    C261  A    
O48   Zn13  S    
C222  C231  A    
O1    Zn12  S    
C23   N23   A    
C44   C201  A    
C201  C204  A    
O40   Zn10  S    
C97   H29   S    
C239  O5    A    
C259  O29   A    
C217  C262  A    
C19   O51   S    
C95   H27   S    
C17   O49   S    
C80   C81   A    
C238  O4    A    
C262  C266  A    
C55   H23   S    
C137  C138  A    
C153  C154  A    
C19   N23   A    
C5    C10   T    
C189  N31   T    
C141  C142  A    
C217  C231  A    
C233  N34   S    
O17   Zn5   S    
C133  C134  A    
C162  C212  S    
C126  C131  A    
C98   C104  A    
C53   H1    S    
C37   C190  A    
C78   C195  S    
C35   C266  A    
C3    C255  S    
C102  H32   S    
C130  H55   S    
C27   N37   A    
C78   C84   A    
C65   C66   A    
C61   H67   S    
O25   Zn16  S    
C181  C218  S    
C167  N9    T    
O28   Zn8   S    
C184  C251  S    
C43   C124  A    
C147  H69   S    
C117  H44   S    
