data_mof_unit_39214.cif
_audit_creation_date              2013-03-05T16:32:34-0500
_audit_creation_method            fapswitch 2.2
_symmetry_space_group_name_H-M    P1
_symmetry_Int_Tables_number       1
_space_group_crystal_system       triclinic
_cell_length_a                    15.855341
_cell_length_b                    10.866866
_cell_length_c                    9.63537
_cell_angle_alpha                 90.203947
_cell_angle_beta                  88.748073
_cell_angle_gamma                 89.367995
_cell_volume                      1659.64443233

loop_
_atom_site_label
_atom_site_type_symbol
_atom_site_description
_atom_site_fract_x
_atom_site_fract_y
_atom_site_fract_z
_atom_type_partial_charge
O1    O     O_R   0.500000 0.319640 0.618810 -0.559686
O2    O     O_R   0.500010 0.319680 0.381230 -0.574445
C1    C     C_R   0.499699 0.263000 0.499732 0.849447
O3    O     O_R   0.379070 0.499970 0.618770 -0.564457
O4    O     O_R   0.379080 0.500010 0.381190 -0.590397
C2    C     C_R   0.340219 0.499804 0.501259 0.828623
Cu1   Cu    Cu3+1 0.500000 0.499980 0.640670 1.028918
Cu2   Cu    Cu3+1 0.500000 0.500020 0.359330 1.035380
O5    O     O_R   0.499990 0.680320 0.618770 -0.576079
O6    O     O_R   0.500000 0.680360 0.381190 -0.570625
O7    O     O_R   0.620920 0.499990 0.618810 -0.583344
O8    O     O_R   0.620930 0.500030 0.381230 -0.559841
C3    C     C_R   0.498723 0.737098 0.500254 0.803965
C4    C     C_R   0.659831 0.499494 0.498663 0.849003
C5    C     C_3   0.968274 0.475641 0.627715 -0.254481
C6    C     C_3   0.027807 0.388016 0.542879 -0.061571
H1    H     H_    0.942503 0.457551 0.733633 0.189139
C7    C     C_1   0.250809 0.499046 0.503870 -0.055216
C8    C     C_1   0.749365 0.498123 0.495599 -0.039726
C9    C     C_3   0.024867 0.585190 0.584842 -0.053557
C10   C     C_3   0.083912 0.497343 0.501654 0.078445
C11   C     C_3   0.972163 0.606460 0.454195 -0.097248
C12   C     C_3   0.916386 0.496801 0.495498 0.086040
C13   C     C_3   0.031328 0.518184 0.370802 -0.127344
C14   C     C_3   0.975036 0.408573 0.412139 -0.115151
C15   C     C_1   0.175428 0.498245 0.503972 0.149702
C16   C     C_1   0.824826 0.497072 0.494694 0.128272
C17   C     C_R   0.499678 0.062988 0.620559 0.059687
C18   C     C_R   0.497096 0.130345 0.498496 -0.053774
C19   C     C_R   0.490902 0.064247 0.372920 -0.148741
H2    H     H_    0.487612 0.111437 0.274339 0.221985
C20   C     C_R   0.490041 0.935199 0.373547 -0.155139
H3    H     H_    0.486091 0.887279 0.275299 0.233223
C21   C     C_R   0.495243 0.869982 0.499725 -0.081841
C22   C     C_R   0.497642 0.938691 0.621606 -0.029625
C23   C     C_3   0.508327 0.930791 0.775548 -0.316698
C24   C     C_3   0.511808 0.074066 0.774201 -0.171768
H4    H     H_    0.568596 0.884217 0.802976 0.199801
C25   C     C_R   0.573003 0.481679 0.070517 0.259454
N1    N     N_R   0.500530 0.500930 0.147930 -0.213029
C26   C     C_R   0.427493 0.512946 0.078546 -0.014153
H5    H     H_    0.369041 0.527349 0.136326 0.177375
C27   C     C_R   0.426888 0.516640 0.931982 0.059307
N2    N     N_R   0.500530 0.500890 0.852020 -0.241504
C28   C     C_R   0.573234 0.480295 0.923372 0.224116
C29   C     C_3   0.651565 0.558023 0.916144 -0.339194
C30   C     C_3   0.652381 0.556189 0.075751 -0.263450
H6    H     H_    0.637671 0.649550 0.869681 0.174443
C31   C     C_2   0.056900 0.264940 0.594335 0.858679
O9    O     O_2   0.004859 0.186702 0.624213 -0.547495
O10   O     O_R   0.142953 0.240258 0.608234 -0.753722
H7    H     H_    0.154460 0.154233 0.644111 0.358773
C32   C     C_2   0.439841 0.141367 0.849682 0.832884
O11   O     O_2   0.439520 0.149187 0.976370 -0.558614
O12   O     O_R   0.373071 0.192018 0.775515 -0.748167
H8    H     H_    0.328688 0.232611 0.838186 0.366957
C33   C     C_2   0.597718 0.121671 0.811969 0.889976
O13   O     O_2   0.646901 0.158164 0.721958 -0.553429
O14   O     O_R   0.621306 0.121411 0.950955 -0.701570
H9    H     H_    0.680075 0.154755 0.964129 0.374808
C34   C     C_2   0.344509 0.549421 0.874949 0.919644
O15   O     O_2   0.334360 0.648443 0.817736 -0.555469
O16   O     O_R   0.276422 0.470323 0.894885 -0.758235
H10   H     H_    0.222629 0.503343 0.853022 0.361663
C35   C     C_2   0.727716 0.497021 0.847229 0.876068
O17   O     O_2   0.790222 0.558540 0.821925 -0.632901
O18   O     O_R   0.728010 0.371333 0.816345 -0.707196
H11   H     H_    0.783293 0.342209 0.771954 0.345114
C36   C     C_2   0.725999 0.485005 0.136416 0.462488
H12   H     H_    0.786582 0.529425 0.146301 0.100365
O19   O     O_2   0.719037 0.377520 0.171278 -0.482973
C37   C     C_2   0.639969 0.682896 0.140472 0.880816
O20   O     O_2   0.584476 0.751768 0.099320 -0.555889
O21   O     O_R   0.692097 0.721749 0.246972 -0.754761
H13   H     H_    0.676823 0.807347 0.282176 0.343405
C38   C     C_2   0.950171 0.307821 0.315158 0.413267
H14   H     H_    0.998660 0.254931 0.259807 0.089012
O22   O     O_2   0.876042 0.284389 0.298425 -0.478583
C39   C     C_2   0.063348 0.541783 0.225810 0.420639
H15   H     H_    0.018776 0.555009 0.143231 0.071318
O23   O     O_2   0.138905 0.546184 0.199846 -0.508100
C40   C     C_2   0.943264 0.730424 0.404887 0.840092
O24   O     O_2   0.995478 0.808246 0.374389 -0.543981
O25   O     O_R   0.857228 0.756621 0.394541 -0.738926
H16   H     H_    0.845914 0.843269 0.360419 0.361260
C41   C     C_2   0.049756 0.684456 0.683679 0.434591
H17   H     H_    0.001262 0.739540 0.736180 0.098966
O26   O     O_2   0.123924 0.703900 0.705636 -0.513372
C42   C     C_2   0.431938 0.878470 0.848094 0.552620
H18   H     H_    0.369532 0.893288 0.806528 0.107934
O27   O     O_2   0.439328 0.822286 0.956541 -0.492203

loop_
_geom_bond_atom_site_label_1
_geom_bond_atom_site_label_2
_geom_bond_distance
_ccdc_geom_bond_type
C23   C42   1.503278 S    
O12   H8    1.013466 S    
C6    C10   1.540064 S    
C26   H5    1.080275 S    
C22   C23   1.499256 S    
C7    C15   1.195290 T    
C10   C15   1.451832 S    
Cu1   Cu2   2.710816 S    
C32   O11   1.223233 D    
Cu1   O7    1.924183 S    
C11   C40   1.500262 S    
C17   C18   1.388623 A    
C38   O22   1.219362 D    
C19   H2    1.083042 S    
O7    C4    1.299811 A    
C41   O26   1.219952 D    
C33   O14   1.398269 S    
C5    C6    1.551378 S    
C1    C18   1.442601 S    
C21   C22   1.390834 A    
C36   O19   1.222009 D    
O5    C3    1.300342 A    
C30   C36   1.521712 S    
O25   H16   1.013867 S    
C17   C22   1.351526 A    
C31   O10   1.397014 S    
C9    C41   1.498261 S    
C12   C16   1.451875 S    
C42   O27   1.219286 D    
C8    C16   1.196229 T    
C25   C28   1.417753 A    
C24   C32   1.519013 S    
C5    C12   1.548032 S    
O14   H9    1.013877 S    
C26   C27   1.413156 A    
C34   O15   1.221466 D    
O3    Cu1   1.933541 S    
C38   H14   1.084438 S    
C32   O12   1.399081 S    
C5    C9    1.550440 S    
C2    C7    1.417415 S    
C29   H6    1.113937 S    
O21   H13   1.013978 S    
O18   H11   1.013881 S    
C13   C14   1.544456 S    
C29   C35   1.510749 S    
C37   O21   1.398593 S    
C25   N1    1.369909 A    
C39   O23   1.219962 D    
C41   H17   1.084479 S    
C35   O18   1.396784 S    
C28   C29   1.510153 S    
O10   H7    1.013882 S    
O1    C1    1.300220 A    
C20   C21   1.412933 A    
C27   N2    1.393402 A    
C18   C19   1.410734 A    
C13   C39   1.499894 S    
Cu2   O8    1.933540 S    
C34   O16   1.397752 S    
Cu1   N2    2.036627 S    
C6    C31   1.499487 S    
O3    C2    1.300751 A    
N1    C26   1.355046 A    
O8    C4    1.300479 A    
C40   O24   1.222074 D    
C40   O25   1.396222 S    
C31   O9    1.222047 D    
C11   C13   1.545189 S    
C39   H15   1.084595 S    
N2    C28   1.371713 A    
C27   C34   1.468802 S    
C25   C30   1.505685 S    
C6    C14   1.542991 S    
C5    H1    1.110009 S    
C29   C30   1.538408 S    
C23   C24   1.558624 S    
O1    Cu1   1.970271 S    
C4    C8    1.419162 S    
O2    Cu2   1.971803 S    
C9    C11   1.542773 S    
C37   O20   1.222438 D    
O6    C3    1.300140 A    
O4    Cu2   1.924186 S    
C14   C38   1.498555 S    
C20   H3    1.082149 S    
C23   H4    1.113755 S    
O2    C1    1.299215 A    
C3    C21   1.444508 S    
C19   C20   1.402598 A    
C33   O13   1.223633 D    
O4    C2    1.298843 A    
C17   C24   1.501587 S    
C12   C14   1.539900 S    
C36   H12   1.085671 S    
C30   C37   1.518566 S    
O16   H10   1.014023 S    
Cu1   O5    1.971805 S    
C9    C10   1.540210 S    
Cu2   O6    1.970271 S    
C35   O17   1.222188 D    
C10   C13   1.542674 S    
C11   C12   1.540047 S    
Cu2   N1    2.036812 S    
C42   H18   1.086115 S    
C24   C33   1.513708 S    
