data_mof_unit_19062.cif
_audit_creation_date              2012-12-11T15:19:37-0500
_audit_creation_method            fapswitch 2.2
_symmetry_space_group_name_H-M    P1
_symmetry_Int_Tables_number       1
_space_group_crystal_system       triclinic
_cell_length_a                    20.013705
_cell_length_b                    6.873667
_cell_length_c                    18.207406
_cell_angle_alpha                 90.02667
_cell_angle_beta                  104.236025
_cell_angle_gamma                 89.979961
_cell_volume                      2427.82927412

loop_
_atom_site_label
_atom_site_type_symbol
_atom_type_description
_atom_site_fract_x
_atom_site_fract_y
_atom_site_fract_z
_atom_type_partial_charge
O1    O     O_R   0.312200 0.620210 0.189560 -0.535402
O2    O     O_R   0.687800 0.379790 0.810440 -0.535402
O3    O     O_R   0.187800 0.120210 0.310440 -0.536219
O4    O     O_R   0.812200 0.879790 0.689560 -0.536219
O5    O     O_R   0.171590 0.286140 0.165000 -0.533693
O6    O     O_R   0.828410 0.713860 0.835000 -0.533693
O7    O     O_R   0.328410 0.786140 0.335000 -0.535407
O8    O     O_R   0.671590 0.213860 0.665000 -0.535408
C1    C     C_R   0.145662 0.459540 0.143789 0.713177
C2    C     C_R   0.854338 0.540460 0.856211 0.713178
C3    C     C_R   0.354341 0.959537 0.356204 0.711176
C4    C     C_R   0.645659 0.040462 0.643795 0.711176
O9    O     O_R   0.310670 0.290220 0.180540 -0.539631
O10   O     O_R   0.689330 0.709780 0.819460 -0.539631
O11   O     O_R   0.189330 0.790220 0.319460 -0.539057
O12   O     O_R   0.810670 0.209780 0.680540 -0.539058
O13   O     O_R   0.327870 0.124170 0.326080 -0.532254
O14   O     O_R   0.672130 0.875830 0.673920 -0.532254
O15   O     O_R   0.172130 0.624170 0.173920 -0.533865
O16   O     O_R   0.827870 0.375830 0.826080 -0.533865
C5    C     C_R   0.332828 0.459126 0.166144 0.732834
C6    C     C_R   0.667172 0.540873 0.833856 0.732833
C7    C     C_R   0.167273 0.959209 0.333908 0.732468
C8    C     C_R   0.832727 0.040791 0.666091 0.732469
O17   O     O_3   0.255480 0.455050 0.297740 -0.365069
O18   O     O_3   0.744520 0.544950 0.702260 -0.365069
O19   O     O_3   0.244520 0.955050 0.202260 -0.364461
O20   O     O_3   0.755480 0.044950 0.797740 -0.364461
V1    V     V_3+5 0.248980 0.178550 0.241140 1.416397
V2    V     V_3+5 0.751020 0.821450 0.758860 1.416397
V3    V     V_3+5 0.251020 0.678550 0.258860 1.413444
V4    V     V_3+5 0.748980 0.321450 0.741140 1.413444
C9    C     C_R   0.941095 0.151959 0.631081 0.075462
C10   C     C_R   0.058905 0.848040 0.368919 0.075463
C11   C     C_R   0.559971 0.402014 0.863505 0.078311
C12   C     C_R   0.440029 0.597986 0.136495 0.078311
C13   C     C_R   0.882275 0.029886 0.617074 -0.100985
C14   C     C_R   0.117725 0.970114 0.382926 -0.100986
C15   C     C_R   0.616904 0.531162 0.882151 -0.105346
C16   C     C_R   0.383096 0.468838 0.117848 -0.105346
C17   C     C_R   0.870148 0.897392 0.555500 0.071536
C18   C     C_R   0.129852 0.102608 0.444499 0.071536
C19   C     C_R   0.626812 0.648005 0.948194 0.071216
C20   C     C_R   0.373188 0.351994 0.051806 0.071216
C21   C     C_R   0.921982 0.866824 0.515079 0.076067
C22   C     C_R   0.078017 0.133176 0.484920 0.076067
C23   C     C_R   0.574637 0.655358 0.989212 0.078462
C24   C     C_R   0.425363 0.344642 0.010789 0.078461
C25   C     C_R   0.976430 0.004404 0.523666 -0.047812
C26   C     C_R   0.023570 0.995596 0.476334 -0.047812
C27   C     C_R   0.523227 0.508128 0.976105 -0.047564
C28   C     C_R   0.476773 0.491872 0.023895 -0.047564
C29   C     C_R   0.984121 0.150753 0.579703 0.056996
C30   C     C_R   0.015879 0.849247 0.420297 0.056996
C31   C     C_R   0.517790 0.377469 0.914997 0.056732
C32   C     C_R   0.482210 0.622531 0.085003 0.056732
C33   C     C_R   0.921644 0.705083 0.466046 0.156021
C34   C     C_R   0.078356 0.294917 0.533954 0.156020
C35   C     C_R   0.572020 0.802422 0.043491 0.157753
C36   C     C_R   0.427980 0.197578 0.956509 0.157753
C37   C     C_R   0.966304 0.703247 0.417852 -0.175076
C38   C     C_R   0.033695 0.296753 0.582147 -0.175076
C39   C     C_R   0.528488 0.779086 0.092277 -0.181855
C40   C     C_R   0.471512 0.220913 0.907723 -0.181856
H1    H     H_    0.964018 0.579627 0.380468 0.144699
H2    H     H_    0.035982 0.420373 0.619532 0.144699
H3    H     H_    0.528471 0.892141 0.133701 0.143896
H4    H     H_    0.471529 0.107859 0.866299 0.143896
C41   C     C_1   0.583163 0.027453 0.581591 -0.195872
C42   C     C_1   0.416837 0.972547 0.418409 -0.195872
C43   C     C_1   0.916834 0.527437 0.918414 -0.196435
C44   C     C_1   0.083166 0.472563 0.081586 -0.196436
C45   C     C_1   0.530850 0.010882 0.530188 0.006605
C46   C     C_1   0.469150 0.989117 0.469812 0.006605
C47   C     C_1   0.969149 0.510869 0.969814 0.007177
C48   C     C_1   0.030851 0.489131 0.030186 0.007177
C49   C     C_3   0.958914 0.281413 0.700877 -0.769054
H5    H     H_    0.935017 0.231978 0.746427 0.204270
H6    H     H_    0.015263 0.277531 0.726743 0.200402
H7    H     H_    0.942591 0.433301 0.685061 0.205844
C50   C     C_3   0.041086 0.718587 0.299123 -0.769053
H8    H     H_    0.064983 0.768020 0.253573 0.204270
H9    H     H_    0.057408 0.566699 0.314939 0.205844
H10   H     H_    0.984736 0.722470 0.273257 0.200402
C51   C     C_3   0.543148 0.293060 0.788573 -0.760536
H11   H     H_    0.563238 0.367791 0.744486 0.202007
H12   H     H_    0.564437 0.143230 0.796950 0.205492
H13   H     H_    0.486516 0.286426 0.764774 0.197804
C52   C     C_3   0.456852 0.706940 0.211427 -0.760535
H14   H     H_    0.436762 0.632210 0.255514 0.202007
H15   H     H_    0.513484 0.713574 0.235226 0.197804
H16   H     H_    0.435563 0.856770 0.203049 0.205492
C53   C     C_3   0.797785 0.817601 0.525838 -0.733025
H17   H     H_    0.758421 0.919380 0.537214 0.180715
H18   H     H_    0.784826 0.804673 0.463249 0.205253
H19   H     H_    0.791881 0.676075 0.552802 0.219160
C54   C     C_3   0.202214 0.182399 0.474161 -0.733024
H20   H     H_    0.241579 0.080619 0.462786 0.180715
H21   H     H_    0.208119 0.323924 0.447198 0.219160
H22   H     H_    0.215174 0.195328 0.536751 0.205253
C55   C     C_3   0.697703 0.734173 0.981139 -0.736688
H23   H     H_    0.738704 0.637280 0.970402 0.182785
H24   H     H_    0.702627 0.878502 0.955721 0.217186
H25   H     H_    0.708893 0.744759 0.043705 0.208483
C56   C     C_3   0.302297 0.265826 0.018861 -0.736688
H26   H     H_    0.261296 0.362719 0.029598 0.182785
H27   H     H_    0.291107 0.255240 0.956295 0.208483
H28   H     H_    0.297374 0.121497 0.044279 0.217186
C57   C     C_3   0.881797 0.519957 0.469915 -0.770972
H29   H     H_    0.879619 0.489166 0.529069 0.221483
H30   H     H_    0.829378 0.528082 0.431774 0.206808
H31   H     H_    0.907641 0.392265 0.451529 0.209285
C58   C     C_3   0.118203 0.480043 0.530084 -0.770973
H32   H     H_    0.120382 0.510833 0.470931 0.221483
H33   H     H_    0.092358 0.607735 0.548470 0.209285
H34   H     H_    0.170621 0.471918 0.568226 0.206808
C59   C     C_3   0.606769 0.998188 0.044895 -0.770257
H35   H     H_    0.612729 0.038562 0.987903 0.222288
H36   H     H_    0.574667 0.114804 0.061090 0.211270
H37   H     H_    0.657227 0.998866 0.087145 0.205571
C60   C     C_3   0.393231 0.001811 0.955105 -0.770256
H38   H     H_    0.387271 0.961437 0.012097 0.222287
H39   H     H_    0.342773 0.001132 0.912855 0.205570
H40   H     H_    0.425333 0.885195 0.938910 0.211270

loop_
_geom_bond_atom_site_label_1
_geom_bond_atom_site_label_2
_ccdc_geom_bond_type
C12   C52   S    
C34   C38   A    
C4    C41   S    
O17   V3    S    
C53   H17   S    
O19   V1    S    
O13   V1    S    
C45   C46   S    
O3    C7    A    
C1    C44   S    
C44   C48   T    
O15   V3    S    
C50   H10   S    
C54   H20   S    
C3    C42   S    
C51   H11   S    
O1    C5    A    
C56   H27   S    
C21   C33   A    
C26   C30   A    
C40   H4    S    
O9    V1    S    
C50   H8    S    
C14   C18   A    
C57   H30   S    
O4    C8    A    
C49   H7    S    
O1    V3    S    
O2    V4    S    
C18   C22   A    
O3    V1    S    
C42   C46   T    
C12   C16   A    
C50   H9    S    
C1    O15   A    
C33   C57   S    
C2    O16   A    
C60   H40   S    
O2    C6    A    
C34   C58   S    
C41   C45   T    
O14   V2    S    
C10   C50   S    
C52   H15   S    
C16   C20   A    
C49   H5    S    
C58   H34   S    
C2    C43   S    
O11   C7    A    
O12   C8    A    
C22   C34   A    
O17   V1    S    
O10   V2    S    
C54   H21   S    
C24   C36   A    
O5    V1    S    
C49   H6    S    
C9    C29   A    
C56   H28   S    
C39   H3    S    
O7    V3    S    
C38   H2    S    
C51   H12   S    
C11   C31   A    
C27   C28   A    
O8    V4    S    
C55   H23   S    
O20   V4    S    
C18   C54   S    
O18   V4    S    
C15   C19   A    
C20   C56   S    
O19   V3    S    
C9    C13   A    
C11   C15   A    
C47   C48   S    
C19   C55   S    
O5    C1    A    
C12   C32   A    
C29   C38   A    
O7    C3    A    
C21   C25   A    
O8    C4    A    
C31   C40   A    
C8    C13   S    
C32   C39   A    
O9    C5    A    
C52   H16   S    
C33   C37   A    
C60   H38   S    
O6    V2    S    
C10   C30   A    
C53   H19   S    
C57   H31   S    
C35   C59   S    
C54   H22   S    
C58   H32   S    
O16   V4    S    
C51   H13   S    
C3    O13   A    
C10   C14   A    
O6    C2    A    
C23   C27   A    
O11   V3    S    
C30   C37   A    
O12   V4    S    
C7    C14   S    
C56   H26   S    
C22   C26   A    
C35   C39   A    
C36   C40   A    
C17   C53   S    
O10   C6    A    
C59   H36   S    
C59   H35   S    
C43   C47   T    
C11   C51   S    
C9    C49   S    
C53   H18   S    
C5    C16   S    
C28   C32   A    
C25   C29   A    
C6    C15   S    
O20   V2    S    
C59   H37   S    
C27   C31   A    
C13   C17   A    
C36   C60   S    
C60   H39   S    
C23   C35   A    
C37   H1    S    
C24   C28   A    
C55   H24   S    
C25   C26   A    
C4    O14   A    
C17   C21   A    
C55   H25   S    
C52   H14   S    
C57   H29   S    
C19   C23   A    
O4    V2    S    
C20   C24   A    
C58   H33   S    
O18   V2    S    
