data_mof_unit_42452.cif
_audit_creation_date              2012-12-11T15:23:40-0500
_audit_creation_method            fapswitch 2.2
_symmetry_space_group_name_H-M    P1
_symmetry_Int_Tables_number       1
_space_group_crystal_system       triclinic
_cell_length_a                    6.93218
_cell_length_b                    17.504799
_cell_length_c                    19.28554
_cell_angle_alpha                 109.474813
_cell_angle_beta                  90.200925
_cell_angle_gamma                 90.506867
_cell_volume                      2206.20414192

loop_
_atom_site_label
_atom_site_type_symbol
_atom_type_description
_atom_site_fract_x
_atom_site_fract_y
_atom_site_fract_z
_atom_type_partial_charge
O1    O     O_R   0.505810 0.439670 0.562310 -0.539893
O2    O     O_R   0.169070 0.404920 0.411210 -0.544219
O3    O     O_R   0.005550 0.560330 0.437690 -0.535137
C1    C     C_R   0.338548 0.381485 0.383047 0.723933
O4    O     O_R   0.175650 0.430000 0.560110 -0.544313
O5    O     O_R   0.012170 0.585580 0.587650 -0.538914
C2    C     C_R   0.344653 0.414984 0.581902 0.716899
O6    O     O_R   0.499180 0.414420 0.412350 -0.538884
O7    O     O_3   0.341430 0.551020 0.508860 -0.369740
V1    V     V_3+5 0.063930 0.490540 0.498360 1.407802
O8    O     O_R   0.682850 0.595080 0.588790 -0.544301
C3    C     C_R   0.852681 0.618406 0.616928 0.673533
O9    O     O_R   0.676280 0.570000 0.439890 -0.543144
C4    C     C_R   0.845141 0.585176 0.418274 0.711465
V2    V     V_3+5 0.564760 0.509460 0.501640 1.410537
O10   O     O_3   0.837130 0.448980 0.491140 -0.370835
C5    C     C_R   0.065867 0.867244 0.180269 -0.215123
C6    C     C_R   0.914491 0.865120 0.130828 -0.084169
C7    C     C_R   0.751184 0.816151 0.129133 -0.195653
C8    C     C_R   0.739261 0.769100 0.175511 0.037319
C9    C     C_R   0.889656 0.772789 0.225960 0.061656
C10   C     C_R   0.053346 0.822353 0.228485 0.117008
C11   C     C_R   0.580533 0.717586 0.171494 -0.208386
C12   C     C_R   0.568771 0.670065 0.217200 0.267353
C13   C     C_R   0.714989 0.675493 0.270021 0.033363
C14   C     C_R   0.876919 0.726645 0.273691 0.024545
C15   C     C_R   0.027726 0.731078 0.324448 0.146178
C16   C     C_R   0.188517 0.781349 0.327052 -0.153515
C17   C     C_R   0.201600 0.826259 0.279298 -0.177963
C18   C     C_R   0.705105 0.630740 0.318699 -0.173237
C19   C     C_R   0.855443 0.634526 0.368967 -0.100882
C20   C     C_R   0.016842 0.684418 0.371077 -0.177473
H1    H     H_    0.191714 0.905179 0.182265 0.123179
H2    H     H_    0.634641 0.813609 0.090749 0.126378
H3    H     H_    0.465953 0.713355 0.131958 0.163559
H4    H     H_    0.582365 0.591625 0.317247 0.170917
H5    H     H_    0.133379 0.687519 0.409609 0.120080
H6    H     H_    0.305721 0.785077 0.365413 0.121225
H7    H     H_    0.328275 0.863879 0.281952 0.126969
C21   C     C_3   0.811978 0.816881 0.741428 -0.142445
C22   C     C_3   0.981409 0.767358 0.696719 -0.140654
H8    H     H_    0.060060 0.781289 0.652258 0.100724
H9    H     H_    0.751660 0.872614 0.734829 0.100047
C23   C     C_3   0.867523 0.688662 0.687630 -0.006968
C24   C     C_3   0.697942 0.737362 0.731524 -0.117329
C25   C     C_3   0.789643 0.732560 0.803333 -0.137063
C26   C     C_3   0.959074 0.683037 0.758623 -0.139040
C27   C     C_3   0.073109 0.762556 0.768527 -0.115853
C28   C     C_3   0.903528 0.811256 0.812422 -0.007382
H10   H     H_    0.543382 0.726611 0.715762 0.106090
H11   H     H_    0.710991 0.718629 0.847794 0.106161
H12   H     H_    0.019391 0.627303 0.765221 0.103286
H13   H     H_    0.227670 0.773306 0.784289 0.106499
C29   C     C_3   0.556013 0.282201 0.277253 -0.168125
C30   C     C_3   0.493819 0.192966 0.263484 -0.182626
H14   H     H_    0.582129 0.145936 0.274990 0.107988
H15   H     H_    0.698056 0.309305 0.299379 0.119120
C31   C     C_3   0.413085 0.188803 0.187667 -0.059608
C32   C     C_3   0.474977 0.277248 0.200780 -0.097982
C33   C     C_3   0.276155 0.306757 0.236141 -0.191197
C34   C     C_3   0.212921 0.217296 0.221796 -0.215301
C35   C     C_3   0.296215 0.223194 0.297658 0.465143
C36   C     C_3   0.357100 0.311275 0.312155 -0.090946
H16   H     H_    0.550617 0.299511 0.160482 0.124569
H17   H     H_    0.186115 0.353594 0.225074 0.146010
H18   H     H_    0.070971 0.190844 0.198637 0.117257
C37   C     C_R   0.250841 0.128945 0.824032 -0.215904
C38   C     C_R   0.415978 0.133939 0.868240 -0.085240
C39   C     C_R   0.569432 0.185590 0.864404 -0.219986
C40   C     C_R   0.557654 0.232526 0.817927 0.089979
C41   C     C_R   0.392167 0.226540 0.773429 0.054383
C42   C     C_R   0.238726 0.174229 0.776274 0.090000
C43   C     C_R   0.708209 0.285592 0.815262 -0.171993
C44   C     C_R   0.696395 0.331437 0.768224 -0.187579
C45   C     C_R   0.533487 0.325269 0.723155 0.087823
C46   C     C_R   0.379987 0.273011 0.726057 0.053802
C47   C     C_R   0.214252 0.267216 0.681735 0.092530
C48   C     C_R   0.063804 0.214069 0.684301 -0.180901
C49   C     C_R   0.075845 0.168045 0.731180 -0.194111
C50   C     C_R   0.521309 0.370580 0.675422 -0.216585
C51   C     C_R   0.355697 0.365928 0.631534 -0.082983
C52   C     C_R   0.201989 0.314516 0.635607 -0.216596
H19   H     H_    0.132299 0.088927 0.826056 0.123463
H20   H     H_    0.696923 0.190145 0.898330 0.130543
H21   H     H_    0.835950 0.291266 0.849234 0.140198
H22   H     H_    0.815410 0.371443 0.766818 0.132910
H23   H     H_    0.640032 0.410461 0.673275 0.123817
H24   H     H_    0.073681 0.310577 0.602300 0.123067
H25   H     H_    0.936002 0.208464 0.650367 0.136431
H26   H     H_    0.956903 0.127982 0.732526 0.130357
O11   O     O_R   0.271890 0.085690 0.087580 -0.538060
O12   O     O_R   0.595690 0.070020 0.939870 -0.543874
O13   O     O_R   0.758900 0.914390 0.912370 -0.537944
C53   C     C_R   0.426767 0.085010 0.917992 0.711403
O14   O     O_R   0.602020 0.095100 0.088770 -0.542277
O15   O     O_R   0.765280 0.939660 0.062330 -0.540868
C54   C     C_R   0.432431 0.118537 0.116920 0.702726
O16   O     O_R   0.265520 0.060430 0.937620 -0.539094
O17   O     O_3   0.429560 0.949050 0.991100 -0.369445
V3    V     V_3+5 0.707160 0.009450 0.001650 1.399888
O18   O     O_R   0.094540 0.929890 0.060190 -0.541328
C55   C     C_R   0.925552 0.914742 0.081766 0.707336
O19   O     O_R   0.088200 0.904800 0.911290 -0.543331
C56   C     C_R   0.918377 0.881518 0.883122 0.678115
V4    V     V_3+5 0.206300 0.990390 0.998440 1.406788
O20   O     O_3   0.934030 0.050940 0.008900 -0.367932
O21   O     O_3   0.212644 0.194253 0.350952 -0.560762
C57   C     C_3   0.011614 0.206541 0.353264 0.081375
H27   H     H_    0.941381 0.161619 0.304509 0.113595
H28   H     H_    0.975071 0.268906 0.354934 0.121875
C58   C     C_3   0.930570 0.194612 0.422107 -0.679196
H29   H     H_    0.771985 0.203570 0.423981 0.179923
H30   H     H_    0.997235 0.239291 0.471701 0.213300
H31   H     H_    0.961200 0.132384 0.421946 0.221642
Br1   Br    Br    0.353328 0.596270 0.202193 -0.589772

loop_
_geom_bond_atom_site_label_1
_geom_bond_atom_site_label_2
_ccdc_geom_bond_type
C9    C14   A    
C37   H19   S    
O18   C55   A    
C10   C17   A    
O15   C55   A    
C22   H8    S    
O11   V4    S    
C7    C8    A    
C4    C19   S    
C1    O6    A    
C28   C56   S    
C51   C52   A    
C47   C48   A    
C1    C36   S    
C14   C15   A    
O16   V4    S    
C33   C36   S    
C6    C55   S    
C47   C52   A    
C16   C17   A    
C6    C7    A    
C42   C49   A    
O5    C3    A    
C41   C46   A    
C29   C36   S    
C53   O16   A    
V2    O10   S    
C30   C35   S    
C57   H27   S    
C37   C42   A    
C43   C44   A    
C49   H26   S    
C29   C30   S    
O8    V2    S    
C34   H18   S    
C21   H9    S    
C58   H29   S    
C38   C39   A    
O21   C57   S    
C40   C41   A    
O1    V2    S    
C45   C50   A    
C34   C35   S    
C23   C26   S    
C31   C34   S    
C32   C33   S    
O1    C2    A    
O9    C4    A    
C21   C24   S    
C31   C54   S    
C5    H1    S    
C40   C43   A    
O13   C56   A    
C29   C32   S    
C48   H25   S    
O18   V4    S    
C27   H13   S    
O17   V4    S    
C44   C45   A    
C37   C38   A    
C26   C27   S    
C12   C13   A    
O19   V4    S    
O4    C2    A    
C48   C49   A    
C35   O21   S    
C31   C32   S    
C24   C25   S    
C25   H11   S    
C38   C53   S    
C33   C34   S    
O2    C1    A    
C45   C46   A    
C35   C36   S    
O17   V3    S    
C25   C28   S    
C8    C11   A    
C16   H6    S    
C11   C12   A    
C17   H7    S    
C30   H14   S    
O12   C53   A    
C5    C6    A    
C32   H16   S    
C58   H30   S    
C20   H5    S    
O11   C54   A    
O13   V3    S    
C43   H21   S    
O3    C4    A    
C50   H23   S    
C21   C22   S    
C2    C51   S    
C33   H17   S    
O6    V2    S    
C11   H3    S    
O9    V2    S    
C22   C23   S    
O2    V1    S    
O19   C56   A    
C23   C24   S    
O12   V3    S    
O7    V1    S    
C13   C18   A    
C25   C26   S    
C27   C28   S    
C15   C20   A    
O14   V3    S    
C19   C20   A    
C50   C51   A    
C7    H2    S    
O5    V1    S    
O8    C3    A    
O14   C54   A    
C26   H12   S    
C44   H22   S    
V4    O20   S    
V3    O20   S    
C5    C10   A    
C57   C58   S    
C18   H4    S    
C13   C14   A    
C41   C42   A    
C3    C23   S    
O3    V1    S    
V1    O10   S    
C46   C47   A    
C18   C19   A    
C24   H10   S    
C52   H24   S    
O15   V3    S    
C22   C27   S    
C57   H28   S    
C58   H31   S    
O7    V2    S    
C39   C40   A    
O4    V1    S    
C8    C9    A    
C12   Br1   S    
C30   C31   S    
C15   C16   A    
C39   H20   S    
C9    C10   A    
C21   C28   S    
C29   H15   S    
