data_mof_unit_5212.cif
_audit_creation_date              2012-12-11T14:18:00-0500
_audit_creation_method            fapswitch 2.2
_symmetry_space_group_name_H-M    P1
_symmetry_Int_Tables_number       1
_space_group_crystal_system       triclinic
_cell_length_a                    11.274188
_cell_length_b                    11.274221
_cell_length_c                    19.049786
_cell_angle_alpha                 90.156561
_cell_angle_beta                  89.843945
_cell_angle_gamma                 120.057258
_cell_volume                      2095.75027425

loop_
_atom_site_label
_atom_site_type_symbol
_atom_type_description
_atom_site_fract_x
_atom_site_fract_y
_atom_site_fract_z
_atom_type_partial_charge
C1    C     C_R   0.521613 0.453260 0.145808 0.536593
C2    C     C_R   0.546725 0.068170 0.145835 0.537322
C3    C     C_R   0.931746 0.478398 0.145807 0.535543
C4    C     C_R   0.457384 0.521020 0.852975 0.546574
C5    C     C_R   0.063420 0.542561 0.852924 0.547391
C6    C     C_R   0.479055 0.936592 0.852943 0.545238
C7    C     C_R   0.420719 0.026189 0.466916 0.246185
C8    C     C_R   0.026750 0.419311 0.459440 0.238441
C9    C     C_R   0.595450 0.589956 0.463525 0.236653
C10   C     C_R   0.026287 0.420771 0.533044 0.246359
C11   C     C_R   0.419237 0.026646 0.540517 0.238436
C12   C     C_R   0.589538 0.595863 0.536356 0.236855
C13   C     C_R   0.676579 0.915757 0.549768 -0.055398
C14   C     C_R   0.112397 0.782016 0.551974 -0.025965
C15   C     C_R   0.225429 0.320003 0.552605 -0.035946
C16   C     C_R   0.915621 0.676471 0.450245 -0.055372
C17   C     C_R   0.782046 0.112469 0.448018 -0.025939
C18   C     C_R   0.319973 0.225659 0.447439 -0.036191
C19   C     C_R   0.804078 0.958148 0.523953 -0.079711
C20   C     C_R   0.051489 0.854125 0.530436 -0.067582
C21   C     C_R   0.145331 0.190650 0.527757 -0.056909
C22   C     C_R   0.958056 0.804008 0.476029 -0.079516
C23   C     C_R   0.854181 0.051577 0.469548 -0.067254
C24   C     C_R   0.190657 0.145411 0.472303 -0.056741
C25   C     C_R   0.538680 0.430505 0.361045 0.523990
C26   C     C_R   0.575105 0.118861 0.360918 0.525432
C27   C     C_R   0.925882 0.476712 0.356262 0.520227
C28   C     C_R   0.430268 0.538870 0.638948 0.523593
C29   C     C_R   0.118876 0.575113 0.639078 0.524866
C30   C     C_R   0.476731 0.925927 0.643743 0.519344
C31   C     C_R   0.496820 0.998087 0.923922 -0.005430
C32   C     C_R   0.001887 0.498808 0.923853 -0.005682
C33   C     C_R   0.500915 0.503400 0.923922 -0.005508
C34   C     C_R   0.975023 0.494144 0.071584 0.002352
C35   C     C_R   0.519156 0.024620 0.071656 0.001809
C36   C     C_R   0.505781 0.480865 0.071661 0.001687
C37   C     C_R   0.383365 0.982740 0.964885 0.031711
C38   C     C_R   0.016986 0.400487 0.964471 0.031530
C39   C     C_R   0.599213 0.616888 0.964787 0.031560
C40   C     C_R   0.017743 0.408849 0.039024 0.023055
C41   C     C_R   0.391010 0.981864 0.039413 0.022819
C42   C     C_R   0.591051 0.609080 0.039363 0.022917
C43   C     C_R   0.633821 0.057589 0.029198 -0.135201
C44   C     C_R   0.942258 0.575989 0.029435 -0.134980
C45   C     C_R   0.423813 0.366253 0.029235 -0.135343
C46   C     C_R   0.958310 0.580522 0.957383 -0.146322
C47   C     C_R   0.622256 0.041779 0.957135 -0.145828
C48   C     C_R   0.419191 0.377926 0.957204 -0.145969
C49   C     C_R   0.262185 0.967815 0.934550 -0.086204
C50   C     C_R   0.031878 0.294222 0.933778 -0.085707
C51   C     C_R   0.705382 0.738273 0.934322 -0.086310
C52   C     C_R   0.060268 0.330777 0.078578 -0.095844
C53   C     C_R   0.270313 0.939245 0.079275 -0.094645
C54   C     C_R   0.669296 0.729728 0.079209 -0.095623
C55   C     C_R   0.146515 0.931980 0.975271 -0.136391
C56   C     C_R   0.067916 0.214577 0.974153 -0.135822
C57   C     C_R   0.785295 0.853921 0.974995 -0.136268
C58   C     C_R   0.084708 0.234401 0.046156 -0.130966
C59   C     C_R   0.149503 0.915030 0.047225 -0.130411
C60   C     C_R   0.765667 0.850733 0.047039 -0.130667
C61   C     C_R   0.500706 0.980684 0.572527 -0.059770
C62   C     C_R   0.078033 0.550074 0.565149 -0.072929
C63   C     C_R   0.460076 0.515806 0.567390 -0.067280
C64   C     C_R   0.980673 0.500704 0.427462 -0.060450
C65   C     C_R   0.550039 0.077967 0.434829 -0.073574
C66   C     C_R   0.515441 0.460469 0.432527 -0.067742
C67   C     C_R   0.607543 0.984893 0.532384 -0.057088
C68   C     C_R   0.066420 0.649904 0.527182 -0.065094
C69   C     C_R   0.360294 0.402473 0.529485 -0.059854
C70   C     C_R   0.984834 0.607502 0.467616 -0.057494
C71   C     C_R   0.649910 0.066440 0.472807 -0.065391
C72   C     C_R   0.402194 0.360632 0.470464 -0.060111
Cr1   Cr    Cr6+3 0.768550 0.541320 0.250660 0.974038
Cr2   Cr    Cr6+3 0.458680 0.227230 0.250660 0.967139
Cr3   Cr    Cr6+3 0.772770 0.231450 0.250660 0.962731
Cr4   Cr    Cr6+3 0.541320 0.768550 0.749340 0.974286
Cr5   Cr    Cr6+3 0.227230 0.458680 0.749340 0.967035
Cr6   Cr    Cr6+3 0.231450 0.772770 0.749340 0.963120
H1    H     H_    0.735006 0.097567 0.051566 0.153726
H2    H     H_    0.902339 0.637198 0.052038 0.153820
H3    H     H_    0.362621 0.265017 0.051610 0.153659
H4    H     H_    0.939810 0.651680 0.927886 0.135236
H5    H     H_    0.712009 0.060518 0.927367 0.135328
H6    H     H_    0.348038 0.288175 0.927516 0.134651
H7    H     H_    0.255715 0.988683 0.879907 0.127582
H8    H     H_    0.010899 0.266741 0.879098 0.128867
H9    H     H_    0.732696 0.744984 0.879592 0.128507
H10   H     H_    0.077543 0.344814 0.134513 0.122589
H11   H     H_    0.267031 0.921818 0.135179 0.123785
H12   H     H_    0.655418 0.732860 0.135195 0.123268
H13   H     H_    0.053675 0.915582 0.950404 0.096837
H14   H     H_    0.084491 0.138302 0.948972 0.096206
H15   H     H_    0.861618 0.946863 0.950010 0.096975
H16   H     H_    0.114971 0.173641 0.077141 0.112120
H17   H     H_    0.058434 0.884779 0.078458 0.112502
H18   H     H_    0.826571 0.941793 0.078244 0.112307
H19   H     H_    0.633463 0.828812 0.583152 0.214827
H20   H     H_    0.188800 0.826674 0.591195 0.214511
H21   H     H_    0.179750 0.350869 0.591769 0.210390
H22   H     H_    0.828601 0.633251 0.416899 0.214701
H23   H     H_    0.826700 0.188882 0.408803 0.214355
H24   H     H_    0.351033 0.180000 0.408359 0.210350
H25   H     H_    0.861734 0.918520 0.548473 0.138072
H26   H     H_    0.075436 0.945681 0.558281 0.125939
H27   H     H_    0.050082 0.127825 0.553795 0.120038
H28   H     H_    0.918466 0.861690 0.451497 0.138428
H29   H     H_    0.945737 0.075521 0.441699 0.126117
H30   H     H_    0.127939 0.050097 0.446298 0.120522
O1    O     O_R   0.910960 0.572410 0.171010 -0.528628
O2    O     O_R   0.427590 0.338550 0.171010 -0.530654
O3    O     O_R   0.661450 0.089040 0.171010 -0.528832
O4    O     O_R   0.572410 0.910960 0.828990 -0.521531
O5    O     O_R   0.338550 0.427590 0.828990 -0.523613
O6    O     O_R   0.089040 0.661450 0.828990 -0.521725
O7    O     O_R   0.639750 0.528530 0.175600 -0.513173
O8    O     O_R   0.471470 0.111220 0.175600 -0.512706
O9    O     O_R   0.888780 0.360250 0.175600 -0.514124
O10   O     O_R   0.528530 0.639750 0.824400 -0.514371
O11   O     O_R   0.111220 0.471470 0.824400 -0.514123
O12   O     O_R   0.360250 0.888780 0.824400 -0.515159
O13   O     O_R   0.909330 0.572400 0.331540 -0.561804
O14   O     O_R   0.427600 0.336930 0.331540 -0.566701
O15   O     O_R   0.663070 0.090670 0.331540 -0.561253
O16   O     O_R   0.572400 0.909330 0.668460 -0.563663
O17   O     O_R   0.336930 0.427600 0.668460 -0.568512
O18   O     O_R   0.090670 0.663070 0.668460 -0.563059
O19   O     O_R   0.638240 0.528520 0.324410 -0.485298
O20   O     O_R   0.471480 0.109720 0.324410 -0.499977
O21   O     O_R   0.890280 0.361760 0.324410 -0.512303
O22   O     O_R   0.528520 0.638240 0.675590 -0.486668
O23   O     O_R   0.109720 0.471480 0.675590 -0.501779
O24   O     O_R   0.361760 0.890280 0.675590 -0.513595
O25   O     O_3   0.666667 0.333333 0.250630 -0.279449
O26   O     O_3   0.333333 0.666667 0.749370 -0.275977
O27   O     O_3   0.298823 0.960411 0.429495 -0.567588
C73   C     C_3   0.288463 0.848062 0.390325 0.005661
H31   H     H_    0.243906 0.755551 0.423530 0.125223
H32   H     H_    0.387011 0.860858 0.370763 0.118898
C74   C     C_3   0.197892 0.823186 0.326509 -0.335575
H33   H     H_    0.250724 0.906381 0.287511 0.158022
H34   H     H_    0.174025 0.725077 0.300992 0.106036
H35   H     H_    0.101861 0.820363 0.342268 0.179965
O28   O     O_3   0.058009 0.332496 0.422447 -0.576804
C75   C     C_3   0.162136 0.405379 0.371884 0.005219
H36   H     H_    0.263351 0.444267 0.396582 0.145724
H37   H     H_    0.163005 0.496255 0.348908 0.098312
C76   C     C_3   0.146367 0.309226 0.311709 -0.335963
H38   H     H_    0.046238 0.271215 0.285247 0.154083
H39   H     H_    0.228961 0.364609 0.272446 0.129110
H40   H     H_    0.151692 0.219664 0.331613 0.151798
O29   O     O_3   0.673401 0.707873 0.424793 -0.571646
C77   C     C_3   0.587213 0.739820 0.384822 0.004131
H41   H     H_    0.555469 0.800736 0.417361 0.136195
H42   H     H_    0.492197 0.648542 0.365315 0.106868
C78   C     C_3   0.665646 0.823510 0.320889 -0.333813
H43   H     H_    0.697957 0.764614 0.287028 0.161121
H44   H     H_    0.598770 0.848966 0.289345 0.127259
H45   H     H_    0.758677 0.919143 0.337442 0.158061
O30   O     O_3   0.960295 0.298862 0.570442 -0.567625
C79   C     C_3   0.847944 0.288646 0.609549 0.005949
H46   H     H_    0.755483 0.244168 0.576307 0.125210
H47   H     H_    0.860816 0.387235 0.629089 0.118731
C80   C     C_3   0.822889 0.198076 0.673379 -0.336653
H48   H     H_    0.905951 0.250937 0.712446 0.157611
H49   H     H_    0.724678 0.174164 0.698790 0.104829
H50   H     H_    0.820173 0.102074 0.657667 0.179548
O31   O     O_3   0.332384 0.057876 0.577484 -0.576835
C81   C     C_3   0.405252 0.162151 0.627972 0.005918
H51   H     H_    0.443931 0.263278 0.603207 0.145784
H52   H     H_    0.496238 0.163202 0.650927 0.097940
C82   C     C_3   0.309148 0.146374 0.688169 -0.336794
H53   H     H_    0.271280 0.046308 0.714673 0.152631
H54   H     H_    0.364519 0.229062 0.727386 0.127724
H55   H     H_    0.219490 0.151544 0.668282 0.150809
O32   O     O_3   0.707563 0.673277 0.575097 -0.571512
C83   C     C_3   0.739201 0.586543 0.614771 0.004518
H56   H     H_    0.799902 0.554807 0.582056 0.135959
H57   H     H_    0.647791 0.491522 0.634159 0.106594
C84   C     C_3   0.823000 0.664315 0.678790 -0.334676
H58   H     H_    0.764162 0.696276 0.712915 0.160202
H59   H     H_    0.848473 0.597089 0.710001 0.125972
H60   H     H_    0.918604 0.757512 0.662367 0.157923

loop_
_geom_bond_atom_site_label_1
_geom_bond_atom_site_label_2
_ccdc_geom_bond_type
C2    C35   S    
C39   C51   A    
C82   H53   S    
C55   C59   A    
C5    O6    A    
C78   H44   S    
C36   C42   A    
C76   H38   S    
Cr3   O9    S    
C45   H3    S    
C53   C59   A    
O27   C73   S    
Cr6   O6    S    
C7    C11   A    
C82   H54   S    
C17   C23   A    
C5    O11   A    
C37   C41   A    
C34   C40   A    
C40   C52   A    
C80   H49   S    
C54   H12   S    
C73   C74   S    
C18   H24   S    
C74   H35   S    
C4    C33   S    
C43   H1    S    
O28   C75   S    
Cr2   O25   S    
Cr5   O23   S    
C17   H23   S    
C9    C66   A    
C55   H13   S    
C3    O9    A    
C46   H4    S    
C19   H25   S    
C81   C82   S    
Cr2   O20   S    
C63   C69   A    
O29   C77   S    
C51   C57   A    
C47   H5    S    
C35   C43   A    
C25   O14   A    
C28   O22   A    
C84   H60   S    
C32   C46   A    
C81   H52   S    
C6    C31   S    
C23   H29   S    
C38   C40   A    
C31   C47   A    
C29   O18   A    
C78   H45   S    
C11   O31   S    
C4    O10   A    
C10   C62   A    
C59   H17   S    
C75   C76   S    
Cr5   O5    S    
C6    O12   A    
C44   C46   A    
C14   H20   S    
C39   C42   A    
C83   C84   S    
C18   C72   A    
C15   C69   A    
C82   H55   S    
C66   C72   A    
C2    O3    A    
C13   C19   A    
Cr4   O16   S    
C79   C80   S    
C14   C20   A    
C4    O5    A    
C44   H2    S    
C76   H40   S    
C16   C70   A    
C18   C24   A    
C73   H32   S    
C27   C64   S    
C51   H9    S    
O31   C81   S    
C12   C63   A    
Cr4   O26   S    
C19   C23   A    
C16   H22   S    
C57   C60   A    
C54   C60   A    
C3    C34   S    
C11   C61   A    
Cr1   O19   S    
Cr4   O10   S    
C48   H6    S    
C79   H47   S    
C69   C72   A    
Cr6   O12   S    
C64   C70   A    
C7    O27   S    
C49   H7    S    
C1    O2    A    
C7    C65   A    
C37   C49   A    
C61   C67   A    
O30   C79   S    
C77   C78   S    
C52   H10   S    
Cr4   O4    S    
Cr2   O8    S    
C80   H50   S    
C34   C44   A    
C36   C45   A    
C33   C39   A    
C26   O20   A    
Cr6   O26   S    
C41   C53   A    
C52   C58   A    
C8    C64   A    
C12   O32   S    
C24   H30   S    
C60   H18   S    
C75   H37   S    
C83   H56   S    
Cr2   O14   S    
C30   O16   A    
C17   C71   A    
C32   C38   A    
C53   H11   S    
C27   O21   A    
Cr3   O15   S    
C21   C24   A    
Cr5   O26   S    
Cr6   O18   S    
Cr1   O25   S    
Cr5   O17   S    
C28   O17   A    
Cr6   O24   S    
C77   H42   S    
C45   C48   A    
C33   C48   A    
C29   C62   S    
C81   H51   S    
C16   C22   A    
C76   H39   S    
C26   C65   S    
C6    O4    A    
C13   C67   A    
C25   C66   S    
C20   C22   A    
C75   H36   S    
Cr5   O11   S    
C49   C55   A    
Cr2   O2    S    
C2    O8    A    
C74   H33   S    
Cr3   O25   S    
Cr1   O1    S    
C38   C50   A    
Cr3   O3    S    
Cr1   O7    S    
C62   C68   A    
C9    O29   S    
Cr4   O22   S    
C79   H46   S    
C5    C32   S    
C25   O19   A    
O32   C83   S    
C65   C71   A    
C42   C54   A    
C15   H21   S    
C74   H34   S    
C29   O23   A    
C3    O1    A    
C30   O24   A    
C83   H57   S    
C56   C58   A    
C8    O28   S    
C67   C71   A    
C13   H19   S    
C35   C41   A    
C9    C12   A    
C50   C56   A    
C80   H48   S    
C22   H28   S    
C20   H26   S    
C50   H8    S    
C84   H58   S    
C28   C63   S    
C31   C37   A    
C15   C21   A    
C77   H41   S    
C8    C10   A    
C26   O15   A    
C30   C61   S    
C78   H43   S    
C27   O13   A    
C68   C70   A    
C14   C68   A    
C73   H31   S    
C57   H15   S    
C1    O7    A    
C56   H14   S    
C43   C47   A    
C10   O30   S    
C58   H16   S    
C21   H27   S    
Cr3   O21   S    
C1    C36   S    
Cr1   O13   S    
C84   H59   S    
