data_mof_unit_31619.cif
_audit_creation_date              2012-12-10T16:52:04-0500
_audit_creation_method            fapswitch 2.2
_symmetry_space_group_name_H-M    P1
_symmetry_Int_Tables_number       1
_space_group_crystal_system       triclinic
_cell_length_a                    7.823931
_cell_length_b                    8.652745
_cell_length_c                    14.950231
_cell_angle_alpha                 92.011059
_cell_angle_beta                  85.21069
_cell_angle_gamma                 93.475122
_cell_volume                      1006.26058305

loop_
_atom_site_label
_atom_site_type_symbol
_atom_type_description
_atom_site_fract_x
_atom_site_fract_y
_atom_site_fract_z
_atom_type_partial_charge
C1    C     C_R   0.544670 0.793667 0.497194 0.985873
C2    C     C_R   0.547816 0.637792 0.813395 -0.072310
C3    C     C_R   0.498277 0.501228 0.232603 -0.116283
C4    C     C_R   0.502257 0.500520 0.767587 -0.118735
C5    C     C_R   0.547487 0.639325 0.188963 0.005348
C6    C     C_R   0.452039 0.362870 0.811435 0.010622
C7    C     C_R   0.554288 0.640755 0.094653 0.091357
C8    C     C_R   0.447321 0.360974 0.905619 0.090042
C9    C     C_R   0.501563 0.501965 0.047189 -0.004560
C10   C     C_R   0.500867 0.499587 0.952989 -0.004667
C11   C     C_R   0.450046 0.364813 0.093740 0.035331
C12   C     C_R   0.455358 0.206137 0.501165 0.912590
C13   C     C_R   0.552574 0.636666 0.906387 0.035486
C14   C     C_R   0.611988 0.774364 0.045413 0.102233
C15   C     C_R   0.390700 0.227033 0.954833 0.101289
C16   C     C_1   0.418960 0.221273 0.235717 0.144761
C17   C     C_1   0.582808 0.780198 0.764328 0.150657
C18   C     C_1   0.024997 0.347081 0.418742 0.383917
C19   C     C_1   0.975485 0.654249 0.580477 0.425826
C20   C     C_R   0.609185 0.770226 0.953240 -0.192060
C21   C     C_R   0.394070 0.231081 0.046905 -0.192113
C22   C     C_2   0.566359 0.953716 0.484444 -0.091812
C23   C     C_2   0.433975 0.044793 0.511219 -0.109322
C24   C     C_R   0.501098 0.500920 0.672310 0.891397
C25   C     C_R   0.499145 0.500335 0.327762 0.886592
C26   C     C_R   0.454300 0.363707 0.186694 -0.068628
H1    H     H_    0.654659 0.874316 0.918324 0.169605
H2    H     H_    0.421620 0.035511 0.873128 0.222104
H3    H     H_    0.699050 0.069077 0.379560 0.214909
H4    H     H_    0.805977 0.066072 0.476786 0.221277
H5    H     H_    0.258772 0.040813 0.620186 0.183237
H6    H     H_    0.173161 0.012301 0.519966 0.206416
H7    H     H_    0.349246 0.126772 0.081766 0.170836
H8    H     H_    0.693099 0.758692 0.277842 0.208229
H9    H     H_    0.482377 0.800087 0.286430 0.203748
H10   H     H_    0.299135 0.248161 0.724927 0.192323
H11   H     H_    0.508527 0.201590 0.712760 0.200881
H12   H     H_    0.582423 0.966985 0.126297 0.221689
H13   H     H_    0.784323 0.894826 0.120329 0.216391
H14   H     H_    0.217845 0.104410 0.881134 0.215847
N1    N     N_2   0.950330 0.457950 0.475660 -0.160005
N2    N     N_3   0.274749 0.985936 0.556972 -0.419146
N3    N     N_1   0.084564 0.253498 0.370732 -0.234646
N4    N     N_1   0.916384 0.748993 0.627810 -0.232436
N5    N     N_2   0.049670 0.542050 0.524340 -0.158597
N6    N     N_1   0.391589 0.107991 0.274639 -0.226416
N7    N     N_1   0.609682 0.893462 0.725329 -0.221877
N8    N     N_3   0.588050 0.777001 0.241462 -0.482382
N9    N     N_3   0.405777 0.226515 0.759271 -0.486467
N10   N     N_3   0.678982 0.916314 0.084932 -0.455237
N11   N     N_3   0.325127 0.084447 0.915400 -0.454814
N12   N     N_3   0.724264 0.004856 0.434478 -0.463463
O1    O     O_R   0.389250 0.738570 0.505970 -0.611673
O2    O     O_R   0.610750 0.261430 0.494030 -0.646400
O3    O     O_R   0.678390 0.711620 0.490370 -0.626901
O4    O     O_R   0.321610 0.288380 0.509630 -0.637576
O5    O     O_R   0.355420 0.513510 0.639950 -0.628954
O6    O     O_R   0.644580 0.486490 0.360050 -0.630612
O7    O     O_R   0.644560 0.486560 0.624350 -0.630050
O8    O     O_R   0.355440 0.513440 0.375650 -0.624867
Zn1   Zn    Zn3+2 0.306940 0.517990 0.510420 0.957164
Zn2   Zn    Zn3+2 0.693060 0.482010 0.489580 0.945031

loop_
_geom_bond_atom_site_label_1
_geom_bond_atom_site_label_2
_ccdc_geom_bond_type
O6    Zn2   S    
C2    C4    A    
C19   N5    S    
O5    Zn1   S    
H12   N10   S    
C25   O8    A    
C15   N11   S    
H14   N11   S    
H11   N9    S    
C9    C10   A    
N1    N5    D    
H2    N11   S    
C11   C26   A    
C15   C21   A    
C1    O3    A    
C1    C22   S    
C14   N10   S    
C18   N3    T    
C2    C17   S    
C9    C11   A    
C12   C23   S    
C12   O4    A    
C23   N2    S    
H4    N12   S    
N1    Zn2   S    
C24   O7    A    
H9    N8    S    
N5    Zn1   S    
C20   H1    S    
C10   C13   A    
C8    C15   A    
C5    C7    A    
C3    C26   A    
C6    N9    S    
C16   C26   S    
C4    C24   S    
C5    N8    S    
C4    C6    A    
H8    N8    S    
C25   O6    A    
H6    N2    S    
O3    Zn2   S    
C14   C20   A    
C3    C25   S    
H13   N10   S    
C21   H7    S    
C19   N4    T    
C22   N12   S    
C18   N1    S    
C16   N6    T    
C7    C9    A    
C2    C13   A    
C1    O1    A    
C22   C23   D    
C24   O5    A    
O7    Zn2   S    
C6    C8    A    
O2    Zn2   S    
C13   C20   A    
O4    Zn1   S    
O1    Zn1   S    
C11   C21   A    
C7    C14   A    
C12   O2    A    
H10   N9    S    
C17   N7    T    
C8    C10   A    
O8    Zn1   S    
C3    C5    A    
H3    N12   S    
H5    N2    S    
