data_mof_unit_54528.cif
_audit_creation_date              2012-10-26T19:31:26-0400
_audit_creation_method            fapswitch 2.2
_symmetry_space_group_name_H-M    P1
_symmetry_Int_Tables_number       1
_space_group_crystal_system       triclinic
_cell_length_a                    14.637618
_cell_length_b                    15.891138
_cell_length_c                    17.247182
_cell_angle_alpha                 90.109676
_cell_angle_beta                  86.191798
_cell_angle_gamma                 90.165629
_cell_volume                      4002.95859406

loop_
_atom_site_label
_atom_site_type_symbol
_atom_type_description
_atom_site_fract_x
_atom_site_fract_y
_atom_site_fract_z
_atom_type_partial_charge
C1    C     C_R   0.500121 0.660438 0.500329 0.539900
C2    C     C_3   0.582990 0.028069 0.510895 0.134463
C3    C     C_3   0.501182 0.916554 0.498826 0.008841
C4    C     C_3   0.498662 0.083201 0.499595 0.008519
C5    C     C_1   0.500873 0.825172 0.499540 -0.020353
C6    C     C_1   0.499047 0.174659 0.499402 -0.015468
C7    C     C_3   0.032715 0.428859 0.469386 0.300424
C8    C     C_3   0.967127 0.571439 0.531265 0.298036
C9    C     C_3   0.965623 0.433278 0.543172 -0.156657
C10   C     C_3   0.034231 0.567033 0.457489 -0.153584
C11   C     C_3   0.975392 0.493875 0.428137 0.124922
C12   C     C_R   0.499863 0.339522 0.499859 0.547939
C13   C     C_3   0.024481 0.506436 0.572518 0.122932
C14   C     C_3   0.907826 0.499410 0.500760 -0.023488
C15   C     C_3   0.092061 0.500885 0.499877 -0.021992
C16   C     C_R   0.488535 0.499041 0.650671 0.561554
C17   C     C_R   0.511555 0.504373 0.349865 0.563954
C18   C     C_1   0.805605 0.499802 0.500324 0.154286
C19   C     C_1   0.194354 0.500339 0.499977 0.162609
C20   C     C_R   0.482413 0.498749 0.736101 -0.015284
C21   C     C_R   0.516773 0.519981 0.266211 -0.018532
C22   C     C_R   0.555308 0.469677 0.778995 0.123072
C23   C     C_3   0.475170 0.027070 0.430771 0.294240
C24   C     C_R   0.451980 0.572732 0.233735 0.151903
C25   C     C_R   0.544180 0.467971 0.860879 0.129653
C26   C     C_R   0.454116 0.583106 0.152621 0.130904
C27   C     C_R   0.464755 0.503338 0.898894 0.053865
C28   C     C_R   0.524976 0.544829 0.105453 0.029492
C29   C     C_R   0.392815 0.531656 0.855876 0.110258
C30   C     C_R   0.593216 0.497436 0.139072 0.124921
C31   C     C_R   0.401405 0.527370 0.775081 -0.165870
C32   C     C_R   0.587670 0.484250 0.219151 -0.172518
C33   C     C_2   0.457575 0.512024 0.983871 -0.085469
C34   C     C_3   0.524668 0.972643 0.567631 0.294632
C35   C     C_2   0.525150 0.548146 0.020588 -0.094184
C36   C     C_3   0.710409 0.499101 0.728059 -0.273806
C37   C     C_3   0.422706 0.701381 0.305350 -0.287954
C38   C     C_3   0.003806 0.295081 0.425360 -0.117704
C39   C     C_3   0.995882 0.705193 0.575418 -0.119774
C40   C     C_3   0.979685 0.514917 0.711238 -0.308670
C41   C     C_3   0.020047 0.485234 0.289399 -0.301581
C42   C     C_3   0.317469 0.657801 0.902159 -0.318740
C43   C     C_3   0.744805 0.510844 0.077241 -0.308861
C44   C     C_3   0.296446 0.603432 0.117310 -0.330504
C45   C     C_3   0.561077 0.972076 0.441084 -0.140594
C46   C     C_3   0.589404 0.345586 0.931768 -0.296231
C47   C     C_3   0.453487 0.001129 0.301837 -0.127795
C48   C     C_3   0.546038 0.997954 0.696722 -0.129216
C49   C     C_3   0.744001 0.000578 0.530102 -0.290014
C50   C     C_3   0.255861 0.998808 0.467986 -0.289266
C51   C     C_3   0.438761 0.027618 0.557335 -0.139998
C52   C     C_1   0.500499 0.749849 0.500036 -0.023991
C53   C     C_1   0.499490 0.250034 0.499562 -0.012429
C54   C     C_3   0.416857 0.971624 0.487522 0.134081
Cu1   Cu    Cu3+1 0.409780 0.500000 0.499990 1.007836
Cu2   Cu    Cu3+1 0.590220 0.500000 0.500010 0.997388
H1    H     H_    0.638492 0.445352 0.244601 0.130119
H2    H     H_    0.765876 0.472075 0.688672 0.141753
H3    H     H_    0.739116 0.515762 0.784024 0.103873
H4    H     H_    0.685727 0.557524 0.701165 0.186688
H5    H     H_    0.323036 0.621529 0.266719 0.259547
H6    H     H_    0.373767 0.730198 0.349594 0.133078
H7    H     H_    0.429708 0.743327 0.253804 0.140580
H8    H     H_    0.490181 0.695449 0.330740 0.142465
H9    H     H_    0.946763 0.320295 0.392819 0.146661
H10   H     H_    0.977267 0.269712 0.482516 0.109114
H11   H     H_    0.034463 0.241859 0.391136 0.135503
H12   H     H_    0.345522 0.550002 0.742625 0.138841
H13   H     H_    0.022549 0.730568 0.518300 0.109358
H14   H     H_    0.052845 0.680003 0.608067 0.146647
H15   H     H_    0.965121 0.758405 0.609591 0.133927
H16   H     H_    0.104708 0.472801 0.662325 0.250335
H17   H     H_    0.008294 0.527053 0.768235 0.130180
H18   H     H_    0.943879 0.453146 0.713772 0.123964
H19   H     H_    0.929940 0.565511 0.700612 0.192401
H20   H     H_    0.895309 0.527918 0.338377 0.250404
H21   H     H_    0.991252 0.473933 0.232332 0.127960
H22   H     H_    0.069092 0.433956 0.299681 0.199823
H23   H     H_    0.585688 0.571793 0.987762 0.145779
H24   H     H_    0.056703 0.546596 0.287262 0.126978
H25   H     H_    0.253276 0.548819 0.869305 0.247037
H26   H     H_    0.321244 0.688600 0.844209 0.146060
H27   H     H_    0.378452 0.675928 0.933474 0.154001
H28   H     H_    0.255285 0.680512 0.936146 0.132578
H29   H     H_    0.681233 0.399257 0.110564 0.243265
H30   H     H_    0.778268 0.522585 0.132268 0.134840
H31   H     H_    0.726298 0.571942 0.051446 0.144619
H32   H     H_    0.794175 0.478430 0.035701 0.134538
H33   H     H_    0.411494 0.669756 0.070829 0.246997
H34   H     H_    0.397267 0.487377 0.016309 0.139345
H35   H     H_    0.247193 0.650787 0.142194 0.138857
H36   H     H_    0.286952 0.543899 0.150750 0.143664
H37   H     H_    0.280437 0.590781 0.056466 0.161404
H38   H     H_    0.678443 0.436142 0.883947 0.249181
H39   H     H_    0.643025 0.322777 0.969147 0.145120
H40   H     H_    0.586201 0.302562 0.881148 0.120450
H41   H     H_    0.522726 0.344467 0.966474 0.161527
H42   H     H_    0.419523 0.940737 0.319295 0.097877
H43   H     H_    0.526593 0.990322 0.282988 0.114071
H44   H     H_    0.419224 0.025482 0.251025 0.138337
H45   H     H_    0.611055 0.948504 0.394947 0.096887
H46   H     H_    0.472857 0.008619 0.715400 0.114617
H47   H     H_    0.580052 0.058423 0.679618 0.102346
H48   H     H_    0.580090 0.973323 0.747535 0.135997
H49   H     H_    0.671263 0.107372 0.566985 0.242295
H50   H     H_    0.810668 0.033272 0.534024 0.125933
H51   H     H_    0.748957 0.959329 0.477949 0.153305
H52   H     H_    0.730347 0.961662 0.583042 0.181487
H53   H     H_    0.328753 0.891871 0.431695 0.238056
H54   H     H_    0.189224 0.966008 0.464258 0.125457
H55   H     H_    0.269474 0.037363 0.414815 0.182384
H56   H     H_    0.388734 0.051122 0.603466 0.098165
H57   H     H_    0.250879 0.040417 0.519895 0.153818
H58   H     H_    0.938356 0.379623 0.578819 0.095447
H59   H     H_    0.061432 0.620742 0.421880 0.095919
H60   H     H_    0.658825 0.381287 0.760434 0.240727
N1    N     N_1   0.725810 0.500000 0.500030 -0.194541
N2    N     N_2   0.611583 0.430092 0.905671 -0.507236
N3    N     N_2   0.672458 0.062207 0.523980 -0.509143
N4    N     N_2   0.327456 0.937310 0.474463 -0.510141
N5    N     N_1   0.274190 0.500000 0.499970 -0.190518
N6    N     N_2   0.636963 0.438080 0.739709 -0.498129
N7    N     N_2   0.389136 0.619581 0.283534 -0.475704
N8    N     N_2   0.053153 0.514139 0.650939 -0.519676
N9    N     N_2   0.946627 0.486312 0.349731 -0.520556
N10   N     N_2   0.312677 0.567356 0.893585 -0.532995
N11   N     N_2   0.664531 0.458532 0.091812 -0.496534
N12   N     N_2   0.388740 0.636394 0.119569 -0.524823
O1    O     O_R   0.423830 0.620920 0.499990 -0.492912
O2    O     O_3   0.927380 0.644351 0.565828 -0.565375
O3    O     O_3   0.445529 0.061768 0.361527 -0.554713
O4    O     O_3   0.554325 0.937677 0.636760 -0.556485
O5    O     O_R   0.576170 0.379080 0.500010 -0.493406
O6    O     O_R   0.576200 0.620920 0.500000 -0.490631
O7    O     O_R   0.423800 0.379080 0.500000 -0.485810
O8    O     O_R   0.414980 0.500010 0.613590 -0.513724
O9    O     O_R   0.585020 0.499990 0.386410 -0.510256
O10   O     O_R   0.567350 0.500010 0.613600 -0.467530
O11   O     O_R   0.432650 0.499990 0.386400 -0.461157
O12   O     O_3   0.072368 0.355899 0.434834 -0.560685

loop_
_geom_bond_atom_site_label_1
_geom_bond_atom_site_label_2
_ccdc_geom_bond_type
Cu1   Cu2   S    
Cu1   N5    S    
C8    C13   S    
C23   C45   S    
C54   N4    S    
H25   N10   S    
C27   C29   A    
Cu2   N1    S    
C14   C18   S    
C2    C4    S    
C42   H26   S    
C36   H3    S    
C25   N2    S    
C41   H24   S    
Cu2   O5    S    
Cu1   O11   S    
C49   H51   S    
C27   C33   S    
C15   C19   S    
C34   C51   S    
C51   H56   S    
C47   H42   S    
H60   N6    S    
C50   N4    S    
C43   H32   S    
C11   N9    S    
C24   C26   A    
C1    O1    A    
C10   C15   S    
C41   H21   S    
C7    O12   S    
C3    C54   S    
Cu1   O8    S    
C48   H48   S    
C50   H54   S    
C47   H43   S    
C40   H17   S    
C46   N2    S    
C9    C13   S    
C44   H37   S    
C33   C35   D    
C37   N7    S    
C19   N5    T    
C46   H39   S    
C38   H10   S    
C28   C35   S    
Cu1   O1    S    
C12   O7    A    
C5    C52   T    
C22   N6    S    
C12   C53   S    
C44   H36   S    
C2    C34   S    
C7    C15   S    
C34   O4    S    
C29   N10   S    
H16   N8    S    
H20   N9    S    
C32   H1    S    
C37   H7    S    
C37   H6    S    
C49   H52   S    
C2    C45   S    
C31   H12   S    
C40   N8    S    
C21   C32   A    
C4    C51   S    
C41   N9    S    
C42   H28   S    
C4    C6    S    
C43   N11   S    
C41   H22   S    
C4    C23   S    
C3    C34   S    
C3    C5    S    
C48   H47   S    
C3    C45   S    
C24   N7    S    
C17   C21   S    
C47   H44   S    
C47   O3    S    
C38   O12   S    
C36   N6    S    
C9    C14   S    
Cu2   O10   S    
C7    C11   S    
C38   H9    S    
C16   C20   S    
C48   H46   S    
C39   H13   S    
C23   O3    S    
C17   O11   A    
C26   N12   S    
C18   N1    T    
C44   H35   S    
C45   H45   S    
C22   C25   A    
C20   C22   A    
C12   O5    A    
C13   C15   S    
C8    O2    S    
H29   N11   S    
C9    H58   S    
C6    C53   T    
C1    O6    A    
C16   O8    A    
C37   H8    S    
C23   C54   S    
C7    C9    S    
C30   N11   S    
C44   N12   S    
C8    C14   S    
C43   H30   S    
C46   H41   S    
C16   O10   A    
C42   H27   S    
C36   H4    S    
Cu2   O6    S    
C2    N3    S    
C49   H50   S    
C39   O2    S    
C25   C27   A    
C36   H2    S    
C26   C28   A    
C40   H19   S    
H5    N7    S    
C51   C54   S    
C43   H31   S    
C50   H57   S    
C28   C30   A    
C29   C31   A    
C33   H34   S    
C30   C32   A    
Cu2   O9    S    
H38   N2    S    
C49   N3    S    
Cu1   O7    S    
C35   H23   S    
C50   H55   S    
C11   C14   S    
C39   H14   S    
C40   H18   S    
C13   N8    S    
H49   N3    S    
C1    C52   S    
C10   C11   S    
C42   N10   S    
C46   H40   S    
C38   H11   S    
C8    C10   S    
C21   C24   A    
C39   H15   S    
C48   O4    S    
C17   O9    A    
C20   C31   A    
C10   H59   S    
H53   N4    S    
H33   N12   S    
