data_mof_unit_34268.cif
_audit_creation_date              2012-12-10T20:26:24-0500
_audit_creation_method            fapswitch 2.2
_symmetry_space_group_name_H-M    P1
_symmetry_Int_Tables_number       1
_space_group_crystal_system       triclinic
_cell_length_a                    10.530018
_cell_length_b                    10.705117
_cell_length_c                    9.925937
_cell_angle_alpha                 90.988196
_cell_angle_beta                  90.127875
_cell_angle_gamma                 91.39586
_cell_volume                      1118.39965668

loop_
_atom_site_label
_atom_site_type_symbol
_atom_type_description
_atom_site_fract_x
_atom_site_fract_y
_atom_site_fract_z
_atom_type_partial_charge
C1    C     C_R   0.495251 0.260277 0.499274 0.961671
C2    C     C_R   0.475378 0.128656 0.500093 -0.102221
C3    C     C_R   0.440122 0.062245 0.382724 -0.300415
C4    C     C_R   0.438998 0.932719 0.383107 0.617851
C5    C     C_R   0.475063 0.871240 0.501400 -0.146262
C6    C     C_R   0.486847 0.939011 0.621788 -0.172289
C7    C     C_3   0.586810 0.938242 0.728894 0.456945
C8    C     C_3   0.585343 0.079525 0.728920 0.523911
C9    C     C_R   0.456503 0.397589 0.066587 0.143940
C10   C     C_R   0.565008 0.589005 0.075771 -0.079538
C11   C     C_R   0.572190 0.585390 0.932280 0.138731
C12   C     C_R   0.264984 0.521374 0.501262 0.889397
C13   C     C_R   0.456636 0.398645 0.926173 0.172765
C14   C     C_3   0.337401 0.324958 0.909120 -0.531657
C15   C     C_3   0.334742 0.318622 0.063530 -0.095232
C16   C     C_R   0.495690 0.739951 0.500552 0.938820
C17   C     C_R   0.738712 0.500480 0.499655 0.981507
C18   C     C_2   0.932230 0.576321 0.402114 -0.171281
C19   C     C_2   0.874021 0.508119 0.496774 -0.338177
C20   C     C_2   0.069861 0.582266 0.396544 -0.188736
C21   C     C_2   0.140570 0.577644 0.508545 0.017498
C22   C     C_R   0.486279 0.066439 0.621210 -0.119672
H1    H     H_    0.879141 0.619385 0.321917 0.179174
H2    H     H_    0.617684 0.659814 0.133396 0.166194
H3    H     H_    0.262213 0.380920 0.861874 0.210399
H4    H     H_    0.352905 0.232891 0.859408 0.187964
H5    H     H_    0.352194 0.221888 0.097151 0.177064
H6    H     H_    0.925752 0.460439 0.574586 0.157608
H7    H     H_    0.110730 0.568350 0.298084 0.160930
H8    H     H_    0.421093 0.109571 0.289681 0.173207
H9    H     H_    0.551588 0.897257 0.824051 -0.002219
H10   H     H_    0.550152 0.122126 0.824140 -0.007587
N1    N     N_R   0.499170 0.499140 0.142800 -0.125915
N2    N     N_R   0.499170 0.499180 0.857150 -0.122571
O1    O     O_R   0.500020 0.316790 0.614690 -0.596955
O2    O     O_R   0.500000 0.316760 0.385350 -0.630766
O3    O     O_R   0.319080 0.500020 0.614640 -0.626087
O4    O     O_R   0.319070 0.499980 0.385300 -0.627645
O5    O     O_R   0.500000 0.683240 0.614650 -0.658989
O6    O     O_R   0.499980 0.683210 0.385310 -0.570465
O7    O     O_R   0.680930 0.500020 0.614700 -0.611158
O8    O     O_R   0.680920 0.499980 0.385360 -0.618409
Zn1   Zn    Zn3+2 0.500010 0.500020 0.653130 0.949939
Zn2   Zn    Zn3+2 0.499990 0.499980 0.346870 0.970562
F1    F     F_    0.697713 0.133173 0.682383 -0.605298
C23   C     C_3   0.677511 0.663332 0.871757 -0.323137
C24   C     C_3   0.806311 0.604599 0.895631 -0.869216
H11   H     H_    0.808347 0.509320 0.849722 0.277625
H12   H     H_    0.882196 0.663291 0.849394 0.261458
H13   H     H_    0.826517 0.598685 0.005219 0.245258
H14   H     H_    0.665464 0.674965 0.763547 0.297548
H15   H     H_    0.679632 0.757735 0.919735 0.201787
C25   C     C_3   0.214997 0.376239 0.124157 -0.321743
C26   C     C_3   0.162762 0.296320 0.238758 -0.826673
H16   H     H_    0.133406 0.202301 0.199087 0.259470
H17   H     H_    0.235569 0.284537 0.318160 0.266743
H18   H     H_    0.078098 0.340074 0.283808 0.250952
H19   H     H_    0.236393 0.473422 0.157379 0.228254
H20   H     H_    0.138118 0.380724 0.047577 0.203952
C27   C     C_3   0.097340 0.635421 0.642639 -0.396156
C28   C     C_3   0.184544 0.744206 0.688918 -0.817653
H21   H     H_    0.277538 0.710421 0.723414 0.275398
H22   H     H_    0.199309 0.811376 0.605972 0.258571
H23   H     H_    0.140349 0.794051 0.775235 0.252795
H24   H     H_    0.001168 0.674744 0.634778 0.251178
H25   H     H_    0.094141 0.562905 0.721448 0.199325
F2    F     F_    0.411395 0.869519 0.266454 -0.670931
F3    F     F_    0.700507 0.891997 0.681703 -0.631338

loop_
_geom_bond_atom_site_label_1
_geom_bond_atom_site_label_2
_ccdc_geom_bond_type
C2    C22   A    
C28   H23   S    
C8    C22   S    
C25   H19   S    
C10   N1    A    
O4    Zn2   S    
C6    C7    S    
C12   C21   S    
C3    H8    S    
O1    Zn1   S    
C15   H5    S    
C24   H11   S    
C14   C15   S    
C1    O2    A    
C2    C3    A    
C25   H20   S    
C27   H25   S    
C13   N2    A    
C24   H12   S    
C13   C14   S    
C14   H4    S    
C9    N1    A    
C19   H6    S    
O7    Zn1   S    
C5    C6    A    
O8    Zn2   S    
C16   O6    A    
C15   C25   S    
C17   C19   S    
C27   H24   S    
C18   C19   D    
C24   H13   S    
C18   C20   S    
C20   H7    S    
C8    F1    S    
C14   H3    S    
C12   O4    A    
C28   H21   S    
C26   H17   S    
O3    Zn1   S    
O2    Zn2   S    
C17   O7    A    
C7    H9    S    
C10   C11   A    
C16   O5    A    
C18   H1    S    
C6    C22   A    
C23   H15   S    
O6    Zn2   S    
C20   C21   D    
C1    O1    A    
C21   C27   S    
C1    C2    S    
C23   C24   S    
C17   O8    A    
C12   O3    A    
C28   H22   S    
C7    C8    S    
C9    C13   A    
C26   H16   S    
C4    C5    A    
C5    C16   S    
O5    Zn1   S    
C10   H2    S    
C7    F3    S    
C9    C15   S    
N1    Zn2   S    
C23   H14   S    
C26   H18   S    
C11   N2    A    
N2    Zn1   S    
C3    C4    A    
C25   C26   S    
C27   C28   S    
C11   C23   S    
C4    F2    S    
C8    H10   S    
