data_mof_unit_17761.cif
_audit_creation_date              2012-12-11T14:08:04-0500
_audit_creation_method            fapswitch 2.2
_symmetry_space_group_name_H-M    P1
_symmetry_Int_Tables_number       1
_space_group_crystal_system       triclinic
_cell_length_a                    10.880338
_cell_length_b                    10.881316
_cell_length_c                    18.585133
_cell_angle_alpha                 90.790479
_cell_angle_beta                  90.036492
_cell_angle_gamma                 60.614066
_cell_volume                      1917.00038908

loop_
_atom_site_label
_atom_site_type_symbol
_atom_type_description
_atom_site_fract_x
_atom_site_fract_y
_atom_site_fract_z
_atom_type_partial_charge
C1    C     C_R   0.292885 0.622199 0.615326 0.554653
C2    C     C_3   0.678960 0.545725 0.800314 -0.251951
C3    C     C_3   0.699284 0.674388 0.812817 0.055410
C4    C     C_3   0.669125 0.648579 0.676738 0.054545
C5    C     C_3   0.810918 0.645171 0.689276 -0.247117
C6    C     C_3   0.665627 0.527670 0.719598 -0.215847
C7    C     C_2   0.676253 0.154578 0.670215 -0.120933
C8    C     C_2   0.689784 0.167069 0.827784 -0.120764
C9    C     C_2   0.802114 0.121409 0.783674 -0.176165
C10   C     C_2   0.783995 0.152621 0.706442 -0.175227
C11   C     C_2   0.248992 0.637287 0.690325 -0.124347
C12   C     C_R   0.653713 0.622802 0.601299 0.548907
C13   C     C_2   0.216638 0.651045 0.846401 -0.117218
C14   C     C_2   0.226648 0.543977 0.805541 -0.170956
C15   C     C_2   0.276237 0.525170 0.730518 -0.184683
C16   C     C_2   0.617367 0.615569 0.311564 -0.099517
C17   C     C_2   0.630429 0.655872 0.156131 -0.102418
C18   C     C_2   0.704142 0.531095 0.188784 -0.146208
C19   C     C_2   0.685572 0.509009 0.264619 -0.166049
C20   C     C_2   0.599153 0.261108 0.312680 -0.132802
C21   C     C_2   0.628352 0.219500 0.159581 -0.086192
C22   C     C_2   0.501626 0.277656 0.192561 0.083628
C23   C     C_R   0.628557 0.226914 0.601769 0.551242
C24   C     C_2   0.489616 0.323687 0.267866 -0.144768
C25   C     C_2   0.126109 0.679725 0.341461 -0.117566
C26   C     C_2   0.014209 0.745641 0.196247 -0.087516
C27   C     C_2   0.018195 0.841721 0.241950 0.057730
C28   C     C_2   0.049712 0.811743 0.318358 -0.125566
C29   C     C_R   0.703291 0.102698 0.897638 0.546146
C30   C     C_R   0.723319 0.687740 0.888673 0.542279
C31   C     C_R   0.123040 0.703975 0.908855 0.558563
C32   C     C_R   0.671009 0.118045 0.100359 0.566501
C33   C     C_R   0.691699 0.687181 0.094110 0.543367
C34   C     C_R   0.216577 0.650429 0.403314 0.548555
C35   C     C_R   0.016642 0.753919 0.118096 0.594150
C36   C     C_R   0.614404 0.587331 0.387299 0.549754
C37   C     C_R   0.578785 0.296596 0.388026 0.549452
C38   C     C_3   0.566926 0.808845 0.784767 -0.233145
C39   C     C_3   0.547218 0.791934 0.704501 -0.241893
C40   C     C_3   0.831064 0.655706 0.770199 -0.221518
Cr1   Cr    Cr6+3 0.393010 0.398050 0.501480 1.026218
Cr2   Cr    Cr6+3 0.398820 0.707980 0.501630 1.023475
Cr3   Cr    Cr6+3 0.708140 0.393940 0.496850 1.020800
Cr4   Cr    Cr6+3 0.937950 0.938450 0.008940 1.052181
Cr5   Cr    Cr6+3 0.626180 0.937030 0.994750 1.045607
Cr6   Cr    Cr6+3 0.937790 0.625760 0.001410 1.045190
H1    H     H_    0.754664 0.423929 0.702362 0.143876
H2    H     H_    0.927383 0.558268 0.787096 0.138191
H3    H     H_    0.900478 0.545640 0.667457 0.143101
H4    H     H_    0.908465 0.056201 0.803583 0.154174
H5    H     H_    0.857315 0.178400 0.680115 0.148012
H6    H     H_    0.583899 0.233488 0.807478 0.108296
H7    H     H_    0.609084 0.119947 0.696062 0.102123
H8    H     H_    0.325253 0.419912 0.706631 0.150925
H9    H     H_    0.263509 0.713550 0.828390 0.098622
H10   H     H_    0.470826 0.827067 0.814904 0.122616
H11   H     H_    0.194561 0.743430 0.713177 0.110542
H12   H     H_    0.794331 0.444336 0.161975 0.179085
H13   H     H_    0.743502 0.401621 0.283820 0.154039
H14   H     H_    0.534763 0.741201 0.179511 0.127681
H15   H     H_    0.561237 0.724593 0.294908 0.127174
H16   H     H_    0.711371 0.235054 0.182539 0.102097
H17   H     H_    0.703207 0.180610 0.294898 0.127629
H18   H     H_    0.443451 0.796746 0.696698 0.138343
H19   H     H_    0.038055 0.898583 0.352694 0.178407
H20   H     H_    0.009034 0.655568 0.216914 0.098158
H21   H     H_    0.141251 0.589131 0.309657 0.107562
H22   H     H_    0.545632 0.880383 0.674317 0.122453
H23   H     H_    0.849194 0.746400 0.781397 0.122522
H24   H     H_    0.770079 0.448480 0.821596 0.139111
H25   H     H_    0.582234 0.561067 0.828729 0.117102
H26   H     H_    0.566086 0.525341 0.708869 0.112153
O1    O     O_R   0.507110 0.256280 0.580300 -0.521472
O2    O     O_R   0.524640 0.695370 0.425100 -0.483735
O3    O     O_R   0.735890 0.504390 0.415980 -0.493322
O4    O     O_R   0.690560 0.277820 0.422350 -0.502054
O5    O     O_3   0.499990 0.499990 0.499980 -0.311088
O6    O     O_R   0.089190 0.825870 0.932320 -0.514493
O7    O     O_R   0.819070 0.053960 0.931440 -0.497214
O8    O     O_R   0.607070 0.076440 0.916460 -0.515964
O9    O     O_R   0.647110 0.806550 0.917690 -0.509625
O10   O     O_R   0.837080 0.593860 0.915300 -0.525629
O11   O     O_R   0.064770 0.636080 0.932550 -0.491536
O12   O     O_R   0.280830 0.527190 0.577940 -0.485844
O13   O     O_R   0.068250 0.829200 0.092940 -0.460497
O14   O     O_R   0.799650 0.057040 0.080330 -0.504566
O15   O     O_R   0.586130 0.079760 0.077080 -0.467699
O16   O     O_R   0.627700 0.809630 0.066580 -0.484652
O17   O     O_R   0.816140 0.597180 0.075920 -0.513640
O18   O     O_R   0.045360 0.639170 0.081440 -0.474348
O19   O     O_3   0.833980 0.833750 0.001700 -0.288627
O20   O     O_R   0.261360 0.738990 0.584270 -0.513574
O21   O     O_R   0.532590 0.694780 0.574370 -0.514269
O22   O     O_R   0.744470 0.503750 0.577000 -0.522272
O23   O     O_R   0.698520 0.277230 0.571620 -0.494030
O24   O     O_R   0.498530 0.256920 0.419280 -0.479119
O25   O     O_R   0.272880 0.527780 0.428680 -0.512380
O26   O     O_R   0.252780 0.739630 0.423250 -0.503465
H27   H     H_    0.579613 0.903632 0.792920 0.145106
H28   H     H_    0.186380 0.476520 0.824610 0.149723
I1    I     I_    0.313256 0.297667 0.146649 -0.296068
H29   H     H_    0.386110 0.399362 0.288754 0.147062
I2    I     I_    0.014740 0.032874 0.212864 -0.367084
H30   H     H_    0.811849 0.734526 0.661296 0.124393

loop_
_geom_bond_atom_site_label_1
_geom_bond_atom_site_label_2
_ccdc_geom_bond_type
C7    C10   D    
Cr2   O21   S    
C35   O13   A    
C39   H22   S    
C1    C11   S    
C5    H3    S    
C34   O25   A    
Cr6   O17   S    
C25   C28   D    
C6    H26   S    
C39   H18   S    
C26   C27   D    
C22   I1    S    
C8    C29   S    
Cr5   O15   S    
C33   O16   A    
Cr2   O26   S    
Cr1   O5    S    
C38   C39   S    
Cr1   O24   S    
Cr3   O22   S    
C31   O11   A    
C18   C19   S    
Cr1   O25   S    
Cr6   O10   S    
C11   C15   D    
C18   H12   S    
C20   C24   D    
C3    C38   S    
C8    C9    D    
C25   H21   S    
Cr3   O23   S    
C4    C12   S    
C9    C10   S    
C8    H6    S    
C24   H29   S    
C25   C34   S    
C5    H30   S    
C13   C14   D    
C12   O22   A    
C2    C6    S    
C17   C33   S    
C23   O1    A    
Cr4   O14   S    
C10   H5    S    
Cr3   O3    S    
C21   C32   S    
Cr2   O2    S    
C6    H1    S    
C26   H20   S    
C15   H8    S    
Cr5   O16   S    
C4    C6    S    
C40   H23   S    
C38   H27   S    
Cr6   O19   S    
C19   H13   S    
C32   O15   A    
C37   O24   A    
C1    O12   A    
C30   O10   A    
C3    C30   S    
C36   O3    A    
C33   O17   A    
C29   O7    A    
C4    C39   S    
C32   O14   A    
C17   C18   D    
C21   H16   S    
Cr4   O19   S    
C36   O2    A    
C37   O4    A    
C3    C40   S    
C1    O20   A    
C22   C24   S    
C12   O21   A    
C16   H15   S    
C7    H7    S    
C2    H25   S    
C31   O6    A    
Cr3   O4    S    
C40   H2    S    
C13   C31   S    
Cr4   O7    S    
Cr5   O9    S    
C9    H4    S    
C4    C5    S    
C14   H28   S    
Cr6   O18   S    
Cr3   O5    S    
C30   O9    A    
Cr4   O6    S    
C2    C3    S    
C11   H11   S    
C16   C36   S    
C20   C37   S    
Cr1   O12   S    
C29   O8    A    
C2    H24   S    
C20   H17   S    
C16   C19   D    
C7    C23   S    
C27   I2    S    
C34   O26   A    
C23   O23   A    
C28   H19   S    
Cr5   O8    S    
Cr2   O20   S    
Cr5   O19   S    
C17   H14   S    
Cr1   O1    S    
Cr6   O11   S    
C35   O18   A    
C26   C35   S    
C38   H10   S    
Cr2   O5    S    
C5    C40   S    
C27   C28   S    
C14   C15   S    
C21   C22   D    
Cr4   O13   S    
C13   H9    S    
