data_mof_unit_67239.cif
_audit_creation_date              2013-03-05T16:01:26-0500
_audit_creation_method            fapswitch 2.2
_symmetry_space_group_name_H-M    P1
_symmetry_Int_Tables_number       1
_space_group_crystal_system       triclinic
_cell_length_a                    20.436499
_cell_length_b                    21.053857
_cell_length_c                    8.383852
_cell_angle_alpha                 89.765821
_cell_angle_beta                  92.61431
_cell_angle_gamma                 89.7321
_cell_volume                      3603.46869332

loop_
_atom_site_label
_atom_site_type_symbol
_atom_site_description
_atom_site_fract_x
_atom_site_fract_y
_atom_site_fract_z
_atom_type_partial_charge
P1    P     P_3+3 0.136530 0.426510 0.931350 0.494200
P2    P     P_3+3 0.136530 0.573490 0.431350 0.501505
P3    P     P_3+3 0.636530 0.926510 0.931350 0.555811
P4    P     P_3+3 0.636530 0.073490 0.431350 0.505409
O1    O     O_2   0.130070 0.404060 0.104920 -0.314736
O2    O     O_2   0.130070 0.595940 0.604920 -0.367200
O3    O     O_2   0.630070 0.904060 0.104920 -0.295673
O4    O     O_2   0.630070 0.095940 0.604920 -0.366561
O5    O     O_3   0.075780 0.466370 0.861070 -0.334201
O6    O     O_3   0.075780 0.533630 0.361070 -0.340330
O7    O     O_3   0.575780 0.966370 0.861070 -0.340954
O8    O     O_3   0.575780 0.033630 0.361070 -0.329638
O9    O     O_3   0.022320 0.344950 0.359800 -0.317907
O10   O     O_3   0.022320 0.655050 0.859800 -0.306979
O11   O     O_3   0.522320 0.844950 0.359800 -0.329658
O12   O     O_3   0.522320 0.155050 0.859800 -0.304436
O13   O     O_2   0.124483 0.291548 0.245901 -0.283464
O14   O     O_2   0.125843 0.705857 0.741023 -0.361278
O15   O     O_2   0.628956 0.796458 0.245017 -0.294647
O16   O     O_2   0.626750 0.204452 0.744506 -0.405998
O17   O     O_3   0.204384 0.472763 0.987103 -0.607321
O18   O     O_3   0.208249 0.528675 0.478769 -0.632811
O19   O     O_3   0.701731 0.975403 0.990893 -0.554138
O20   O     O_3   0.703570 0.026349 0.493319 -0.609683
O21   O     O_3   0.036161 0.213646 0.337520 -0.504559
O22   O     O_3   0.038168 0.785626 0.830027 -0.473510
O23   O     O_3   0.540934 0.715661 0.324135 -0.468522
O24   O     O_3   0.537770 0.285149 0.816406 -0.476653
C1    C     C_3   0.969318 0.131066 0.440951 -0.591769
C2    C     C_3   0.960913 0.862766 0.921370 -0.604333
C3    C     C_3   0.472353 0.632375 0.419039 -0.615371
C4    C     C_3   0.471606 0.373366 0.897676 -0.567377
P5    P     P_3+3 0.863410 0.426100 0.379280 0.458114
P6    P     P_3+3 0.863410 0.573900 0.879280 0.458170
P7    P     P_3+3 0.363410 0.926100 0.379280 0.457489
P8    P     P_3+3 0.363410 0.073900 0.879280 0.460979
P9    P     P_3+3 0.917963 0.287895 0.937499 0.508240
P10   P     P_3+3 0.917412 0.711665 0.433507 0.501441
P11   P     P_3+3 0.416812 0.788785 0.939359 0.521300
P12   P     P_3+3 0.417049 0.212128 0.433671 0.476811
O25   O     O_2   0.869860 0.403670 0.205810 -0.362416
O26   O     O_2   0.869860 0.596330 0.705810 -0.361822
O27   O     O_2   0.369860 0.903670 0.205810 -0.364662
O28   O     O_2   0.369860 0.096330 0.705810 -0.357617
O29   O     O_3   0.977590 0.344880 0.951200 -0.411094
O30   O     O_3   0.977590 0.655120 0.451200 -0.364650
O31   O     O_3   0.477590 0.844880 0.951200 -0.381943
O32   O     O_3   0.477590 0.155120 0.451200 -0.389585
O33   O     O_2   0.874687 0.295990 0.082592 -0.364730
O34   O     O_2   0.869224 0.699020 0.566350 -0.313827
O35   O     O_2   0.372990 0.798937 0.082276 -0.357225
O36   O     O_2   0.372860 0.204463 0.577310 -0.339822
O37   O     O_3   0.794646 0.474669 0.352377 -0.591351
O38   O     O_3   0.794141 0.526432 0.857364 -0.593758
O39   O     O_3   0.294101 0.974108 0.354220 -0.591534
O40   O     O_3   0.294301 0.026378 0.853256 -0.595832
O41   O     O_3   0.956472 0.214079 0.969713 -0.444879
O42   O     O_3   0.954861 0.782984 0.489816 -0.482895
O43   O     O_3   0.456488 0.716881 0.985030 -0.434305
O44   O     O_3   0.455157 0.285663 0.464234 -0.510514
C5    C     C_3   0.021700 0.218396 0.924827 0.457869
C6    C     C_3   0.994002 0.802916 0.366505 0.308038
C7    C     C_3   0.494423 0.700630 0.856354 0.388280
C8    C     C_3   0.517153 0.283478 0.398354 0.439440
H1    H     H_    0.024391 0.240246 0.804904 -0.023028
H2    H     H_    0.961764 0.821803 0.267395 0.026023
H3    H     H_    0.461230 0.683845 0.757211 0.053590
H4    H     H_    0.514607 0.262244 0.277143 -0.012192
C9    C     C_3   0.051967 0.152268 0.921224 -0.795403
C10   C     C_3   0.038974 0.855918 0.426598 -0.804954
C11   C     C_3   0.541702 0.647156 0.905279 -0.753656
C12   C     C_3   0.543657 0.350583 0.385331 -0.891162
H5    H     H_    0.054454 0.131241 0.042975 0.296266
H6    H     H_    0.070952 0.838655 0.528544 0.281399
H7    H     H_    0.570806 0.660259 0.015301 0.270568
H8    H     H_    0.548691 0.372366 0.505388 0.267502
C13   C     C_3   0.809670 0.464990 0.807823 0.282571
C14   C     C_3   0.812167 0.536901 0.314301 0.272238
C15   C     C_3   0.310807 0.964437 0.810692 0.258103
C16   C     C_3   0.310212 0.035790 0.308465 0.268780
H9    H     H_    0.825608 0.436093 0.913790 0.108973
H10   H     H_    0.826835 0.562361 0.425771 0.121897
H11   H     H_    0.325890 0.937209 0.920015 0.116774
H12   H     H_    0.324567 0.063624 0.416587 0.115254
C17   C     C_3   0.748125 0.435243 0.727716 -0.791324
C18   C     C_3   0.752844 0.570670 0.233264 -0.766301
C19   C     C_3   0.250362 0.933187 0.730047 -0.765652
C20   C     C_3   0.249825 0.066604 0.224416 -0.756749
H13   H     H_    0.747271 0.444580 0.598004 0.238826
H14   H     H_    0.753875 0.564977 0.102781 0.229074
H15   H     H_    0.248942 0.943228 0.600701 0.236109
H16   H     H_    0.248940 0.055549 0.096084 0.234046
H17   H     H_    0.749308 0.382991 0.744158 0.159708
H18   H     H_    0.755975 0.622224 0.257875 0.205762
H19   H     H_    0.254341 0.881101 0.745122 0.192342
H20   H     H_    0.253282 0.118800 0.235352 0.196474
Ba1   Ba    Ba6+2 0.999980 0.452130 0.155200 1.605770
Ba2   Ba    Ba6+2 0.999980 0.547870 0.655200 1.609096
Ba3   Ba    Ba6+2 0.499980 0.952130 0.155200 1.621695
Ba4   Ba    Ba6+2 0.499980 0.047870 0.655200 1.606622
C21   C     C_3   0.219528 0.518931 0.876479 0.282247
C22   C     C_3   0.215048 0.473703 0.390303 0.276874
C23   C     C_3   0.717528 0.021807 0.883136 0.258594
C24   C     C_3   0.724012 0.982985 0.383252 0.361797
H21   H     H_    0.204692 0.504445 0.753749 0.093712
H22   H     H_    0.201064 0.483347 0.264191 0.161322
H23   H     H_    0.705791 0.006246 0.760530 0.136810
H24   H     H_    0.713561 0.000427 0.260829 0.124984
C25   C     C_3   0.294452 0.528596 0.887963 -0.842355
C26   C     C_3   0.286983 0.448542 0.404683 -0.772210
C27   C     C_3   0.791941 0.033052 0.905323 -0.741733
C28   C     C_3   0.799272 0.974977 0.412845 -0.674844
O45   O     O_3   0.924190 0.533610 0.949240 -0.393632
O46   O     O_3   0.924190 0.466390 0.449240 -0.395174
O47   O     O_3   0.424190 0.033610 0.949240 -0.394463
O48   O     O_3   0.424190 0.966390 0.449240 -0.395282
P13   P     P_3+3 0.079716 0.715183 0.880297 0.561390
P14   P     P_3+3 0.078021 0.283558 0.384882 0.567552
P15   P     P_3+3 0.579192 0.215918 0.879765 0.526098
P16   P     P_3+3 0.581043 0.785653 0.380023 0.591924
C29   C     C_3   0.001729 0.195242 0.471387 0.121504
C30   C     C_3   0.002519 0.803744 0.961924 0.279092
C31   C     C_3   0.503155 0.697137 0.451762 0.099553
C32   C     C_3   0.502839 0.308968 0.943819 0.329342
H25   H     H_    0.035363 0.189380 0.577734 0.045895
H26   H     H_    0.036637 0.815451 0.063991 -0.001494
H27   H     H_    0.534568 0.692221 0.561891 0.016143
H28   H     H_    0.536121 0.316800 0.050101 0.056328
H29   H     H_    0.938176 0.120738 0.542673 0.202028
H30   H     H_    0.928580 0.872303 0.021816 0.136289
H31   H     H_    0.442534 0.619827 0.521745 0.194318
H32   H     H_    0.444230 0.390107 0.000353 0.207642
H33   H     H_    0.102431 0.155046 0.878299 0.185932
H34   H     H_    0.070356 0.871746 0.329419 0.216241
H35   H     H_    0.575794 0.638160 0.808542 0.181068
H36   H     H_    0.592507 0.349384 0.332567 0.224028
C33   C     C_R   0.251355 0.304324 0.987286 0.048951
C34   C     C_R   0.243350 0.701675 0.509347 -0.073360
C35   C     C_R   0.750253 0.802825 0.993103 0.041784
C36   C     C_R   0.747611 0.198833 0.503792 -0.082228
C37   C     C_R   0.151333 0.345242 0.826983 0.134745
C38   C     C_R   0.152821 0.654193 0.325817 0.209088
C39   C     C_R   0.654663 0.847074 0.822095 0.193611
C40   C     C_R   0.654172 0.153957 0.324654 0.167830
C41   C     C_R   0.109559 0.333005 0.692929 -0.455674
C42   C     C_R   0.114862 0.664053 0.184387 -0.439976
C43   C     C_R   0.615785 0.837110 0.682381 -0.466507
C44   C     C_R   0.613425 0.166502 0.188075 -0.432209
C45   C     C_R   0.121932 0.283573 0.585598 0.221909
C46   C     C_R   0.125022 0.715018 0.080096 0.157808
C47   C     C_R   0.624549 0.784947 0.581509 0.209608
C48   C     C_R   0.624783 0.216506 0.080660 0.160621
C49   C     C_R   0.166483 0.234909 0.630939 -0.149787
C50   C     C_R   0.167678 0.764645 0.128300 -0.182896
C51   C     C_R   0.665638 0.734087 0.633195 -0.105245
C52   C     C_R   0.673682 0.261859 0.120229 -0.174765
C53   C     C_R   0.205454 0.240024 0.774051 0.000575
C54   C     C_R   0.205705 0.759928 0.274053 0.021486
C55   C     C_R   0.706036 0.740110 0.774262 0.013787
C56   C     C_R   0.710458 0.257352 0.268025 0.020854
C57   C     C_R   0.201191 0.296712 0.867824 -0.103651
C58   C     C_R   0.199994 0.704288 0.372506 0.013971
C59   C     C_R   0.702954 0.797408 0.866128 -0.013844
C60   C     C_R   0.703684 0.202194 0.367831 0.014610
H37   H     H_    0.070820 0.366635 0.662113 0.184204
H38   H     H_    0.077914 0.629389 0.151034 0.189753
H39   H     H_    0.579152 0.872366 0.647810 0.189972
H40   H     H_    0.574179 0.133717 0.158630 0.188372
C61   C     C_R   0.797318 0.696621 0.949925 0.038939
C62   C     C_R   0.796678 0.303671 0.452748 0.016944
C63   C     C_R   0.295886 0.196517 0.950866 -0.021407
C64   C     C_R   0.294016 0.805247 0.455306 0.010302
C65   C     C_R   0.790067 0.750647 0.047958 0.024183
C66   C     C_R   0.787227 0.251372 0.555836 -0.038908
C67   C     C_R   0.287881 0.250647 0.048839 0.094962
C68   C     C_R   0.282937 0.754167 0.561076 -0.010242
C69   C     C_R   0.848511 0.650536 0.990019 0.247390
C70   C     C_R   0.846953 0.350061 0.493840 0.246196
C71   C     C_R   0.346685 0.150212 0.992209 0.248679
C72   C     C_R   0.346265 0.850011 0.493694 0.249563
C73   C     C_R   0.888341 0.660392 0.128393 -0.452750
C74   C     C_R   0.885214 0.340687 0.635394 -0.530473
C75   C     C_R   0.384771 0.159646 0.133361 -0.474058
C76   C     C_R   0.385082 0.839686 0.634210 -0.531794
C77   C     C_R   0.874899 0.709179 0.234621 0.091243
C78   C     C_R   0.870360 0.293252 0.745285 0.208914
C79   C     C_R   0.370188 0.207952 0.240541 0.085057
C80   C     C_R   0.369297 0.793168 0.746089 0.170461
C81   C     C_R   0.825538 0.752965 0.196896 -0.269167
C82   C     C_R   0.819314 0.251038 0.709787 -0.185211
C83   C     C_R   0.320685 0.252319 0.201311 -0.119461
C84   C     C_R   0.316098 0.752950 0.714010 -0.162245
C85   C     C_R   0.754079 0.691970 0.815355 -0.117554
C86   C     C_R   0.756145 0.306646 0.313129 -0.147680
C87   C     C_R   0.253795 0.192207 0.814502 -0.134270
C88   C     C_R   0.253624 0.807917 0.314867 -0.144888
H41   H     H_    0.926875 0.626666 0.160570 0.161105
H42   H     H_    0.924417 0.373476 0.665684 0.172859
H43   H     H_    0.423677 0.126325 0.165614 0.167452
H44   H     H_    0.425399 0.871431 0.662673 0.171374
H45   H     H_    0.759073 0.650896 0.740596 0.147285
H46   H     H_    0.759605 0.348819 0.240879 0.149570
H47   H     H_    0.259241 0.151315 0.739301 0.152060
H48   H     H_    0.261057 0.847125 0.234839 0.151870
H49   H     H_    0.963413 0.231164 0.496685 0.095296
H50   H     H_    0.969314 0.764874 0.997656 0.075638
H51   H     H_    0.463774 0.732713 0.471044 0.087631
H52   H     H_    0.463849 0.275051 0.975933 0.090014
C89   C     C_2   0.686330 0.461980 0.791729 0.829799
H53   H     H_    0.676741 0.456563 0.917126 0.090667
O49   O     O_2   0.647885 0.491947 0.704513 -0.592203
C90   C     C_2   0.688975 0.544691 0.286342 0.826184
H54   H     H_    0.677944 0.545491 0.411463 0.039083
O50   O     O_2   0.650050 0.520838 0.189691 -0.583335
C91   C     C_2   0.187336 0.956719 0.795085 0.835614
H55   H     H_    0.180248 0.955155 0.922192 0.034191
O51   O     O_2   0.144508 0.979400 0.705670 -0.587047
C92   C     C_2   0.186793 0.043476 0.289140 0.804446
H56   H     H_    0.178747 0.046648 0.415575 0.029319
O52   O     O_2   0.145198 0.018975 0.200498 -0.601169
C93   C     C_2   0.184555 0.577893 0.921003 0.620331
H57   H     H_    0.210763 0.619653 0.960803 -0.015214
O53   O     O_2   0.125131 0.577896 0.920063 -0.530308
C94   C     C_2   0.172566 0.424403 0.457621 0.677617
H58   H     H_    0.193050 0.391071 0.544228 -0.085402
O54   O     O_2   0.114351 0.423622 0.423566 -0.522308
C95   C     C_2   0.679703 0.079755 0.922113 0.610945
H59   H     H_    0.703731 0.124135 0.946846 -0.007979
O55   O     O_2   0.620612 0.076739 0.929738 -0.523306
C96   C     C_2   0.687912 0.922956 0.411785 0.681577
H60   H     H_    0.713249 0.878722 0.428874 0.072320
O56   O     O_2   0.628610 0.923868 0.417392 -0.551955
C97   C     C_2   0.321496 0.531805 0.056436 0.857233
H61   H     H_    0.362244 0.501208 0.093131 0.095826
O57   O     O_2   0.299551 0.569500 0.150770 -0.594585
C98   C     C_2   0.338722 0.493373 0.463628 0.803270
H62   H     H_    0.335831 0.513842 0.580250 0.041219
O58   O     O_2   0.387562 0.502153 0.388505 -0.584442
C99   C     C_2   0.814600 0.046432 0.073712 0.780864
H63   H     H_    0.853810 0.017664 0.127800 0.036143
O59   O     O_2   0.791362 0.090016 0.148617 -0.629218
C100  C     C_2   0.820339 0.955129 0.578175 0.544181
H64   H     H_    0.863140 0.977279 0.634994 0.052862
O60   O     O_2   0.793011 0.911926 0.645512 -0.651243
H65   H     H_    0.309669 0.571823 0.825628 0.214074
H66   H     H_    0.292703 0.408557 0.490555 0.139759
H67   H     H_    0.809332 0.071044 0.827792 0.215934
H68   H     H_    0.822846 0.942053 0.332315 0.180044
H69   H     H_    0.318835 0.488372 0.830116 0.150602
H70   H     H_    0.299663 0.430724 0.287422 0.251109
H71   H     H_    0.817854 0.989503 0.872724 0.177398
H72   H     H_    0.822924 0.020718 0.390084 0.229507
C101  C     C_2   0.926762 0.134419 0.289921 0.771196
H73   H     H_    0.883998 0.165256 0.284937 0.098223
O61   O     O_2   0.940477 0.104540 0.171401 -0.560759
C102  C     C_2   0.918459 0.851411 0.774063 0.742959
H74   H     H_    0.925486 0.878684 0.666355 0.000601
O62   O     O_2   0.876843 0.810029 0.772554 -0.552757
C103  C     C_2   0.427657 0.635984 0.271846 0.903076
H75   H     H_    0.386190 0.668463 0.268491 0.073417
O63   O     O_2   0.437394 0.603396 0.155259 -0.584410
C104  C     C_2   0.425094 0.368154 0.753680 0.653333
H76   H     H_    0.427165 0.401938 0.655805 0.002073
O64   O     O_2   0.383446 0.326798 0.746629 -0.573406
C105  C     C_2   0.171093 0.177595 0.530683 0.487147
H77   H     H_    0.168314 0.130992 0.585227 -0.010016
O65   O     O_2   0.179207 0.182031 0.388087 -0.574619
C106  C     C_2   0.169888 0.823401 0.031017 0.451895
H78   H     H_    0.169497 0.869232 0.089305 0.018604
O66   O     O_2   0.172511 0.821269 0.886323 -0.603579
C107  C     C_2   0.666003 0.674022 0.541320 0.491092
H79   H     H_    0.665806 0.628769 0.603487 0.002277
O67   O     O_2   0.667379 0.674393 0.396305 -0.564274
C108  C     C_2   0.690374 0.311686 0.003094 0.485538
H80   H     H_    0.741040 0.324637 0.988801 0.000956
O68   O     O_2   0.648230 0.339383 0.922657 -0.622513
C109  C     C_2   0.804014 0.792610 0.328051 0.741267
H81   H     H_    0.833708 0.831990 0.371164 -0.003576
O69   O     O_2   0.755925 0.777084 0.398375 -0.557968
C110  C     C_2   0.792060 0.213260 0.839866 0.502575
H82   H     H_    0.739822 0.211486 0.847390 -0.006313
O70   O     O_2   0.826676 0.182600 0.934112 -0.511389
C111  C     C_2   0.299978 0.296932 0.325367 0.608996
H83   H     H_    0.333607 0.312329 0.420361 0.078603
O71   O     O_2   0.243830 0.316022 0.325216 -0.596320
C112  C     C_2   0.289376 0.714687 0.844796 0.496585
H84   H     H_    0.237188 0.713028 0.855446 0.057799
O72   O     O_2   0.324478 0.683333 0.936776 -0.551938
C113  C     C_2   0.287088 0.364633 0.979330 0.574722
H85   H     H_    0.275896 0.396017 0.879934 0.007324
O73   O     O_2   0.334161 0.376234 0.068128 -0.686168
C114  C     C_2   0.267853 0.640534 0.564016 0.561383
H86   H     H_    0.242325 0.614330 0.650796 0.014898
O74   O     O_2   0.321244 0.623004 0.523178 -0.650879
C115  C     C_2   0.776491 0.865249 0.026150 0.457939
H87   H     H_    0.808324 0.887836 0.944490 0.071469
O75   O     O_2   0.762606 0.891731 0.146893 -0.670618
C116  C     C_2   0.767029 0.137382 0.569861 0.592710
H88   H     H_    0.738786 0.116103 0.659319 0.012372
O76   O     O_2   0.819630 0.114460 0.539331 -0.664751
C117  C     C_2   0.020265 0.079388 0.434076 0.690137
H89   H     H_    0.056897 0.081728 0.345063 0.087808
O77   O     O_2   0.020669 0.034926 0.528036 -0.587045
C118  C     C_2   0.003880 0.919545 0.898015 0.558647
H90   H     H_    0.038376 0.919592 0.803456 0.106039
O78   O     O_2   0.000249 0.965792 0.984606 -0.530882
C119  C     C_2   0.524728 0.582463 0.404995 0.782114
H91   H     H_    0.558332 0.585661 0.309225 0.077131
O79   O     O_2   0.529551 0.538458 0.500140 -0.563239
C120  C     C_2   0.523190 0.421773 0.866614 0.629008
H92   H     H_    0.554396 0.415551 0.766956 0.094382
O80   O     O_2   0.530056 0.468286 0.952141 -0.539099
H93   H     H_    0.050690 0.247366 0.012457 0.151946
H94   H     H_    0.025373 0.763630 0.323911 0.076417
H95   H     H_    0.524230 0.741469 0.816955 0.032579
H96   H     H_    0.551664 0.255269 0.477060 0.152819
H97   H     H_    0.022269 0.121155 0.839731 0.272564
H98   H     H_    0.009575 0.897020 0.465658 0.257233
H99   H     H_    0.514425 0.602751 0.926423 0.304276
H100  H     H_    0.509844 0.380077 0.308112 0.275501
H101  H     H_    0.849273 0.465010 0.721375 0.112357
H102  H     H_    0.853280 0.538199 0.232057 0.112106
H103  H     H_    0.351267 0.963465 0.726581 0.117850
H104  H     H_    0.351022 0.036300 0.225378 0.112413

loop_
_geom_bond_atom_site_label_1
_geom_bond_atom_site_label_2
_geom_bond_distance
_ccdc_geom_bond_type
C19   H15   1.103038 S    
C30   H50   1.114315 S    
P6    O26   1.538819 D    
O22   P13   1.746037 S    
C15   C19   1.533291 S    
C22   C94   1.482548 S    
P12   C79   1.845826 S    
P2    O2    1.543036 D    
C117  H89   1.082040 S    
C25   H69   1.105506 S    
P5    O46   1.598097 S    
O40   C15   1.397309 S    
C82   C110  1.478052 S    
C62   C70   1.451924 A    
O27   Ba3   2.901219 S    
C50   C54   1.420799 A    
Ba2   O46   2.851064 S    
C87   H47   1.077507 S    
C23   C95   1.486693 S    
C107  H79   1.084241 S    
C85   H45   1.077265 S    
O11   P16   1.730094 S    
C6    C10   1.521747 S    
C108  H80   1.083750 S    
C9    H97   1.110768 S    
C38   C42   1.401208 A    
C42   C46   1.403547 A    
O19   C23   1.377397 S    
C48   C52   1.414824 A    
C3    C119  1.505246 S    
C10   H6    1.110839 S    
C100  O60   1.219544 D    
C112  O72   1.219010 D    
C1    C101  1.504286 S    
P4    O8    1.593693 S    
C52   C108  1.485506 S    
C37   C41   1.405427 A    
C28   C100  1.490102 S    
O30   Ba2   2.849665 S    
C32   H52   1.113855 S    
C21   H21   1.103923 S    
P8    C71   1.905625 S    
C39   C59   1.468884 A    
O32   Ba4   2.849665 S    
C120  O80   1.220919 D    
C15   H103  1.111099 S    
C63   C87   1.402522 A    
C18   H14   1.102131 S    
Ba3   O48   2.986026 S    
C61   C85   1.405023 A    
C78   C82   1.396151 A    
P14   C45   1.870631 S    
C91   H55   1.082357 S    
C14   H10   1.109332 S    
C95   H59   1.074138 S    
C6    H94   1.114006 S    
C34   C58   1.417958 A    
C96   O56   1.215046 D    
C70   C74   1.403836 A    
C43   H39   1.081078 S    
O13   P14   1.545453 D    
C106  O66   1.217717 D    
O15   P16   1.546861 D    
P6    O38   1.739975 S    
P8    O28   1.538819 D    
C116  H88   1.065605 S    
P9    O29   1.714514 S    
O2    Ba2   2.897230 S    
P11   O31   1.717812 S    
C62   C66   1.416391 A    
P12   O32   1.720763 S    
C73   C77   1.396733 A    
C53   C87   1.435910 A    
C103  O63   1.219708 D    
C12   H36   1.110452 S    
C17   C89   1.502453 S    
P4    C40   1.955260 S    
C104  O64   1.220160 D    
O41   C5    1.404808 S    
O43   C7    1.399549 S    
P4    Ba4   3.476215 S    
O44   C8    1.405683 S    
C114  O74   1.214643 D    
O37   C14   1.399350 S    
C16   C20   1.532929 S    
P2    O18   1.768439 S    
C33   C57   1.410313 A    
O39   C16   1.397653 S    
C63   C67   1.420701 A    
C4    C120  1.500268 S    
C7    H95   1.113725 S    
O9    Ba1   2.851339 S    
C27   C99   1.493878 S    
P3    O7    1.585023 S    
C5    H1    1.107711 S    
C90   H54   1.083132 S    
C10   H34   1.110668 S    
C13   H101  1.110776 S    
P6    C69   1.895111 S    
C23   H23   1.096573 S    
C119  O79   1.220778 D    
O21   C29   1.405675 S    
P9    O41   1.753089 S    
C72   C76   1.405506 A    
C25   C97   1.494983 S    
P11   O35   1.543242 D    
O5    Ba2   2.833723 S    
P12   O44   1.750845 S    
C73   H41   1.082088 S    
Ba1   Ba2   4.658791 S    
C115  O75   1.202268 D    
C8    H4    1.111023 S    
C33   C67   1.432767 A    
C101  H73   1.085438 S    
O31   Ba3   2.864097 S    
C98   H62   1.074084 S    
P4    O4    1.543036 D    
O8    Ba3   2.850988 S    
C45   C49   1.407017 A    
C11   H99   1.108479 S    
C17   H17   1.108163 S    
C12   H100  1.110903 S    
C1    H29   1.108559 S    
C76   H44   1.082138 S    
C102  O62   1.220096 D    
P7    O27   1.542086 D    
C97   H61   1.083074 S    
P5    Ba1   3.479029 S    
O38   C13   1.399723 S    
C118  O78   1.220895 D    
C25   H65   1.100771 S    
C109  H81   1.083259 S    
C63   C71   1.450279 A    
C61   C69   1.450759 A    
O10   Ba2   2.865778 S    
C6    H2    1.107932 S    
C51   C55   1.417589 A    
C2    C30   1.530709 S    
C52   C56   1.422203 A    
C110  H82   1.073109 S    
C10   H98   1.110176 S    
C84   C112  1.483582 S    
C24   C28   1.554990 S    
O12   Ba4   2.865778 S    
C54   C88   1.441694 A    
O3    Ba3   2.889739 S    
O6    Ba1   2.850988 S    
C43   C47   1.404620 A    
C29   H25   1.106827 S    
C93   H57   1.077809 S    
C31   H27   1.104476 S    
O10   P13   1.733642 S    
C89   H53   1.083832 S    
C99   O59   1.220552 D    
C105  O65   1.217683 D    
P11   C80   1.852384 S    
C95   O55   1.214153 D    
O1    Ba1   2.889739 S    
C47   C51   1.412120 A    
P2    C38   1.949484 S    
C2    C102  1.497237 S    
C88   H48   1.077310 S    
C107  O67   1.217388 D    
P15   C48   1.887371 S    
C55   C85   1.437683 A    
P16   C47   1.872676 S    
C44   C48   1.409546 A    
O24   C32   1.404537 S    
C77   C81   1.388260 A    
C104  H76   1.086153 S    
C36   C60   1.419720 A    
C80   C84   1.398257 A    
C35   C59   1.410253 A    
O4    Ba4   2.897230 S    
O28   Ba4   2.893687 S    
C69   C73   1.403177 A    
C20   C92   1.502783 S    
O25   Ba1   2.901219 S    
P10   O30   1.708789 S    
P3    Ba3   3.474549 S    
C27   H67   1.099141 S    
C111  H83   1.079793 S    
C61   C65   1.417194 A    
Ba1   O46   2.986026 S    
C40   C60   1.471561 A    
C64   C68   1.416670 A    
C108  O68   1.214801 D    
O42   C6    1.399915 S    
C20   H20   1.105442 S    
C99   H63   1.083810 S    
Ba4   O48   2.851064 S    
C29   H49   1.114016 S    
C16   H12   1.110345 S    
C94   H58   1.077170 S    
C41   H37   1.081422 S    
O23   P16   1.744946 S    
C26   H70   1.095312 S    
P6    O45   1.589362 S    
P1    O17   1.745544 S    
Ba4   O47   2.985456 S    
P1    O1    1.539767 D    
C56   C60   1.439461 A    
C56   C86   1.439411 A    
C18   C90   1.502844 S    
P3    O3    1.539767 D    
O26   Ba2   2.893687 S    
Ba3   O47   2.833802 S    
P4    O20   1.746479 S    
C21   C25   1.544289 S    
C86   H46   1.077202 S    
C23   C27   1.543114 S    
C74   C78   1.399712 A    
C34   C114  1.444317 S    
P10   O42   1.745525 S    
C1    C29   1.524872 S    
C9    H5    1.109893 S    
C40   C44   1.408137 A    
C32   H28   1.109393 S    
C64   C72   1.453450 A    
C5    H93   1.109102 S    
C116  O76   1.214599 D    
C26   C98   1.489486 S    
O9    P14   1.724203 S    
C117  O77   1.220721 D    
C119  H91   1.082198 S    
P1    O5    1.585023 S    
C115  H87   1.076535 S    
C62   C86   1.403831 A    
C17   H13   1.103660 S    
Ba2   O45   2.985456 S    
C2    H30   1.112210 S    
C49   C105  1.478477 S    
P8    O40   1.740761 S    
C75   C79   1.399883 A    
P9    O33   1.545749 D    
C24   C96   1.490342 S    
P9    C78   1.846758 S    
C13   H9    1.110324 S    
P11   O43   1.746799 S    
C100  H64   1.084944 S    
P3    C39   1.952189 S    
P7    O48   1.598097 S    
P8    Ba4   3.477337 S    
C33   C113  1.470497 S    
O14   P13   1.546341 D    
C7    C11   1.522893 S    
C66   C82   1.420801 A    
C90   O50   1.220606 D    
C44   H40   1.081285 S    
C22   C26   1.559615 S    
C53   C57   1.436334 A    
C24   H24   1.100046 S    
C21   C93   1.486954 S    
C120  H92   1.081975 S    
C38   C58   1.474282 A    
C51   C107  1.483562 S    
C92   O52   1.220899 D    
P5    O25   1.542086 D    
C67   C83   1.416741 A    
P6    Ba2   3.477337 S    
C98   O58   1.218689 D    
C49   C53   1.414282 A    
C96   H60   1.069392 S    
P1    C37   1.953508 S    
C3    C31   1.525109 S    
C106  H78   1.083551 S    
C14   H102  1.111331 S    
C19   C91   1.504038 S    
C3    C103  1.502909 S    
O22   C30   1.404775 S    
O21   P14   1.744011 S    
O16   P15   1.545768 D    
C41   C45   1.408098 A    
C1    C117  1.505518 S    
C37   C57   1.467992 A    
C111  O71   1.213984 D    
C4    C32   1.536374 S    
P3    O19   1.743768 S    
C74   H42   1.082113 S    
C12   H8    1.108508 S    
C39   C43   1.402138 A    
C114  H86   1.067663 S    
C110  O70   1.217378 D    
C50   C106  1.480935 S    
C91   O51   1.220394 D    
C11   H35   1.109350 S    
C112  H84   1.075044 S    
C68   C84   1.422745 A    
C27   H71   1.098422 S    
C18   H18   1.107271 S    
C113  O73   1.215614 D    
C20   H16   1.101099 S    
C15   H11   1.109937 S    
C3    H31   1.109099 S    
P13   C46   1.876603 S    
C105  H77   1.083628 S    
C79   C83   1.400888 A    
O17   C21   1.386513 S    
C14   C18   1.532887 S    
C42   H38   1.080991 S    
C8    H96   1.111745 S    
P7    Ba3   3.479029 S    
C35   C115  1.444858 S    
C28   H72   1.099427 S    
C71   C75   1.401785 A    
P5    O37   1.739860 S    
C7    H3    1.108665 S    
P7    O39   1.740625 S    
O12   P15   1.737551 S    
P1    Ba1   3.474549 S    
C101  O61   1.220865 D    
O23   C31   1.402812 S    
C36   C116  1.451715 S    
P12   O36   1.546206 D    
C81   C109  1.465426 S    
C75   H43   1.082168 S    
C76   C80   1.402179 A    
C19   H19   1.105551 S    
O7    Ba4   2.833723 S    
O20   C24   1.377711 S    
C30   H26   1.108182 S    
Ba3   Ba4   4.658791 S    
C102  H74   1.083560 S    
C31   H51   1.114493 S    
C4    C104  1.506778 S    
C97   O57   1.220916 D    
C2    C118  1.503997 S    
C118  H90   1.084646 S    
C109  O69   1.214340 D    
C34   C68   1.429756 A    
C16   H104  1.110839 S    
C55   C59   1.436562 A    
C35   C65   1.426082 A    
Ba1   O45   2.833802 S    
C103  H75   1.085727 S    
P2    O6    1.593693 S    
C4    H32   1.105816 S    
C113  H85   1.077058 S    
C5    C9    1.521797 S    
P7    C72   1.905918 S    
C28   H68   1.094896 S    
C9    H33   1.109403 S    
P5    C70   1.902741 S    
O11   Ba3   2.851339 S    
O24   P15   1.750550 S    
C94   O54   1.210963 D    
P10   O34   1.543106 D    
P10   C77   1.845781 S    
O18   C22   1.387034 S    
C83   C111  1.479021 S    
C93   O53   1.214092 D    
O29   Ba1   2.864097 S    
C11   H7    1.110989 S    
C26   H66   1.107744 S    
C92   H56   1.082360 S    
C65   C81   1.416082 A    
C89   O49   1.220336 D    
C22   H22   1.100426 S    
C8    C12   1.520759 S    
C64   C88   1.407567 A    
C54   C58   1.438506 A    
C13   C17   1.535917 S    
P2    Ba2   3.476215 S    
C36   C66   1.431597 A    
C46   C50   1.412366 A    
P8    O47   1.589362 S    
