data_mof_unit_55755.cif
_audit_creation_date              2012-12-11T14:34:04-0500
_audit_creation_method            fapswitch 2.2
_symmetry_space_group_name_H-M    P1
_symmetry_Int_Tables_number       1
_space_group_crystal_system       triclinic
_cell_length_a                    13.846296
_cell_length_b                    13.969507
_cell_length_c                    27.341223
_cell_angle_alpha                 89.909719
_cell_angle_beta                  89.979181
_cell_angle_gamma                 119.621624
_cell_volume                      4597.32932265

loop_
_atom_site_label
_atom_site_type_symbol
_atom_type_description
_atom_site_fract_x
_atom_site_fract_y
_atom_site_fract_z
_atom_type_partial_charge
C1    C     C_R   0.233925 0.787023 0.568816 0.533035
C2    C     C_R   0.212576 0.446650 0.568822 0.535062
C3    C     C_R   0.552516 0.765107 0.569102 0.532758
C4    C     C_3   0.651334 0.730891 0.790934 0.283089
C5    C     C_3   0.250368 0.944628 0.784791 0.276150
C6    C     C_3   0.059832 0.320144 0.786807 0.283143
C7    C     C_3   0.631178 0.718422 0.734920 -0.166800
C8    C     C_3   0.266067 0.930020 0.729774 -0.167733
C9    C     C_3   0.077547 0.354581 0.732109 -0.165807
C10   C     C_1   0.706477 0.862240 0.860282 0.049435
C11   C     C_1   0.115370 0.878203 0.853147 0.052679
C12   C     C_1   0.116251 0.234657 0.852680 0.050289
C13   C     C_1   0.627424 0.813605 0.659207 -0.065154
C14   C     C_1   0.177889 0.817360 0.656773 -0.064753
C15   C     C_1   0.179255 0.360824 0.656763 -0.065344
C16   C     C_1   0.600199 0.795570 0.616901 0.001942
C17   C     C_1   0.199531 0.805238 0.615458 0.002361
C18   C     C_1   0.193295 0.394497 0.615457 0.002565
C19   C     C_R   0.064964 0.150699 0.096146 0.602096
C20   C     C_R   0.775413 0.882786 0.087598 0.614634
C21   C     C_R   0.116541 0.893096 0.087907 0.627162
C22   C     C_R   0.069835 0.161097 0.943188 0.509549
C23   C     C_R   0.779729 0.887187 0.950754 0.547022
C24   C     C_R   0.091172 0.929216 0.943277 0.505022
C25   C     C_R   0.622207 0.897874 0.360842 0.378759
C26   C     C_R   0.094866 0.737005 0.363452 0.371237
C27   C     C_R   0.262313 0.351599 0.364980 0.370488
C28   C     C_R   0.644582 0.910756 0.310644 0.032663
C29   C     C_R   0.078910 0.748033 0.313590 0.030051
C30   C     C_R   0.238237 0.299995 0.319010 0.031608
C31   C     C_R   0.673971 0.925232 0.208517 0.018092
C32   C     C_R   0.058180 0.761745 0.211825 0.013658
C33   C     C_R   0.197327 0.219653 0.222217 0.016553
C34   C     C_R   0.232603 0.788492 0.431755 0.564500
C35   C     C_R   0.211742 0.444209 0.431495 0.565314
C36   C     C_R   0.555470 0.767232 0.431642 0.560711
C37   C     C_R   0.654700 0.001834 0.233452 -0.095878
C38   C     C_R   0.971345 0.678206 0.239046 -0.082861
C39   C     C_R   0.297198 0.244355 0.245685 -0.083295
C40   C     C_R   0.640425 0.994861 0.284118 -0.072253
C41   C     C_R   0.982177 0.670590 0.289448 -0.074522
C42   C     C_R   0.317732 0.284746 0.293521 -0.073511
C43   C     C_R   0.695332 0.934811 0.158057 0.365000
C44   C     C_R   0.047741 0.772148 0.161457 0.316519
C45   C     C_R   0.180090 0.189583 0.172624 0.312719
C46   C     C_R   0.718049 0.858805 0.134778 0.014544
C47   C     C_R   0.135677 0.857818 0.135402 0.014526
C48   C     C_R   0.082743 0.173457 0.148938 -0.000045
C49   C     C_R   0.649488 0.738610 0.361960 -0.133340
C50   C     C_R   0.271605 0.907906 0.360313 -0.136465
C51   C     C_R   0.076862 0.329567 0.368233 -0.139235
C52   C     C_R   0.668931 0.748420 0.311989 0.008641
C53   C     C_R   0.260488 0.916301 0.310476 0.006297
C54   C     C_R   0.052672 0.280704 0.322263 0.006709
C55   C     C_R   0.664213 0.833468 0.285935 -0.043256
C56   C     C_R   0.164658 0.834999 0.286687 -0.039536
C57   C     C_R   0.134610 0.268376 0.296878 -0.039887
C58   C     C_R   0.685002 0.669728 0.287167 0.370086
C59   C     C_R   0.347237 0.000570 0.283622 0.355396
C60   C     C_R   0.950327 0.250477 0.299978 0.378876
C61   C     C_R   0.693158 0.673490 0.236608 -0.033009
C62   C     C_R   0.340910 0.001558 0.233051 -0.040576
C63   C     C_R   0.932067 0.214716 0.251746 -0.036320
C64   C     C_R   0.689261 0.757868 0.210427 -0.044811
C65   C     C_R   0.245887 0.921711 0.208956 -0.040461
C66   C     C_R   0.014196 0.205849 0.225462 -0.042340
C67   C     C_3   0.567587 0.858795 0.737282 -0.191660
C68   C     C_3   0.133350 0.726594 0.738395 -0.191297
C69   C     C_3   0.274496 0.391167 0.736713 -0.191263
C70   C     C_R   0.676380 0.839307 0.234975 -0.072334
C71   C     C_R   0.156026 0.839522 0.235810 -0.068894
C72   C     C_R   0.114739 0.229548 0.248403 -0.060551
C73   C     C_R   0.702871 0.764348 0.160187 0.334844
C74   C     C_R   0.237533 0.925980 0.158578 0.354608
C75   C     C_R   0.999032 0.178314 0.176043 0.308027
C76   C     C_R   0.617058 0.806805 0.385693 -0.018630
C77   C     C_R   0.194807 0.813729 0.385992 -0.014937
C78   C     C_R   0.183132 0.371200 0.388605 -0.016229
C79   C     C_3   0.769447 0.919082 0.722943 -0.247231
C80   C     C_3   0.062284 0.855048 0.714586 -0.247857
C81   C     C_3   0.119853 0.203003 0.713358 -0.246690
C82   C     C_3   0.789289 0.932369 0.778949 -0.277604
C83   C     C_3   0.044451 0.869322 0.769421 -0.280851
C84   C     C_3   0.104420 0.169802 0.767984 -0.284613
C85   C     C_1   0.734224 0.873144 0.902572 0.048044
C86   C     C_1   0.104067 0.899790 0.894607 0.045295
C87   C     C_1   0.097415 0.202196 0.894267 0.038877
C88   C     C_3   0.649020 0.827711 0.712139 -0.022996
C89   C     C_3   0.159708 0.831602 0.708496 -0.024087
C90   C     C_3   0.163275 0.327899 0.708356 -0.022020
C91   C     C_3   0.588156 0.872178 0.793403 0.220509
C92   C     C_3   0.115003 0.741996 0.793376 0.225103
C93   C     C_3   0.257526 0.357310 0.791566 0.222087
C94   C     C_3   0.683540 0.849411 0.807402 0.074950
C95   C     C_3   0.131065 0.858899 0.801657 0.076087
C96   C     C_3   0.134195 0.270184 0.801249 0.078483
Cr1   Cr    Cr6+3 0.164410 0.584450 0.499910 1.105990
Cr2   Cr    Cr6+3 0.415550 0.579960 0.499910 1.106097
Cr3   Cr    Cr6+3 0.420040 0.835590 0.499910 1.105842
Cr4   Cr    Cr6+3 0.155170 0.075460 0.019960 1.165583
Cr5   Cr    Cr6+3 0.924540 0.079710 0.019960 1.147434
Cr6   Cr    Cr6+3 0.920290 0.844830 0.019960 1.152348
H1    H     H_    0.625214 0.054890 0.302371 0.255214
H2    H     H_    0.915073 0.603638 0.309358 0.233620
H3    H     H_    0.397231 0.306889 0.309951 0.226489
H4    H     H_    0.648769 0.670640 0.381472 0.231873
H5    H     H_    0.346884 0.969534 0.377940 0.240198
H6    H     H_    0.014609 0.341700 0.386824 0.229002
H7    H     H_    0.813048 0.018015 0.789697 0.166852
H8    H     H_    0.959017 0.805708 0.780365 0.167399
H9    H     H_    0.159302 0.135703 0.777164 0.184303
O1    O     O_R   0.137150 0.468200 0.553200 -0.505771
O2    O     O_R   0.531800 0.668950 0.553200 -0.505595
O3    O     O_R   0.331050 0.862850 0.553200 -0.504654
O4    O     O_R   0.179100 0.982980 0.967000 -0.469294
O5    O     O_R   0.017020 0.196120 0.967000 -0.452850
O6    O     O_R   0.803880 0.820900 0.967000 -0.490911
O7    O     O_R   0.173970 0.688730 0.549930 -0.499044
O8    O     O_R   0.311270 0.485240 0.549930 -0.500608
O9    O     O_R   0.514760 0.826030 0.549930 -0.498653
O10   O     O_R   0.140110 0.470540 0.446010 -0.505619
O11   O     O_R   0.529460 0.669570 0.446010 -0.499294
O12   O     O_R   0.330430 0.859890 0.446010 -0.501547
O13   O     O_R   0.176710 0.690910 0.450560 -0.426202
O14   O     O_R   0.309090 0.485800 0.450560 -0.423771
O15   O     O_R   0.514200 0.823290 0.450560 -0.423281
O16   O     O_3   0.333333 0.666667 0.499990 -0.311453
O17   O     O_R   0.176750 0.985260 0.074180 -0.420520
O18   O     O_R   0.014740 0.191490 0.074180 -0.402796
O19   O     O_R   0.808510 0.823250 0.074180 -0.421223
O20   O     O_R   0.146100 0.172630 0.068980 -0.416428
O21   O     O_R   0.827370 0.973470 0.068980 -0.461739
O22   O     O_R   0.026530 0.853900 0.068980 -0.448014
O23   O     O_3   1.000000 1.000000 0.020040 -0.366720
O24   O     O_R   0.148270 0.170520 0.969620 -0.479943
O25   O     O_R   0.829480 0.977750 0.969620 -0.528053
O26   O     O_R   0.022250 0.851730 0.969620 -0.472984
H10   H     H_    0.611037 0.957645 0.804113 0.152479
H11   H     H_    0.029248 0.678933 0.804223 0.156734
H12   H     H_    0.311815 0.322176 0.801161 0.169744
H13   H     H_    0.480251 0.794179 0.729885 0.170347
H14   H     H_    0.202804 0.708516 0.734587 0.175622
H15   H     H_    0.307551 0.481509 0.733258 0.171394
F1    F     F_    0.491450 0.800796 0.818187 -0.587313
F2    F     F_    0.188450 0.725953 0.822036 -0.584612
F3    F     F_    0.288955 0.449421 0.820572 -0.599364
F4    F     F_    0.734436 0.707134 0.803224 -0.658739
F5    F     F_    0.271731 0.050960 0.793456 -0.679031
F6    F     F_    0.948783 0.244609 0.795093 -0.661561
F7    F     F_    0.697151 0.018666 0.132050 -0.546047
F8    F     F_    0.950522 0.703593 0.138561 -0.570680
F9    F     F_    0.259592 0.180602 0.147192 -0.577185
F10   F     F_    0.596765 0.968441 0.384229 -0.585818
F11   F     F_    0.017095 0.648679 0.388875 -0.596841
F12   F     F_    0.364398 0.388056 0.385046 -0.596290
H16   H     H_    0.651490 0.067760 0.213948 0.208115
H17   H     H_    0.895500 0.617856 0.221397 0.202672
H18   H     H_    0.361319 0.236250 0.226579 0.202768
F13   F     F_    0.710275 0.682255 0.136714 -0.558112
F14   F     F_    0.325829 0.003115 0.132604 -0.554367
F15   F     F_    0.904174 0.160879 0.153691 -0.573578
H19   H     H_    0.704175 0.610988 0.218142 0.212620
H20   H     H_    0.409758 0.066269 0.212955 0.213838
H21   H     H_    0.854806 0.197536 0.234579 0.202343
F16   F     F_    0.689269 0.587116 0.311580 -0.611272
F17   F     F_    0.439776 0.079862 0.306076 -0.621981
F18   F     F_    0.869957 0.260747 0.323932 -0.599602
H22   H     H_    0.578638 0.937189 0.721619 0.102808
H23   H     H_    0.057461 0.654400 0.723605 0.103337
H24   H     H_    0.337515 0.373110 0.720506 0.108221
H25   H     H_    0.829602 0.898080 0.705872 0.134200
H26   H     H_    0.080041 0.931106 0.694208 0.134792
H27   H     H_    0.039085 0.155791 0.693952 0.138414
H28   H     H_    0.784745 0.998598 0.706827 0.144002
H29   H     H_    0.984821 0.786014 0.699099 0.139858
H30   H     H_    0.179393 0.181224 0.696236 0.139660
H31   H     H_    0.859863 0.919315 0.788625 0.151106
H32   H     H_    0.050134 0.950204 0.775176 0.137272
H33   H     H_    0.017307 0.104493 0.774542 0.148778
H34   H     H_    0.544915 0.651189 0.727652 0.099593
H35   H     H_    0.338086 0.916092 0.725082 0.099560
H36   H     H_    0.107253 0.444414 0.729125 0.100613
H37   H     H_    0.688507 0.694089 0.717504 0.169538
H38   H     H_    0.285792 0.006679 0.709427 0.168688
H39   H     H_    0.997114 0.310909 0.712177 0.171618
H40   H     H_    0.574203 0.670205 0.810156 0.216479
H41   H     H_    0.312163 0.932992 0.806208 0.212990
H42   H     H_    0.081380 0.393752 0.809740 0.210001

loop_
_geom_bond_atom_site_label_1
_geom_bond_atom_site_label_2
_ccdc_geom_bond_type
C67   H22   S    
C8    H35   S    
C15   C18   T    
C43   C46   A    
C10   C85   T    
C19   O18   A    
C34   O12   A    
C82   C94   S    
C2    C18   S    
C33   C45   A    
C79   H28   S    
Cr1   O16   S    
C27   C78   A    
C6    C9    S    
C53   C59   A    
Cr4   O20   S    
Cr2   O8    S    
C54   C60   A    
Cr5   O23   S    
C25   C28   A    
C2    O1    A    
C67   C88   S    
C33   C39   A    
C31   C43   A    
C23   O25   A    
C60   C63   A    
C37   C40   A    
C9    H39   S    
C80   C83   S    
C34   C77   S    
Cr5   O25   S    
C28   C40   A    
C11   C86   T    
C4    H40   S    
C30   C57   A    
C6    H42   S    
Cr1   O7    S    
C82   H31   S    
Cr4   O24   S    
C84   C96   S    
C79   H25   S    
C80   C89   S    
C35   O14   A    
C58   F16   S    
Cr1   O10   S    
C9    H36   S    
C36   C76   S    
C33   C72   A    
Cr3   O9    S    
C6    F6    S    
Cr2   O14   S    
C66   C72   A    
C7    C88   S    
C51   H6    S    
C45   F9    S    
C64   C73   A    
C68   H14   S    
C32   C38   A    
C32   C71   A    
C83   H32   S    
C44   C47   A    
C14   C17   T    
C69   H24   S    
C8    H38   S    
C58   C61   A    
C22   O5    A    
C63   C66   A    
C5    F5    S    
C27   C30   A    
C19   O20   A    
C38   H17   S    
C48   C75   A    
Cr4   O4    S    
C20   O21   A    
C4    C7    S    
C21   O22   A    
C79   C88   S    
C5    C95   S    
C28   C55   A    
Cr4   O23   S    
C68   C89   S    
C39   C42   A    
C31   C70   A    
C27   F12   S    
C63   H21   S    
C83   H8    S    
C44   F8    S    
Cr3   O3    S    
C25   F10   S    
C61   H19   S    
C84   H9    S    
C81   H30   S    
Cr3   O15   S    
C35   O10   A    
C47   C74   A    
C38   C41   A    
C3    O2    A    
C7    H37   S    
Cr1   O1    S    
C19   C48   S    
Cr2   O2    S    
Cr3   O16   S    
C65   C71   A    
C4    F4    S    
C92   C95   S    
C65   C74   A    
C31   C37   A    
Cr6   O26   S    
C81   H27   S    
C9    C90   S    
C61   C64   A    
C36   O11   A    
C64   C70   A    
Cr6   O23   S    
C14   C89   S    
C5    C8    S    
C91   H10   S    
C68   H23   S    
C62   H20   S    
C49   C52   A    
C83   C95   S    
C67   C91   S    
C26   C77   A    
C32   C44   A    
C49   C76   A    
C93   F3    S    
C22   C87   S    
C21   O17   A    
C59   F17   S    
C82   H7    S    
Cr6   O6    S    
C52   C58   A    
C26   C29   A    
C4    C94   S    
C81   C90   S    
Cr2   O16   S    
C37   H16   S    
C93   C96   S    
C6    C96   S    
C39   H18   S    
C50   H5    S    
C26   F11   S    
C80   H26   S    
C1    O3    A    
C5    H41   S    
C69   C90   S    
C67   H13   S    
C50   C77   A    
C81   C84   S    
Cr3   O12   S    
C91   F1    S    
C45   C48   A    
C11   C95   S    
Cr2   O11   S    
C59   C62   A    
C34   O13   A    
C12   C87   T    
C29   C41   A    
C92   F2    S    
Cr4   O17   S    
C1    C17   S    
C36   O15   A    
Cr6   O19   S    
C80   H29   S    
C20   O19   A    
C60   F18   S    
C23   O6    A    
C79   C82   S    
C2    O8    A    
C52   C55   A    
C49   H4    S    
C29   C56   A    
Cr1   O13   S    
C24   O26   A    
C69   H15   S    
C73   F13   S    
C35   C78   S    
C69   C93   S    
C41   H2    S    
C74   F14   S    
C22   O24   A    
C75   F15   S    
C51   C54   A    
C25   C76   A    
C51   C78   A    
C93   H12   S    
C91   C94   S    
C15   C90   S    
C66   C75   A    
C13   C88   S    
C68   C92   S    
C7    H34   S    
C30   C42   A    
C1    O7    A    
C57   C72   A    
C42   H3    S    
C53   C56   A    
Cr6   O22   S    
C55   C70   A    
C3    O9    A    
C62   C65   A    
Cr5   O21   S    
C24   O4    A    
C23   C85   S    
C13   C16   T    
Cr5   O5    S    
C10   C94   S    
C84   H33   S    
C12   C96   S    
C8    C89   S    
C21   C47   S    
C92   H11   S    
C24   C86   S    
C46   C73   A    
C20   C46   S    
C3    C16   S    
C56   C71   A    
C43   F7    S    
C50   C53   A    
C40   H1    S    
C54   C57   A    
Cr5   O18   S    
