data_mof_unit_55695.cif
_audit_creation_date              2012-12-10T17:31:07-0500
_audit_creation_method            fapswitch 2.2
_symmetry_space_group_name_H-M    P1
_symmetry_Int_Tables_number       1
_space_group_crystal_system       triclinic
_cell_length_a                    12.007538
_cell_length_b                    12.893051
_cell_length_c                    15.4669
_cell_angle_alpha                 87.145846
_cell_angle_beta                  115.912897
_cell_angle_gamma                 93.435999
_cell_volume                      2149.131605

loop_
_atom_site_label
_atom_site_type_symbol
_atom_type_description
_atom_site_fract_x
_atom_site_fract_y
_atom_site_fract_z
_atom_type_partial_charge
C1    C     C_R   0.477651 0.299436 0.499271 0.890687
C2    C     C_R   0.662022 0.969670 0.527418 -0.208070
C3    C     C_R   0.349298 0.137544 0.477806 -0.191642
C4    C     C_R   0.650860 0.862418 0.522591 -0.193369
C5    C     C_R   0.568512 0.132035 0.516424 -0.268034
C6    C     C_R   0.431658 0.867941 0.484006 -0.267484
C7    C     C_R   0.558159 0.025569 0.511294 0.182052
C8    C     C_R   0.442043 0.974393 0.489225 0.181812
C9    C     C_R   0.996307 0.589040 0.400514 0.370961
C10   C     C_R   0.004078 0.411773 0.600086 0.358836
C11   C     C_R   0.119429 0.581310 0.412129 -0.120160
C12   C     C_R   0.522383 0.700560 0.500803 0.889753
C13   C     C_R   0.880780 0.419120 0.588189 -0.120991
C14   C     C_R   0.164810 0.463986 0.544659 -0.026697
C15   C     C_R   0.835326 0.536305 0.455556 -0.018580
C16   C     C_R   0.576845 0.496142 0.680542 0.903264
C17   C     C_R   0.423339 0.506148 0.319477 0.906675
C18   C     C_R   0.042751 0.468636 0.536799 -0.041134
C19   C     C_R   0.957484 0.531865 0.463571 -0.038137
C20   C     C_R   0.625591 0.510895 0.783591 -0.112924
C21   C     C_R   0.374874 0.515700 0.215225 -0.111643
C22   C     C_R   0.776739 0.590540 0.930337 0.447200
C23   C     C_R   0.628296 0.609872 0.094712 -0.238358
C24   C     C_R   0.208330 0.496248 0.054492 0.454827
C25   C     C_R   0.743990 0.555383 0.837244 -0.286776
C26   C     C_R   0.249547 0.495531 0.154641 -0.293822
C27   C     C_R   0.541795 0.497928 0.823115 -0.250813
C28   C     C_R   0.457934 0.543166 0.176793 -0.258522
C29   C     C_R   0.566262 0.541444 0.910464 0.022930
C30   C     C_R   0.420330 0.546263 0.077791 0.023886
C31   C     C_R   0.687248 0.583661 0.966916 0.101855
C32   C     C_R   0.294679 0.518964 0.016238 0.107426
C33   C     C_R   0.473129 0.542138 0.943168 0.094088
C34   C     C_R   0.346352 0.520947 0.881955 -0.235603
C35   C     C_R   0.507580 0.566809 0.039603 0.088487
C36   C     C_R   0.715672 0.619610 0.058203 -0.157473
C37   C     C_R   0.258510 0.511580 0.917786 -0.166876
C38   C     C_R   0.535849 0.811887 0.501708 -0.058714
C39   C     C_R   0.464276 0.188093 0.498588 -0.060031
C40   C     C_R   0.338178 0.030285 0.473099 -0.208198
H1    H     H_    0.806389 0.653958 0.102673 0.205629
H2    H     H_    0.311837 0.513863 0.805211 0.171975
H3    H     H_    0.342145 0.828960 0.466841 0.162975
H4    H     H_    0.658009 0.171028 0.533553 0.163339
H5    H     H_    0.731864 0.819239 0.536354 0.168670
H6    H     H_    0.268272 0.180717 0.463992 0.169562
H7    H     H_    0.248908 0.991266 0.456395 0.146264
H8    H     H_    0.751301 0.008684 0.544147 0.146464
H9    H     H_    0.768869 0.585116 0.400488 0.181046
H10   H     H_    0.231288 0.415224 0.599762 0.184969
H11   H     H_    0.955467 0.685176 0.291073 0.328807
H12   H     H_    0.162834 0.494065 0.868298 0.205221
H13   H     H_    0.045610 0.317149 0.710637 0.334864
H14   H     H_    0.941430 0.638402 0.946621 0.357834
H15   H     H_    0.039432 0.454875 0.032188 0.351303
H16   H     H_    0.850069 0.376384 0.636414 0.136013
H17   H     H_    0.150205 0.624173 0.363997 0.134987
H18   H     H_    0.554028 0.555988 0.226086 0.169819
H19   H     H_    0.455415 0.455519 0.782583 0.166600
H20   H     H_    0.185101 0.475309 0.185225 0.161219
H21   H     H_    0.808646 0.566321 0.805612 0.166654
H22   H     H_    0.656462 0.640381 0.165260 0.181480
N1    N     N_R   0.799120 0.480200 0.517090 -0.122981
N2    N     N_R   0.200880 0.519800 0.482910 -0.122858
O1    O     O_R   0.580150 0.341050 0.504560 -0.617749
O2    O     O_3   0.087186 0.350515 0.672713 -0.793126
O3    O     O_3   0.892655 0.635666 0.984514 -0.787824
O4    O     O_3   0.086297 0.470640 0.993533 -0.797219
O5    O     O_R   0.419850 0.658950 0.495440 -0.618486
O6    O     O_R   0.388090 0.353760 0.493600 -0.622087
O7    O     O_R   0.611910 0.646240 0.506400 -0.624332
O8    O     O_R   0.650890 0.490020 0.640860 -0.615900
O9    O     O_R   0.349110 0.509980 0.359140 -0.616122
O10   O     O_R   0.458830 0.502730 0.629890 -0.618462
O11   O     O_R   0.541170 0.497270 0.370110 -0.619442
O12   O     O_3   0.913570 0.651100 0.328476 -0.803692
Zn1   Zn    Zn3+2 0.628240 0.491510 0.507320 0.946755
Zn2   Zn    Zn3+2 0.371760 0.508490 0.492680 0.947144

loop_
_geom_bond_atom_site_label_1
_geom_bond_atom_site_label_2
_ccdc_geom_bond_type
C40   H7    S    
C12   O5    A    
O6    Zn2   S    
C34   C37   A    
C14   C18   A    
C2    C7    A    
C16   O8    A    
C21   C26   A    
H15   O4    S    
O5    Zn2   S    
C7    C8    A    
C15   C19   A    
C30   C35   A    
C16   O10   A    
C24   C26   A    
C27   C29   A    
C20   C25   A    
C29   C33   A    
C18   C19   A    
C5    H4    S    
C9    C19   A    
C23   H22   S    
C22   C25   A    
C34   H2    S    
C1    O1    A    
O9    Zn2   S    
C6    C38   A    
C9    O12   S    
C13   H16   S    
C3    C39   A    
C17   O9    A    
C36   H1    S    
C4    H5    S    
C10   O2    S    
O1    Zn1   S    
C22   C31   A    
H11   O12   S    
C11   N2    A    
C5    C7    A    
C37   H12   S    
C24   O4    S    
C6    C8    A    
H14   O3    S    
C2    H8    S    
C17   C21   S    
C2    C4    A    
C24   C32   A    
O8    Zn1   S    
C9    C11   A    
C13   N1    A    
C16   C20   S    
C14   N2    A    
C33   C34   A    
C25   H21   S    
C32   C37   A    
H13   O2    S    
O11   Zn1   S    
C12   O7    A    
C4    C38   A    
C3    C40   A    
C23   C35   A    
C6    H3    S    
C5    C39   A    
O7    Zn1   S    
N1    Zn1   S    
N2    Zn2   S    
C21   C28   A    
C10   C13   A    
C20   C27   A    
C28   H18   S    
C3    H6    S    
C1    O6    A    
C28   C30   A    
C29   C31   A    
C27   H19   S    
C30   C32   A    
C14   H10   S    
C10   C18   A    
C33   C35   A    
C15   H9    S    
C12   C38   S    
C22   O3    S    
C1    C39   S    
C23   C36   A    
O10   Zn2   S    
C17   O11   A    
C15   N1    A    
C31   C36   A    
C8    C40   A    
C11   H17   S    
C26   H20   S    
