data_mof_unit_31022.cif
_audit_creation_date              2012-12-11T14:51:47-0500
_audit_creation_method            fapswitch 2.2
_symmetry_space_group_name_H-M    P1
_symmetry_Int_Tables_number       1
_space_group_crystal_system       triclinic
_cell_length_a                    6.938361
_cell_length_b                    16.638654
_cell_length_c                    16.962609
_cell_angle_alpha                 101.362608
_cell_angle_beta                  90.349648
_cell_angle_gamma                 90.525761
_cell_volume                      1919.72312414

loop_
_atom_site_label
_atom_site_type_symbol
_atom_type_description
_atom_site_fract_x
_atom_site_fract_y
_atom_site_fract_z
_atom_type_partial_charge
O1    O     O_R   0.506340 0.439070 0.579550 -0.538513
O2    O     O_R   0.170010 0.404890 0.412100 -0.540712
O3    O     O_R   0.005010 0.560930 0.420450 -0.537938
C1    C     C_R   0.339028 0.381360 0.383363 0.685162
O4    O     O_R   0.176280 0.429360 0.578400 -0.543275
O5    O     O_R   0.011320 0.585570 0.587940 -0.540056
C2    C     C_R   0.343528 0.413808 0.605398 0.697714
O6    O     O_R   0.500030 0.414430 0.412060 -0.538515
O7    O     O_3   0.340950 0.551220 0.502940 -0.365147
V1    V     V_3+5 0.064020 0.490500 0.499460 1.409650
O8    O     O_R   0.681910 0.595110 0.587900 -0.537653
C3    C     C_R   0.852014 0.618322 0.616575 0.717433
O9    O     O_R   0.675640 0.570640 0.421600 -0.542065
C4    C     C_R   0.842607 0.586258 0.394651 0.702515
V2    V     V_3+5 0.564670 0.509500 0.500540 1.413707
O10   O     O_3   0.837610 0.448780 0.497060 -0.370007
C5    C     C_R   0.927200 0.861513 0.167459 -0.066703
C6    C     C_R   0.838423 0.639021 0.333071 -0.070040
C7    C     C_R   0.647844 0.695800 0.235355 -0.198847
C8    C     C_R   0.668589 0.640667 0.287126 -0.162859
C9    C     C_R   0.990004 0.693153 0.324493 -0.232944
C10   C     C_R   0.969145 0.749569 0.272739 0.157409
C11   C     C_R   0.796270 0.751219 0.228049 0.160510
C12   C     C_R   0.775497 0.807519 0.176190 -0.242128
C13   C     C_R   0.096897 0.860041 0.213532 -0.160255
C14   C     C_R   0.117534 0.805029 0.265444 -0.189572
H1    H     H_    0.644795 0.807295 0.140788 0.121339
H2    H     H_    0.216431 0.901045 0.208552 0.130917
H3    H     H_    0.514597 0.695557 0.201625 0.119650
H4    H     H_    0.250749 0.805328 0.299209 0.128434
H5    H     H_    0.549083 0.599618 0.292018 0.124699
H6    H     H_    0.120744 0.693319 0.359857 0.128409
C15   C     C_3   0.706654 0.779959 0.770451 -0.143644
C16   C     C_3   0.803261 0.777024 0.687517 -0.177718
H7    H     H_    0.738553 0.799201 0.635829 0.153472
H8    H     H_    0.560852 0.804054 0.787555 0.157748
C17   C     C_3   0.867422 0.688451 0.687193 -0.070750
C18   C     C_3   0.772540 0.691369 0.769120 0.203744
C19   C     C_3   0.962869 0.722957 0.812644 -0.198570
C20   C     C_3   0.059247 0.720069 0.729682 -0.170564
C21   C     C_3   0.993844 0.808817 0.730953 0.305251
C22   C     C_3   0.898629 0.811499 0.812871 -0.097625
H9    H     H_    0.027519 0.700762 0.864338 0.120954
H10   H     H_    0.204994 0.695975 0.712547 0.138220
C23   C     C_3   0.478119 0.234016 0.314741 -0.132456
C24   C     C_3   0.316066 0.180790 0.267637 0.202899
H11   H     H_    0.554839 0.220564 0.368220 0.110420
C25   C     C_3   0.410123 0.188870 0.187696 -0.018945
C26   C     C_3   0.572431 0.242379 0.233852 -0.153931
C27   C     C_3   0.450559 0.319920 0.232702 -0.135441
C28   C     C_3   0.287883 0.265713 0.185995 -0.171489
C29   C     C_3   0.192913 0.257420 0.266770 -0.123088
C30   C     C_3   0.355815 0.310753 0.312672 -0.044258
H12   H     H_    0.727823 0.236040 0.219401 0.111820
H13   H     H_    0.505515 0.378237 0.218421 0.104178
H14   H     H_    0.210673 0.278881 0.132520 0.108365
H15   H     H_    0.037526 0.263417 0.281349 0.106932
C31   C     C_R   0.427292 0.139048 0.832980 -0.056247
C32   C     C_R   0.339227 0.360987 0.666945 -0.067240
C33   C     C_R   0.149526 0.303328 0.764206 -0.197556
C34   C     C_R   0.170191 0.358496 0.712405 -0.160930
C35   C     C_R   0.490145 0.307738 0.676106 -0.237458
C36   C     C_R   0.469315 0.251284 0.727869 0.154763
C37   C     C_R   0.297184 0.248710 0.772009 0.160777
C38   C     C_R   0.276353 0.192268 0.823778 -0.226763
C39   C     C_R   0.596334 0.141530 0.787524 -0.136016
C40   C     C_R   0.616979 0.196669 0.735687 -0.191845
H16   H     H_    0.146141 0.191728 0.858684 0.118689
H17   H     H_    0.715277 0.101147 0.792830 0.145166
H18   H     H_    0.016917 0.302912 0.797568 0.118390
H19   H     H_    0.749589 0.197081 0.702325 0.130686
H20   H     H_    0.051255 0.398894 0.707129 0.125966
H21   H     H_    0.620339 0.308275 0.641188 0.123145
O11   O     O_R   0.266070 0.085680 0.087850 -0.539821
O12   O     O_R   0.590090 0.070660 0.921580 -0.547116
O13   O     O_R   0.754780 0.914400 0.912080 -0.540054
C41   C     C_R   0.422898 0.086247 0.894541 0.730454
O14   O     O_R   0.596110 0.095130 0.087880 -0.543854
O15   O     O_R   0.760850 0.939050 0.079570 -0.539625
C42   C     C_R   0.427078 0.118569 0.116680 0.681276
O16   O     O_R   0.260010 0.061030 0.920360 -0.528214
O17   O     O_3   0.425070 0.948840 0.997010 -0.368105
V3    V     V_3+5 0.702100 0.009490 0.000550 1.417016
O18   O     O_R   0.090200 0.929250 0.078500 -0.545952
C43   C     C_R   0.923204 0.913914 0.105589 0.687418
O19   O     O_R   0.084180 0.904770 0.912200 -0.527418
C44   C     C_R   0.914078 0.881617 0.883470 0.745941
V4    V     V_3+5 0.201420 0.990350 0.999580 1.437705
O20   O     O_3   0.928580 0.051150 0.002990 -0.371955
Br1   Br    Br    0.157199 0.893979 0.703305 -0.588067
C45   C     C_3   0.239617 0.101475 0.288092 -0.810697
H22   H     H_    0.183218 0.113689 0.350340 0.216832
H23   H     H_    0.121672 0.076128 0.245678 0.208401
H24   H     H_    0.357481 0.056172 0.283370 0.201840
C46   C     C_3   0.644929 0.624363 0.790891 -0.800145
H25   H     H_    0.596794 0.642899 0.854075 0.207650
H26   H     H_    0.516839 0.614339 0.750501 0.206628
H27   H     H_    0.727046 0.566508 0.784137 0.200491

loop_
_geom_bond_atom_site_label_1
_geom_bond_atom_site_label_2
_ccdc_geom_bond_type
C1    C30   S    
C6    C9    A    
C21   C22   S    
C4    C6    S    
O2    C1    A    
C7    C8    A    
C12   H1    S    
C1    O6    A    
C46   H27   S    
C23   C24   S    
C13   H2    S    
C35   C36   A    
C5    C43   S    
C15   C22   S    
C28   H14   S    
C17   C20   S    
O5    C3    A    
C18   C19   S    
O14   C42   A    
C39   H17   S    
V2    O10   S    
C16   C17   S    
C24   C29   S    
C15   H8    S    
C16   H7    S    
C3    C17   S    
C26   C27   S    
C31   C41   S    
O8    V2    S    
O14   V3    S    
C31   C39   A    
C25   C28   S    
C46   H25   S    
C18   C46   S    
C11   C12   A    
C35   H21   S    
O1    V2    S    
C23   C26   S    
O7    V1    S    
C40   H19   S    
C39   C40   A    
C23   C30   S    
O11   C42   A    
O9    C4    A    
C16   C21   S    
O13   V3    S    
C2    C32   S    
C27   C28   S    
C19   C22   S    
C24   C25   S    
C23   H11   S    
V3    O20   S    
C9    H6    S    
C36   C40   A    
C32   C34   A    
C5    C12   A    
O19   V4    S    
C28   C29   S    
C27   C30   S    
O18   C43   A    
C45   H22   S    
O4    C2    A    
O19   C44   A    
C19   H9    S    
C24   C45   S    
C13   C14   A    
O17   V3    S    
C33   C34   A    
C7    C11   A    
C17   C18   S    
C45   H23   S    
C31   C38   A    
C33   H18   S    
C38   H16   S    
C15   C16   S    
O12   C41   A    
O13   C44   A    
O3    C4    A    
C34   H20   S    
C20   C21   S    
C14   H4    S    
O6    V2    S    
O9    V2    S    
O2    V1    S    
O15   C43   A    
C29   C30   S    
C25   C26   S    
C32   C35   A    
O1    C2    A    
O18   V4    S    
O5    V1    S    
O8    C3    A    
C46   H26   S    
C27   H13   S    
C33   C37   A    
C5    C13   A    
C37   C38   A    
C25   C42   S    
O7    V2    S    
O4    V1    S    
O3    V1    S    
V1    O10   S    
C45   H24   S    
O15   V3    S    
O12   V3    S    
O17   V4    S    
C21   Br1   S    
C6    C8    A    
O16   V4    S    
C29   H15   S    
C36   C37   A    
C19   C20   S    
C20   H10   S    
V4    O20   S    
C41   O16   A    
C10   C14   A    
C10   C11   A    
C15   C18   S    
C22   C44   S    
O11   V4    S    
C9    C10   A    
C26   H12   S    
C8    H5    S    
C7    H3    S    
