data_mof_unit_26297.cif
_audit_creation_date              2012-12-10T16:46:50-0500
_audit_creation_method            fapswitch 2.2
_symmetry_space_group_name_H-M    P1
_symmetry_Int_Tables_number       1
_space_group_crystal_system       triclinic
_cell_length_a                    15.866422
_cell_length_b                    8.685284
_cell_length_c                    7.44938
_cell_angle_alpha                 103.028294
_cell_angle_beta                  94.060489
_cell_angle_gamma                 92.151229
_cell_volume                      996.109077554

loop_
_atom_site_label
_atom_site_type_symbol
_atom_type_description
_atom_site_fract_x
_atom_site_fract_y
_atom_site_fract_z
_atom_type_partial_charge
C1    C     C_R   0.497496 0.199712 0.453234 0.880365
C2    C     C_2   0.503733 0.968216 0.573046 -0.371399
C3    C     C_R   0.340385 0.500155 0.502632 0.822679
C4    C     C_R   0.502519 0.800289 0.546766 0.879897
C5    C     C_R   0.659616 0.500044 0.497417 0.823975
C6    C     C_3   0.053177 0.459115 0.680938 -0.376081
C7    C     C_3   0.043100 0.388300 0.334291 -0.453485
C8    C     C_3   0.945459 0.383800 0.330143 -0.375125
C9    C     C_1   0.748987 0.500579 0.492768 -0.182557
C10   C     C_3   0.083540 0.509232 0.508268 0.258376
C11   C     C_3   0.916852 0.311101 0.721872 -0.888045
C12   C     C_3   0.955316 0.464638 0.682049 -0.014383
C13   C     C_3   0.916566 0.740366 0.332477 -0.924740
C14   C     C_3   0.093630 0.811528 0.657009 -0.937210
C15   C     C_3   0.917104 0.505213 0.498678 0.283028
C16   C     C_3   0.953785 0.675075 0.495824 -0.019541
C17   C     C_3   0.052769 0.676773 0.499721 0.021357
C18   C     C_1   0.824549 0.502096 0.493533 -0.075931
C19   C     C_1   0.175711 0.505740 0.509454 -0.082445
C20   C     C_1   0.251100 0.502909 0.508091 -0.177574
C21   C     C_2   0.496300 0.031785 0.426954 -0.371139
Cu1   Cu    Cu3+1 0.509300 0.517380 0.684380 0.952161
Cu2   Cu    Cu3+1 0.490700 0.482620 0.315620 0.952378
H1    H     H_    0.083923 0.537116 0.809953 0.150652
H2    H     H_    0.920788 0.262318 0.329748 0.173848
H3    H     H_    0.918508 0.408740 0.198567 0.173898
H4    H     H_    0.073489 0.702871 0.369223 0.170817
H5    H     H_    0.934976 0.757335 0.622619 0.160522
H6    H     H_    0.945473 0.294706 0.856314 0.228299
H7    H     H_    0.847600 0.317355 0.732469 0.246186
H8    H     H_    0.929223 0.205716 0.613543 0.241643
H9    H     H_    0.846602 0.741947 0.330150 0.248768
H10   H     H_    0.941570 0.864277 0.347819 0.234077
H11   H     H_    0.934118 0.669990 0.197987 0.236468
H12   H     H_    0.941361 0.561877 0.800081 0.138910
H13   H     H_    0.075242 0.798228 0.793907 0.235598
H14   H     H_    0.163655 0.815164 0.657919 0.250603
H15   H     H_    0.072412 0.927095 0.635867 0.238065
H16   H     H_    0.489293 0.960123 0.286194 0.179823
H17   H     H_    0.510741 0.039877 0.713806 0.179851
H18   H     H_    0.434943 0.376809 0.948627 0.225927
H19   H     H_    0.565063 0.623182 0.051371 0.225953
H20   H     H_    0.073860 0.337827 0.680421 0.180569
H21   H     H_    0.063256 0.420564 0.206729 0.166455
H22   H     H_    0.065116 0.267894 0.333300 0.179329
N1    N     N_2   0.476670 0.456430 0.038530 -0.215374
N2    N     N_2   0.523330 0.543570 0.961470 -0.215296
O1    O     O_R   0.506050 0.286130 0.619770 -0.584546
O2    O     O_R   0.490330 0.256780 0.308370 -0.586422
O3    O     O_R   0.387300 0.514690 0.655770 -0.583265
O4    O     O_R   0.371580 0.485340 0.344370 -0.575868
O5    O     O_R   0.509670 0.743220 0.691630 -0.586459
O6    O     O_R   0.493950 0.713870 0.380230 -0.584539
O7    O     O_R   0.628420 0.514660 0.655630 -0.576137
O8    O     O_R   0.612700 0.485310 0.344230 -0.582920

loop_
_geom_bond_atom_site_label_1
_geom_bond_atom_site_label_2
_ccdc_geom_bond_type
C16   H5    S    
C15   C18   S    
C2    C4    S    
C11   C12   S    
C1    O1    A    
C13   H10   S    
C7    C8    S    
C4    O6    A    
C7    C10   S    
C8    H3    S    
C5    O7    A    
C13   H9    S    
Cu1   O1    S    
C19   C20   T    
C21   H16   S    
C12   C15   S    
C10   C19   S    
Cu1   O3    S    
C6    H1    S    
C2    C21   D    
Cu1   N2    S    
C11   H8    S    
Cu2   O8    S    
Cu1   O7    S    
Cu2   N1    S    
C7    H21   S    
C12   H12   S    
C1    C21   S    
C8    H2    S    
C14   C17   S    
C5    C9    S    
H18   N1    S    
C4    O5    A    
C7    H22   S    
H19   N2    S    
C3    O3    A    
Cu2   O6    S    
C8    C15   S    
C6    H20   S    
C6    C12   S    
Cu2   O2    S    
C14   H15   S    
C6    C10   S    
C10   C17   S    
C15   C16   S    
C17   H4    S    
C2    H17   S    
C9    C18   T    
C3    C20   S    
C11   H6    S    
Cu1   O5    S    
C13   C16   S    
C3    O4    A    
N1    N2    D    
C14   H13   S    
C13   H11   S    
Cu1   Cu2   S    
C1    O2    A    
C5    O8    A    
Cu2   O4    S    
C11   H7    S    
C16   C17   S    
C14   H14   S    
