data_mof_unit_13237.cif
_audit_creation_date              2012-10-26T20:22:08-0400
_audit_creation_method            fapswitch 2.2
_symmetry_space_group_name_H-M    P1
_symmetry_Int_Tables_number       1
_space_group_crystal_system       triclinic
_cell_length_a                    10.826409
_cell_length_b                    9.663849
_cell_length_c                    10.616329
_cell_angle_alpha                 89.90443
_cell_angle_beta                  93.67516
_cell_angle_gamma                 90.018949
_cell_volume                      1108.44531864

loop_
_atom_site_label
_atom_site_type_symbol
_atom_type_description
_atom_site_fract_x
_atom_site_fract_y
_atom_site_fract_z
_atom_type_partial_charge
C1    C     C_R   0.871547 0.500015 0.499284 0.022348
C2    C     C_3   0.392164 0.448382 0.034986 -0.114474
C3    C     C_3   0.405861 0.578083 0.951569 -0.116493
C4    C     C_3   0.594139 0.421917 0.048430 -0.116493
C5    C     C_3   0.500020 0.499104 0.877478 0.038406
C6    C     C_3   0.499980 0.500896 0.122522 0.038406
C7    C     C_R   0.420802 0.074081 0.418158 0.194343
C8    C     C_R   0.579197 0.925919 0.581842 0.194343
C9    C     C_R   0.579108 0.073979 0.581966 0.191343
C10   C     C_R   0.420892 0.926021 0.418034 0.191343
C11   C     C_R   0.063896 0.374325 0.501019 -0.116319
C12   C     C_R   0.128452 0.499985 0.500716 0.022348
C13   C     C_R   0.936104 0.625675 0.498980 -0.116320
C14   C     C_R   0.936072 0.374338 0.499791 -0.116624
C15   C     C_R   0.063928 0.625662 0.500209 -0.116625
C16   C     C_R   0.262512 0.499987 0.500356 0.557675
C17   C     C_R   0.737488 0.500013 0.499644 0.557675
C18   C     C_R   0.499942 0.500228 0.259626 0.565861
C19   C     C_R   0.500058 0.499772 0.740374 0.565861
C20   C     C_3   0.513700 0.630772 0.041339 -0.095654
C21   C     C_3   0.486300 0.369228 0.958661 -0.095655
C22   C     C_3   0.607836 0.551618 0.965014 -0.114474
Cu1   Cu    Cu3+1 0.500000 0.640660 0.500000 1.025819
Cu2   Cu    Cu3+1 0.500000 0.359340 0.500000 1.025819
H1    H     H_    0.328834 0.641961 0.908915 0.141704
H2    H     H_    0.111802 0.724055 0.500731 0.164382
H3    H     H_    0.671165 0.358038 0.091085 0.141704
H4    H     H_    0.525040 0.738047 0.077528 0.163028
H5    H     H_    0.474960 0.261953 0.922472 0.163028
H6    H     H_    0.696565 0.592985 0.933983 0.156742
H7    H     H_    0.303435 0.407015 0.066017 0.156742
H8    H     H_    0.111746 0.275933 0.502213 0.164560
H9    H     H_    0.888254 0.724067 0.497787 0.164560
H10   H     H_    0.888198 0.275945 0.499269 0.164382
I1    I     I_    0.293000 0.178012 0.286908 -0.320442
I2    I     I_    0.707000 0.821988 0.713091 -0.320442
I3    I     I_    0.705901 0.177971 0.714322 -0.313777
I4    I     I_    0.294099 0.822029 0.285678 -0.313776
N1    N     N_R   0.500000 0.852070 0.500000 -0.249771
N2    N     N_R   0.500000 0.147930 0.500000 -0.249771
O1    O     O_R   0.319640 0.618740 0.499990 -0.489628
O2    O     O_R   0.680360 0.381260 0.500010 -0.489628
O3    O     O_R   0.680360 0.618740 0.500010 -0.489363
O4    O     O_R   0.319640 0.381260 0.499990 -0.489363
O5    O     O_R   0.499970 0.618770 0.316850 -0.484389
O6    O     O_R   0.500030 0.381230 0.683150 -0.484390
O7    O     O_R   0.500030 0.618770 0.683150 -0.479276
O8    O     O_R   0.499970 0.381230 0.316850 -0.479276

loop_
_geom_bond_atom_site_label_1
_geom_bond_atom_site_label_2
_ccdc_geom_bond_type
C14   H10   S    
C7    C10   A    
C7    N2    A    
C17   O3    A    
C13   H9    S    
Cu1   O5    S    
C8    N1    A    
C4    C22   S    
C16   O4    A    
C1    C17   S    
Cu1   O1    S    
C12   C15   A    
C10   I4    S    
Cu2   O6    S    
C2    C21   S    
C9    I3    S    
C2    C3    S    
C8    C9    A    
C19   O6    A    
C5    C21   S    
C3    C20   S    
C22   H6    S    
Cu2   O2    S    
C4    C21   S    
C2    C6    S    
C7    I1    S    
C6    C20   S    
Cu1   N1    S    
Cu2   N2    S    
C20   C22   S    
C5    C19   S    
C13   C15   A    
Cu2   O4    S    
C11   C14   A    
C19   O7    A    
C6    C18   S    
Cu1   O7    S    
Cu1   Cu2   S    
Cu2   O8    S    
C18   O5    A    
C1    C13   A    
C3    H1    S    
C4    H3    S    
Cu1   O3    S    
C4    C6    S    
C8    I2    S    
C17   O2    A    
C10   N1    A    
C15   H2    S    
C1    C14   A    
C20   H4    S    
C3    C5    S    
C21   H5    S    
C16   O1    A    
C9    N2    A    
C5    C22   S    
C12   C16   S    
C11   C12   A    
C2    H7    S    
C11   H8    S    
C18   O8    A    
