data_mof_unit_39798.cif
_audit_creation_date              2012-12-10T17:48:39-0500
_audit_creation_method            fapswitch 2.2
_symmetry_space_group_name_H-M    P1
_symmetry_Int_Tables_number       1
_space_group_crystal_system       triclinic
_cell_length_a                    15.718784
_cell_length_b                    10.69089
_cell_length_c                    9.889005
_cell_angle_alpha                 88.393444
_cell_angle_beta                  89.083881
_cell_angle_gamma                 91.650013
_cell_volume                      1660.24880761

loop_
_atom_site_label
_atom_site_type_symbol
_atom_type_description
_atom_site_fract_x
_atom_site_fract_y
_atom_site_fract_z
_atom_type_partial_charge
C1    C     C_R   0.501139 0.259345 0.503132 0.865421
C2    C     C_3   0.947941 0.368379 0.609365 -0.111617
C3    C     C_3   0.916341 0.463315 0.495879 0.288138
C4    C     C_3   0.949425 0.594462 0.544391 -0.479713
C5    C     C_3   0.046794 0.599277 0.553592 -0.473770
C6    C     C_1   0.824775 0.471316 0.495285 -0.128768
C7    C     C_1   0.174103 0.486615 0.505388 -0.080094
C8    C     C_1   0.249434 0.494620 0.503689 -0.202311
C9    C     C_R   0.559708 0.107792 0.750397 -0.213696
C10   C     C_R   0.602210 0.038681 0.849852 0.158924
C11   C     C_R   0.632559 0.921520 0.818672 -0.196158
C12   C     C_R   0.338349 0.500351 0.501060 0.910911
C13   C     C_R   0.612151 0.868869 0.695927 -0.200516
C14   C     C_R   0.560244 0.932281 0.602540 0.106806
C15   C     C_R   0.542492 0.058279 0.621109 0.069315
C16   C     C_R   0.506181 0.125500 0.509917 -0.101830
C17   C     C_R   0.480509 0.064377 0.393648 -0.231078
C18   C     C_R   0.486356 0.937850 0.386904 -0.220857
C19   C     C_R   0.522578 0.871502 0.493069 -0.114246
C20   C     C_R   0.387346 0.336572 0.147158 -0.169700
C21   C     C_R   0.332968 0.255243 0.080217 -0.213379
C22   C     C_R   0.333606 0.254967 0.940367 -0.203061
C23   C     C_R   0.508447 0.739155 0.497824 0.875473
C24   C     C_R   0.388471 0.336227 0.866558 -0.176435
C25   C     C_R   0.444626 0.419665 0.931103 0.164804
C26   C     C_R   0.444289 0.419954 0.075837 0.169497
C27   C     C_R   0.553650 0.575896 0.067959 -0.127442
C28   C     C_R   0.553735 0.575618 0.924772 -0.107149
C29   C     C_R   0.661685 0.497691 0.498955 0.904127
C30   C     C_3   0.048610 0.364514 0.601639 -0.061925
C31   C     C_3   0.053504 0.459628 0.355960 -0.444676
C32   C     C_3   0.954862 0.434425 0.348821 0.264341
C33   C     C_1   0.749996 0.483738 0.496682 -0.219431
C34   C     C_3   0.082550 0.475356 0.504449 0.262178
H1    H     H_    0.070097 0.387807 0.705209 0.133235
H2    H     H_    0.934135 0.414957 0.706598 0.144203
H3    H     H_    0.928225 0.674277 0.482557 0.181619
H4    H     H_    0.452299 0.113729 0.309098 0.163910
H5    H     H_    0.668327 0.868065 0.891752 0.128383
H6    H     H_    0.635665 0.777016 0.675608 0.145846
H7    H     H_    0.459184 0.891495 0.300840 0.171724
H8    H     H_    0.597486 0.637802 0.118922 0.141121
H9    H     H_    0.382916 0.330216 0.254458 0.201477
H10   H     H_    0.290169 0.191827 0.137458 0.142833
H11   H     H_    0.291380 0.191246 0.888818 0.152164
H12   H     H_    0.385564 0.330246 0.759485 0.203575
H13   H     H_    0.597927 0.636822 0.868116 0.139264
H14   H     H_    0.073561 0.544794 0.295599 0.176170
H15   H     H_    0.090170 0.385247 0.307065 0.140853
H16   H     H_    0.065621 0.615059 0.660014 0.177340
H17   H     H_    0.922170 0.613693 0.646230 0.172397
N1    N     N_R   0.499210 0.498800 0.142780 -0.124138
N2    N     N_R   0.499180 0.498720 0.857170 -0.124207
O1    O     O_R   0.500000 0.316780 0.614690 -0.660431
O2    O     O_R   0.499990 0.316750 0.385360 -0.645713
O3    O     O_R   0.377150 0.500020 0.614720 -0.626148
O4    O     O_R   0.377140 0.499990 0.385380 -0.625314
O5    O     O_R   0.500010 0.683250 0.614640 -0.608653
O6    O     O_R   0.500000 0.683220 0.385310 -0.619009
O7    O     O_R   0.622860 0.500010 0.614620 -0.625343
O8    O     O_R   0.622850 0.499980 0.385280 -0.615856
Zn1   Zn    Zn3+2 0.500010 0.500020 0.653130 0.922764
Zn2   Zn    Zn3+2 0.499990 0.499980 0.346870 0.919822
C35   C     C_3   0.895472 0.242981 0.633093 -0.420084
C36   C     C_3   0.909237 0.183776 0.774623 -0.380925
C37   C     C_3   0.860906 0.058322 0.792279 -0.887772
H18   H     H_    0.791956 0.070509 0.775367 0.275153
H19   H     H_    0.885520 0.990317 0.719435 0.260228
H20   H     H_    0.869299 0.020112 0.896648 0.245942
H21   H     H_    0.977794 0.168931 0.791788 0.231555
H22   H     H_    0.886142 0.247578 0.853263 0.212830
H23   H     H_    0.826529 0.261731 0.627447 0.215122
H24   H     H_    0.907745 0.173322 0.555770 0.219212
H25   H     H_    0.535970 0.194868 0.783204 0.185826
C38   C     C_3   0.607826 0.085518 0.992227 -0.430506
C39   C     C_3   0.660974 0.207723 0.999800 -0.388122
C40   C     C_3   0.649682 0.265141 0.138183 -0.817824
H26   H     H_    0.581618 0.282236 0.157850 0.284455
H27   H     H_    0.672086 0.201066 0.219334 0.259856
H28   H     H_    0.685713 0.355849 0.141030 0.240270
H29   H     H_    0.729319 0.188659 0.982058 0.233901
H30   H     H_    0.641073 0.277174 0.921729 0.230913
H31   H     H_    0.541859 0.100374 0.029723 0.211239
H32   H     H_    0.635733 0.013934 0.060820 0.197862
C41   C     C_3   0.089413 0.236129 0.568978 -0.412838
C42   C     C_3   0.162735 0.203820 0.664022 -0.380906
C43   C     C_3   0.206774 0.085566 0.620520 -0.886877
H33   H     H_    0.160599 0.004880 0.621441 0.261642
H34   H     H_    0.234880 0.099607 0.517209 0.258716
H35   H     H_    0.258708 0.063626 0.691331 0.248631
H36   H     H_    0.210841 0.281734 0.664664 0.231589
H37   H     H_    0.137378 0.188688 0.768954 0.210958
H38   H     H_    0.043220 0.156621 0.577067 0.213766
H39   H     H_    0.114643 0.237206 0.463670 0.204170
C44   C     C_3   0.943494 0.293117 0.307915 -0.448995
C45   C     C_3   0.852463 0.239591 0.290308 -0.366623
C46   C     C_3   0.853388 0.099093 0.265149 -0.908370
H40   H     H_    0.890937 0.081104 0.171917 0.260751
H41   H     H_    0.881460 0.048022 0.352180 0.255687
H42   H     H_    0.787471 0.062010 0.251985 0.255750
H43   H     H_    0.811910 0.254395 0.380452 0.235338
H44   H     H_    0.823555 0.285069 0.201024 0.226228
H45   H     H_    0.976882 0.281568 0.209010 0.186822
H46   H     H_    0.977875 0.231319 0.377097 0.206353
C47   C     C_3   0.916275 0.512942 0.227313 -0.395047
C48   C     C_3   0.920810 0.657196 0.227634 -0.361459
C49   C     C_3   0.909035 0.713458 0.085581 -0.918277
H47   H     H_    0.962030 0.687195 0.017351 0.259562
H48   H     H_    0.847597 0.679939 0.043574 0.260086
H49   H     H_    0.908723 0.817158 0.089939 0.252642
H50   H     H_    0.867690 0.690803 0.291075 0.222297
H51   H     H_    0.982290 0.693703 0.265764 0.223487
H52   H     H_    0.948207 0.483505 0.132531 0.197036
H53   H     H_    0.847830 0.487245 0.217437 0.195941
H54   H     H_    0.073007 0.680141 0.491020 0.186840

loop_
_geom_bond_atom_site_label_1
_geom_bond_atom_site_label_2
_ccdc_geom_bond_type
O5    Zn1   S    
C23   O5    A    
C37   H19   S    
C43   H33   S    
C28   H13   S    
C45   H44   S    
C44   C45   S    
C1    O1    A    
C3    C6    S    
C46   H42   S    
C46   H40   S    
C7    C8    T    
C48   H51   S    
C40   H26   S    
C44   H46   S    
C23   O6    A    
C30   H1    S    
C47   H52   S    
C25   N2    A    
C42   H36   S    
C41   C42   S    
C38   H32   S    
C37   H20   S    
C48   C49   S    
C36   H21   S    
C29   C33   S    
O7    Zn1   S    
C18   C19   A    
C10   C38   S    
O8    Zn2   S    
C13   H6    S    
C41   H38   S    
C44   H45   S    
C16   C17   A    
O2    Zn2   S    
C35   H24   S    
C9    C10   A    
C32   C47   S    
C37   H18   S    
C21   C22   A    
C45   C46   S    
C49   H48   S    
C31   H15   S    
C46   H41   S    
C2    C35   S    
O4    Zn2   S    
C4    H3    S    
C48   H50   S    
C40   H27   S    
C29   O8    A    
C30   C34   S    
C4    H17   S    
C47   H53   S    
C45   H43   S    
C24   C25   A    
C18   H7    S    
C39   H30   S    
C42   C43   S    
O1    Zn1   S    
C25   C26   A    
C36   H22   S    
C19   C23   S    
C38   C39   S    
C26   N1    A    
C21   H10   S    
C41   H39   S    
C31   C32   S    
C29   O7    A    
C8    C12   S    
C5    C34   S    
C32   C44   S    
C17   C18   A    
C31   C34   S    
C1    C16   S    
C39   C40   S    
C30   C41   S    
C11   H5    S    
C12   O3    A    
C12   O4    A    
C31   H14   S    
C43   H34   S    
C7    C34   S    
C22   C24   A    
C5    H16   S    
C9    H25   S    
C49   H47   S    
C3    C4    S    
C20   H9    S    
C27   N1    A    
C40   H28   S    
C2    H2    S    
C14   C19   A    
C4    C5    S    
N1    Zn2   S    
C39   H29   S    
C28   N2    A    
C47   C48   S    
O6    Zn2   S    
C6    C33   T    
C2    C30   S    
C24   H12   S    
C35   C36   S    
C2    C3    S    
C1    O2    A    
C42   H37   S    
C11   C13   A    
C27   H8    S    
C38   H31   S    
C20   C26   A    
C49   H49   S    
O3    Zn1   S    
C17   H4    S    
C35   H23   S    
C9    C15   A    
C3    C32   S    
C10   C11   A    
C22   H11   S    
C20   C21   A    
N2    Zn1   S    
C36   C37   S    
C43   H35   S    
C27   C28   A    
C14   C15   A    
C13   C14   A    
C5    H54   S    
C15   C16   A    
