data_mof_unit_33172.cif
_audit_creation_date              2012-12-10T17:18:54-0500
_audit_creation_method            fapswitch 2.2
_symmetry_space_group_name_H-M    P1
_symmetry_Int_Tables_number       1
_space_group_crystal_system       triclinic
_cell_length_a                    9.607719
_cell_length_b                    10.754924
_cell_length_c                    13.427533
_cell_angle_alpha                 92.374178
_cell_angle_beta                  72.301209
_cell_angle_gamma                 89.805893
_cell_volume                      1320.47813745

loop_
_atom_site_label
_atom_site_type_symbol
_atom_type_description
_atom_site_fract_x
_atom_site_fract_y
_atom_site_fract_z
_atom_type_partial_charge
C1    C     C_R   0.499155 0.737300 0.501845 0.796264
C2    C     C_R   0.434136 0.472880 0.978887 0.080647
C3    C     C_R   0.473259 0.447862 0.869203 0.088611
C4    C     C_R   0.543018 0.460636 0.030015 0.071424
C5    C     C_R   0.683113 0.410624 0.973746 0.169293
C6    C     C_R   0.712479 0.370894 0.869324 -0.264417
C7    C     C_R   0.608608 0.387464 0.818184 -0.203508
C8    C     C_R   0.517647 0.498635 0.135186 -0.253379
C9    C     C_R   0.761362 0.432487 0.129042 -0.219450
C10   C     C_R   0.374404 0.482046 0.814396 -0.109666
C11   C     C_R   0.332584 0.880452 0.689229 -0.149100
C12   C     C_R   0.421717 0.492577 0.699722 0.757177
C13   C     C_R   0.252148 0.950460 0.777990 -0.158568
C14   C     C_R   0.249213 0.079835 0.777075 -0.141042
C15   C     C_R   0.328184 0.140034 0.687846 -0.178268
C16   C     C_R   0.411489 0.070996 0.597398 0.095079
C17   C     C_R   0.412474 0.939618 0.597777 0.092249
C18   C     C_R   0.497207 0.871378 0.507433 -0.095618
C19   C     C_R   0.584800 0.931403 0.420927 -0.195286
C20   C     C_R   0.585337 0.059827 0.421019 -0.206903
C21   C     C_R   0.497524 0.129386 0.507346 -0.076788
C22   C     C_R   0.915187 0.336054 0.360476 -0.125595
C23   C     C_R   0.499559 0.262846 0.501546 0.753489
C24   C     C_R   0.016196 0.255749 0.291675 -0.221998
C25   C     C_R   0.159444 0.254543 0.292013 -0.197246
C26   C     C_R   0.202542 0.333760 0.361034 -0.107761
C27   C     C_R   0.103576 0.418366 0.431970 0.111331
C28   C     C_R   0.954307 0.418936 0.431806 0.191130
C29   C     C_R   0.897652 0.577954 0.564400 -0.177986
C30   C     C_R   0.046910 0.578552 0.565933 0.560893
C31   C     C_R   0.578612 0.497560 0.299951 0.769169
C32   C     C_R   0.791500 0.398431 0.023274 -0.210866
C33   C     C_R   0.623029 0.480332 0.185782 -0.043940
C34   C     C_R   0.230188 0.516493 0.871002 -0.209755
C35   C     C_R   0.186535 0.526227 0.979441 -0.167000
C36   C     C_R   0.287280 0.507550 0.033139 -0.177965
Cu1   Cu    Cu3+1 0.359340 0.500010 0.500010 0.965979
Cu2   Cu    Cu3+1 0.640660 0.499990 0.499990 0.925875
H1    H     H_    0.844338 0.417671 0.166916 0.152674
H2    H     H_    0.332964 0.780194 0.693365 0.151989
H3    H     H_    0.191564 0.904098 0.847644 0.135692
H4    H     H_    0.186459 0.133851 0.846043 0.137483
H5    H     H_    0.324851 0.240570 0.690967 0.134539
H6    H     H_    0.652604 0.105320 0.352783 0.129121
H7    H     H_    0.816474 0.641193 0.614286 0.164014
H8    H     H_    0.808212 0.329423 0.353935 0.190723
H9    H     H_    0.982705 0.193861 0.237794 0.144908
H10   H     H_    0.238124 0.191593 0.238418 0.150504
H11   H     H_    0.314832 0.324244 0.354754 0.196190
H12   H     H_    0.816543 0.327082 0.826724 0.148011
H13   H     H_    0.898538 0.360026 0.980684 0.136784
H14   H     H_    0.415922 0.542832 0.180069 0.153728
H15   H     H_    0.151041 0.537865 0.831360 0.153771
H16   H     H_    0.245516 0.517348 0.117226 0.135094
H17   H     H_    0.074635 0.552103 0.022192 0.147480
H18   H     H_    0.634936 0.348468 0.739148 0.183210
H19   H     H_    0.651587 0.878369 0.352580 0.141955
N1    N     N_R   0.852480 0.498790 0.499000 -0.219122
N2    N     N_R   0.148360 0.498710 0.498970 -0.235273
O1    O     O_R   0.381190 0.680360 0.500010 -0.522169
O2    O     O_R   0.618760 0.680340 0.500000 -0.574951
O3    O     O_R   0.323240 0.499990 0.650990 -0.554997
O4    O     O_R   0.560820 0.499960 0.650980 -0.583268
O5    O     O_R   0.381240 0.319660 0.500000 -0.599815
O6    O     O_R   0.618810 0.319640 0.499990 -0.594812
O7    O     O_R   0.439180 0.500040 0.349020 -0.601727
O8    O     O_R   0.676760 0.500010 0.349010 -0.597213
O9    O     O_3   0.098395 0.664022 0.626886 -0.552933
C37   C     C_3   0.992806 0.707682 0.720635 0.013124
H20   H     H_    0.048413 0.718012 0.781740 0.162688
H21   H     H_    0.902728 0.641550 0.752098 0.123043
C38   C     C_3   0.935204 0.836745 0.707762 -0.804455
H22   H     H_    0.879854 0.835032 0.646395 0.238230
H23   H     H_    0.856314 0.871216 0.782932 0.209425
H24   H     H_    0.026822 0.902746 0.685120 0.269851

loop_
_geom_bond_atom_site_label_1
_geom_bond_atom_site_label_2
_ccdc_geom_bond_type
C31   O7    A    
C24   C25   A    
C16   C21   A    
C35   C36   A    
C4    C8    A    
C13   H3    S    
Cu1   O3    S    
C19   H19   S    
C31   O8    A    
C1    C18   S    
Cu1   Cu2   S    
C34   C35   A    
C3    C7    A    
C5    C6    A    
C15   C16   A    
C9    H1    S    
C18   C19   A    
C37   H21   S    
C9    C32   A    
Cu2   N1    S    
C19   C20   A    
C16   C17   A    
C31   C33   S    
C8    H14   S    
C14   H4    S    
Cu2   O2    S    
C22   C28   A    
C13   C14   A    
C30   N2    A    
C9    C33   A    
C37   H20   S    
C7    H18   S    
C38   H24   S    
C20   H6    S    
C35   H17   S    
Cu2   O8    S    
C38   H23   S    
C26   H11   S    
C12   O4    A    
C4    C5    A    
C25   C26   A    
C5    C32   A    
C6    H12   S    
C29   H7    S    
C37   C38   S    
C2    C4    A    
C32   H13   S    
C29   C30   A    
C12   O3    A    
Cu2   O6    S    
Cu1   O7    S    
C17   C18   A    
C26   C27   A    
C10   C34   A    
C29   N1    A    
C25   H10   S    
Cu1   N2    S    
C10   C12   S    
C23   O5    A    
C22   H8    S    
C21   C23   S    
C22   C24   A    
C1    O1    A    
Cu1   O5    S    
Cu2   O4    S    
C2    C36   A    
C11   C17   A    
C24   H9    S    
O9    C37   S    
C38   H22   S    
C1    O2    A    
C6    C7    A    
C28   N1    A    
C23   O6    A    
C2    C3    A    
C15   H5    S    
C3    C10   A    
C27   N2    A    
C11   C13   A    
C8    C33   A    
C11   H2    S    
Cu1   O1    S    
C36   H16   S    
C20   C21   A    
C34   H15   S    
C27   C28   A    
C14   C15   A    
C30   O9    S    
