data_mof_unit_13703.cif
_audit_creation_date              2012-12-10T17:58:19-0500
_audit_creation_method            fapswitch 2.2
_symmetry_space_group_name_H-M    P1
_symmetry_Int_Tables_number       1
_space_group_crystal_system       triclinic
_cell_length_a                    9.519429
_cell_length_b                    10.807895
_cell_length_c                    15.34051
_cell_angle_alpha                 90.13797
_cell_angle_beta                  73.522124
_cell_angle_gamma                 90.389061
_cell_volume                      1513.45094788

loop_
_atom_site_label
_atom_site_type_symbol
_atom_type_description
_atom_site_fract_x
_atom_site_fract_y
_atom_site_fract_z
_atom_type_partial_charge
C1    C     C_R   0.000842 0.262347 0.496715 0.880941
C2    C     C_R   0.999219 0.737716 0.503324 0.891805
C3    C     C_R   0.598716 0.575295 0.103845 0.156649
C4    C     C_R   0.445044 0.665325 0.917399 0.123168
C5    C     C_R   0.743659 0.549045 0.055955 -0.249830
C6    C     C_R   0.296830 0.679141 0.966096 -0.258461
C7    C     C_R   0.930125 0.059645 0.441712 0.385490
C8    C     C_R   0.071541 0.940645 0.557423 0.465249
C9    C     C_R   0.929509 0.931426 0.447602 -0.317661
C10   C     C_R   0.071576 0.068810 0.551744 -0.306437
C11   C     C_R   0.000090 0.871665 0.504047 -0.210785
C12   C     C_R   0.000581 0.128494 0.495590 -0.210732
C13   C     C_R   0.549341 0.419194 0.553361 0.041345
C14   C     C_R   0.450162 0.581878 0.447649 0.035555
C15   C     C_R   0.400617 0.419003 0.553161 -0.003788
C16   C     C_R   0.599180 0.581389 0.447167 0.005922
C17   C     C_R   0.917096 0.498928 0.672966 0.827117
C18   C     C_R   0.083042 0.504906 0.327193 0.834265
C19   C     C_R   0.871777 0.506711 0.772825 -0.034997
C20   C     C_R   0.130867 0.534817 0.229623 -0.034694
C21   C     C_R   0.931285 0.507273 0.916052 -0.179556
C22   C     C_R   0.092645 0.643343 0.100221 -0.194426
C23   C     C_R   0.974788 0.495188 0.821878 -0.195329
C24   C     C_R   0.038007 0.597190 0.188426 -0.179478
C25   C     C_R   0.725534 0.532123 0.819309 -0.216348
C26   C     C_R   0.278228 0.519722 0.181466 -0.215201
C27   C     C_R   0.683591 0.559968 0.912508 0.079548
C28   C     C_R   0.338494 0.579334 0.097918 0.081549
C29   C     C_R   0.786024 0.537753 0.961785 0.123599
C30   C     C_R   0.242153 0.632888 0.054060 0.124814
C31   C     C_R   0.539901 0.600208 0.959304 0.009612
C32   C     C_R   0.491318 0.581749 0.055046 0.014338
Cu1   Cu    Cu3+1 0.140660 0.500020 0.500000 1.000274
Cu2   Cu    Cu3+1 0.859340 0.499980 0.500000 1.005382
H1    H     H_    0.824602 0.537820 0.092488 0.151608
H2    H     H_    0.222961 0.726882 0.935385 0.151924
H3    H     H_    0.344488 0.459339 0.209148 0.157447
H4    H     H_    0.644302 0.524748 0.783067 0.146931
H5    H     H_    0.924537 0.612878 0.225148 0.142462
H6    H     H_    0.088389 0.474966 0.787690 0.155905
H7    H     H_    0.011557 0.493888 0.953034 0.150925
H8    H     H_    0.019086 0.690305 0.068990 0.147635
H9    H     H_    0.876583 0.877143 0.406301 0.195461
H10   H     H_    0.124438 0.123241 0.592984 0.198005
H11   H     H_    0.585357 0.354355 0.596038 0.119698
H12   H     H_    0.413190 0.648080 0.406463 0.130319
H13   H     H_    0.324554 0.354085 0.595740 0.119363
H14   H     H_    0.675081 0.646552 0.404719 0.113146
N1    N     N_R   0.352080 0.500030 0.499980 -0.159356
N2    N     N_R   0.647920 0.499970 0.500020 -0.154275
O1    O     O_R   0.118740 0.319660 0.500000 -0.594445
O2    O     O_R   0.881260 0.680340 0.500000 -0.600818
O3    O     O_R   0.881170 0.319630 0.500010 -0.529903
O4    O     O_R   0.118830 0.680370 0.499990 -0.529358
O5    O     O_R   0.055570 0.500030 0.629830 -0.567578
O6    O     O_R   0.944430 0.499970 0.370170 -0.554452
O7    O     O_R   0.818000 0.500000 0.629840 -0.601850
O8    O     O_R   0.182000 0.500000 0.370160 -0.600269
C33   C     C_3   0.572745 0.621285 0.201267 -0.417867
C34   C     C_3   0.519479 0.755119 0.211903 -0.765766
H15   H     H_    0.593676 0.814695 0.159471 0.267604
H16   H     H_    0.406476 0.761599 0.205688 0.255710
H17   H     H_    0.519129 0.790576 0.279942 0.239475
H18   H     H_    0.498097 0.561635 0.252125 0.200530
H19   H     H_    0.676259 0.619631 0.221014 0.193602
C35   C     C_3   0.498679 0.741865 0.830433 -0.389086
C36   C     C_3   0.616161 0.836324 0.836041 -0.726498
H20   H     H_    0.576175 0.894756 0.897689 0.249060
H21   H     H_    0.718932 0.790274 0.837929 0.267287
H22   H     H_    0.641621 0.897106 0.775208 0.248913
H23   H     H_    0.536328 0.685169 0.768441 0.202727
H24   H     H_    0.406737 0.795759 0.818489 0.226578
S1    S     S_3+6 0.849297 0.128715 0.362885 0.026048
O9    O     O_2   0.949013 0.228017 0.310432 -0.269268
O10   O     O_2   0.823323 0.034004 0.297087 -0.293751
O11   O     O_3   0.688199 0.192283 0.418874 -0.499646
H25   H     H_    0.631203 0.124148 0.455933 0.337902
S2    S     S_3+6 0.153444 0.872128 0.635867 -0.013173
O12   O     O_2   0.294873 0.811914 0.585005 -0.294796
O13   O     O_2   0.184608 0.968484 0.698906 -0.318423
O14   O     O_3   0.039307 0.765098 0.697629 -0.560998
H26   H     H_    0.087810 0.736854 0.743174 0.366413

loop_
_geom_bond_atom_site_label_1
_geom_bond_atom_site_label_2
_ccdc_geom_bond_type
Cu1   O5    S    
C13   H11   S    
Cu2   O6    S    
Cu1   O8    S    
C27   C29   A    
S1    O9    D    
C10   H10   S    
C15   H13   S    
C16   H14   S    
O14   H26   S    
C14   H12   S    
C33   H18   S    
C34   H17   S    
C16   N2    A    
S2    O13   D    
C14   N1    A    
Cu1   N1    S    
C23   H6    S    
C24   H5    S    
C34   H16   S    
C1    O3    A    
C18   O8    A    
C35   H24   S    
C31   C32   A    
Cu2   O7    S    
C17   O5    A    
C18   C20   S    
C18   O6    A    
C35   C36   S    
C33   C34   S    
C8    S2    S    
S1    O10   D    
C1    C12   S    
C2    C11   S    
C10   C12   A    
C5    C29   A    
C7    C12   A    
Cu2   N2    S    
C9    H9    S    
C27   C31   A    
C36   H20   S    
C20   C24   A    
C28   C32   A    
O11   H25   S    
C4    C6    A    
C2    O4    A    
S2    O12   D    
C21   C29   A    
C34   H15   S    
C36   H21   S    
C19   C23   A    
C25   H4    S    
C1    O1    A    
C35   H23   S    
C7    S1    S    
Cu1   Cu2   S    
C9    C11   A    
C2    O2    A    
C21   H7    S    
C6    C30   A    
C13   C15   A    
S1    O11   S    
C14   C16   A    
C25   C27   A    
Cu1   O4    S    
C7    C9    A    
C22   C30   A    
Cu2   O2    S    
C3    C5    A    
C26   H3    S    
Cu1   O1    S    
C26   C28   A    
C36   H22   S    
C21   C23   A    
C33   H19   S    
C4    C35   S    
S2    O14   S    
C22   H8    S    
C20   C26   A    
C8    C11   A    
C5    H1    S    
C28   C30   A    
C17   C19   S    
C6    H2    S    
C22   C24   A    
C15   N1    A    
C3    C32   A    
C19   C25   A    
C4    C31   A    
C13   N2    A    
Cu2   O3    S    
C8    C10   A    
C17   O7    A    
C3    C33   S    
