data_mof_unit_41805.cif
_audit_creation_date              2012-12-10T20:44:50-0500
_audit_creation_method            fapswitch 2.2
_symmetry_space_group_name_H-M    P1
_symmetry_Int_Tables_number       1
_space_group_crystal_system       triclinic
_cell_length_a                    9.920885
_cell_length_b                    10.740967
_cell_length_c                    16.572986
_cell_angle_alpha                 89.276878
_cell_angle_beta                  95.268744
_cell_angle_gamma                 89.973784
_cell_volume                      1758.41181002

loop_
_atom_site_label
_atom_site_type_symbol
_atom_type_description
_atom_site_fract_x
_atom_site_fract_y
_atom_site_fract_z
_atom_type_partial_charge
C1    C     C_R   0.498659 0.260109 0.496935 0.946856
C2    C     C_R   0.622063 0.449027 0.789141 -0.364188
C3    C     C_R   0.528000 0.618597 0.140543 -0.256880
C4    C     C_R   0.520453 0.613572 0.223258 -0.324517
C5    C     C_R   0.488009 0.515208 0.093023 0.179619
C6    C     C_R   0.469549 0.507649 0.259142 -0.158856
C7    C     C_R   0.414513 0.408985 0.211961 0.370149
C8    C     C_R   0.432098 0.410212 0.128333 0.396072
C9    C     C_R   0.604481 0.062866 0.464827 -0.011075
C10   C     C_R   0.490557 0.128898 0.483206 -0.262819
C11   C     C_R   0.365506 0.064775 0.485631 0.404370
C12   C     C_R   0.519006 0.501408 0.653383 0.940433
C13   C     C_R   0.367570 0.935633 0.492927 0.401560
C14   C     C_R   0.491235 0.871695 0.486982 -0.273160
C15   C     C_R   0.602909 0.935987 0.463281 -0.052959
C16   C     C_3   0.749843 0.925924 0.491705 -0.502010
C17   C     C_3   0.751990 0.067752 0.494176 0.441218
C18   C     C_R   0.081355 0.519606 0.569662 0.042196
C19   C     C_R   0.061918 0.495631 0.428880 0.395893
C20   C     C_R   0.918086 0.504815 0.429014 0.458674
C21   C     C_R   0.939507 0.521151 0.569284 -0.140538
C22   C     C_3   0.943130 0.451500 0.648285 0.299954
C23   C     C_R   0.498889 0.739964 0.498837 0.922115
C24   C     C_3   0.097412 0.444644 0.646882 0.311553
C25   C     C_R   0.481377 0.500417 0.346482 0.927961
C26   C     C_R   0.536705 0.526372 0.738916 -0.206470
C27   C     C_R   0.484924 0.636936 0.768385 0.534097
C28   C     C_R   0.507354 0.661642 0.850868 -0.408826
C29   C     C_R   0.586462 0.580872 0.901849 0.142143
C30   C     C_R   0.650331 0.477391 0.870963 0.570296
H1    H     H_    0.893020 0.359691 0.641441 0.088666
N1    N     N_2   0.581306 0.591759 0.985393 -0.159746
N2    N     N_2   0.502186 0.512450 0.009278 -0.106472
N3    N     N_R   0.142860 0.499130 0.500540 -0.184406
N4    N     N_R   0.857210 0.499170 0.500530 -0.179657
O1    O     O_R   0.614690 0.316790 0.499990 -0.595988
O2    O     O_R   0.385350 0.316760 0.500000 -0.584996
O3    O     O_R   0.627460 0.498860 0.616130 -0.610852
O4    O     O_R   0.398120 0.498820 0.616130 -0.552045
O5    O     O_R   0.614650 0.683240 0.500000 -0.652050
O6    O     O_R   0.385310 0.683210 0.500010 -0.558099
O7    O     O_R   0.601880 0.501180 0.383870 -0.569445
O8    O     O_R   0.372540 0.501140 0.383870 -0.574670
Zn1   Zn    Zn3+2 0.653130 0.500020 0.499990 0.969322
Zn2   Zn    Zn3+2 0.346870 0.499980 0.500010 1.028724
H2    H     H_    0.555249 0.692283 0.259678 0.156847
O9    O     O_3   0.258243 0.876501 0.523440 -0.552417
C31   C     C_3   0.154426 0.855521 0.460980 -0.212025
H3    H     H_    0.104745 0.765932 0.473745 0.161762
H4    H     H_    0.190942 0.849139 0.399494 0.097648
H5    H     H_    0.075805 0.928800 0.461645 0.162389
H6    H     H_    0.767732 0.879502 0.552155 0.215658
H7    H     H_    0.810409 0.888310 0.444423 0.135155
O10   O     O_3   0.773627 0.112358 0.574129 -0.585877
C32   C     C_3   0.914088 0.113760 0.597389 -0.318575
H8    H     H_    0.965958 0.183603 0.560994 0.159853
H9    H     H_    0.960888 0.020375 0.592104 0.188191
H10   H     H_    0.930394 0.140253 0.662008 0.173259
H11   H     H_    0.813178 0.113811 0.449147 0.056215
O11   O     O_3   0.118394 0.463788 0.358553 -0.578830
C33   C     C_3   0.113883 0.564921 0.303040 -0.207690
H12   H     H_    0.131573 0.656314 0.332892 0.109407
H13   H     H_    0.018850 0.563720 0.262459 0.184069
H14   H     H_    0.195372 0.553297 0.262550 0.169728
O12   O     O_3   0.842044 0.524492 0.356362 -0.561234
C34   C     C_3   0.824547 0.654757 0.344490 -0.303184
H15   H     H_    0.916317 0.710376 0.363617 0.078135
H16   H     H_    0.740150 0.689716 0.377043 0.210722
H17   H     H_    0.799528 0.673769 0.278934 0.175178
O13   O     O_3   0.901087 0.515149 0.717020 -0.593939
C35   C     C_3   0.889031 0.645825 0.707088 -0.174013
H18   H     H_    0.806169 0.670826 0.659997 0.163270
H19   H     H_    0.985939 0.688774 0.692626 0.200931
H20   H     H_    0.862481 0.685609 0.765016 0.147287
O14   O     O_3   0.168757 0.512606 0.709534 -0.522278
C36   C     C_3   0.203801 0.432252 0.776093 -0.208148
H21   H     H_    0.280831 0.363081 0.761054 0.141654
H22   H     H_    0.113532 0.383972 0.796631 0.144134
H23   H     H_    0.249051 0.488342 0.827388 0.191777
H24   H     H_    0.568049 0.701982 0.114238 0.178120
H25   H     H_    0.137958 0.349673 0.636694 0.036718
O15   O     O_3   0.725263 0.397248 0.923700 -0.609931
C37   C     C_3   0.859506 0.391453 0.902271 -0.287146
H26   H     H_    0.903164 0.485916 0.894227 0.182135
H27   H     H_    0.865860 0.335422 0.846848 0.178146
H28   H     H_    0.922855 0.344125 0.952149 0.180816
H29   H     H_    0.664091 0.365804 0.764888 0.188401
O16   O     O_3   0.355625 0.309331 0.249945 -0.629581
C38   C     C_3   0.227662 0.279712 0.209743 -0.202543
H30   H     H_    0.237854 0.201079 0.167947 0.194190
H31   H     H_    0.176161 0.360056 0.176569 0.148231
H32   H     H_    0.159387 0.248045 0.254974 0.164488
H33   H     H_    0.457952 0.740303 0.876011 0.185116
O17   O     O_3   0.394903 0.309295 0.080347 -0.616499
C39   C     C_3   0.503070 0.223468 0.086214 -0.284092
H34   H     H_    0.524436 0.187016 0.149265 0.171975
H35   H     H_    0.596069 0.265339 0.064511 0.198741
H36   H     H_    0.474200 0.143181 0.046901 0.183417
O18   O     O_3   0.405786 0.716173 0.717361 -0.549030
C40   C     C_3   0.479163 0.826507 0.705889 -0.259735
H37   H     H_    0.573996 0.806797 0.677216 0.126832
H38   H     H_    0.502394 0.877212 0.763589 0.144640
H39   H     H_    0.416094 0.889499 0.664643 0.223230
O19   O     O_3   0.245185 0.125477 0.495827 -0.585115
C41   C     C_3   0.182208 0.158656 0.418612 -0.268265
H40   H     H_    0.239999 0.232235 0.389519 0.244327
H41   H     H_    0.080008 0.196297 0.426014 0.167061
H42   H     H_    0.169832 0.078006 0.377212 0.109139

loop_
_geom_bond_atom_site_label_1
_geom_bond_atom_site_label_2
_ccdc_geom_bond_type
C34   H16   S    
C32   H8    S    
C18   C21   A    
C39   H34   S    
C36   H23   S    
C24   H25   S    
C25   O8    A    
C39   H36   S    
C7    C8    A    
C4    H2    S    
C41   H41   S    
C27   O18   S    
C26   C27   A    
C18   C24   S    
C28   C29   A    
C36   H22   S    
C29   N1    S    
C6    C25   S    
C23   O5    A    
C33   H13   S    
C7    O16   S    
C16   H7    S    
C20   N4    A    
C31   H5    S    
O9    C31   S    
C16   C17   S    
C5    N2    S    
C11   O19   S    
C38   H31   S    
C9    C10   A    
C1    O2    A    
O4    Zn2   S    
C31   H4    S    
C34   H15   S    
C21   C22   S    
C33   H12   S    
O7    Zn1   S    
C3    H24   S    
O19   C41   S    
C41   H42   S    
C22   H1    S    
C20   O12   S    
C8    O17   S    
C36   H21   S    
C4    C6    A    
C35   H19   S    
C40   H39   S    
C12   C26   S    
C28   H33   S    
C14   C23   S    
C30   O15   S    
C33   H14   S    
O14   C36   S    
O3    Zn1   S    
C29   C30   A    
C35   H20   S    
O8    Zn2   S    
C37   H26   S    
C40   H38   S    
C2    H29   S    
C2    C26   A    
N3    Zn2   S    
C38   H32   S    
N4    Zn1   S    
C18   N3    A    
O13   C35   S    
C17   H11   S    
C9    C17   S    
C31   H3    S    
C37   H27   S    
O15   C37   S    
C32   H9    S    
C22   C24   S    
O1    Zn1   S    
O2    Zn2   S    
C3    C4    A    
C13   O9    S    
O10   C32   S    
C1    C10   S    
C16   H6    S    
C3    C5    A    
C19   N3    A    
C25   O7    A    
C5    C8    A    
C39   H35   S    
C24   O14   S    
C6    C7    A    
C21   N4    A    
C19   O11   S    
C41   H40   S    
C23   O6    A    
O18   C40   S    
C2    C30   A    
N1    N2    D    
C19   C20   A    
C9    C15   A    
C35   H18   S    
C11   C13   A    
C12   O4    A    
C40   H37   S    
C12   O3    A    
O17   C39   S    
C10   C11   A    
C34   H17   S    
O5    Zn1   S    
C37   H28   S    
O16   C38   S    
O12   C34   S    
C32   H10   S    
C27   C28   A    
O6    Zn2   S    
C14   C15   A    
O11   C33   S    
C38   H30   S    
C13   C14   A    
C17   O10   S    
C22   O13   S    
C15   C16   S    
C1    O1    A    
