data_mof_unit_59421.cif
_audit_creation_date              2012-12-10T18:33:43-0500
_audit_creation_method            fapswitch 2.2
_symmetry_space_group_name_H-M    P1
_symmetry_Int_Tables_number       1
_space_group_crystal_system       triclinic
_cell_length_a                    10.555518
_cell_length_b                    14.83676
_cell_length_c                    15.45458
_cell_angle_alpha                 80.562562
_cell_angle_beta                  90.390437
_cell_angle_gamma                 102.467475
_cell_volume                      2330.24928137

loop_
_atom_site_label
_atom_site_type_symbol
_atom_type_description
_atom_site_fract_x
_atom_site_fract_y
_atom_site_fract_z
_atom_type_partial_charge
C1    C     C_R   0.478334 0.440779 0.662061 0.909258
C2    C     C_R   0.522978 0.559440 0.337515 0.871528
C3    C     C_R   0.528359 0.457786 0.811580 -0.327785
C4    C     C_R   0.512122 0.535156 0.186065 -0.313339
C5    C     C_R   0.496935 0.440963 0.900465 0.041368
C6    C     C_R   0.552230 0.555812 0.098251 0.023410
C7    C     C_R   0.415329 0.354188 0.936770 -0.084752
C8    C     C_R   0.614356 0.649565 0.062393 -0.081596
C9    C     C_R   0.540997 0.509996 0.953658 0.028055
C10   C     C_R   0.522253 0.485270 0.044988 0.021739
C11   C     C_R   0.476752 0.389557 0.080663 -0.310216
C12   C     C_R   0.590510 0.604611 0.917370 -0.315025
C13   C     C_R   0.421787 0.324501 0.027945 0.527029
C14   C     C_R   0.622445 0.674391 0.969622 0.536439
C15   C     C_R   0.752056 0.851231 0.583562 0.119608
C16   C     C_R   0.300321 0.171418 0.352433 0.106659
C17   C     C_R   0.694538 0.757097 0.583674 -0.148155
C18   C     C_R   0.331286 0.254641 0.387966 -0.128283
C19   C     C_R   0.500711 0.795346 0.529275 0.693507
C20   C     C_R   0.499439 0.204722 0.472024 0.675155
C21   C     C_R   0.562452 0.890959 0.506222 -0.197584
C22   C     C_R   0.474821 0.119379 0.437860 -0.175738
C23   C     C_R   0.741101 0.497755 0.504750 0.886108
C24   C     C_R   0.258394 0.501396 0.497989 0.915148
C25   C     C_R   0.692141 0.919450 0.533697 -0.150648
C26   C     C_R   0.364173 0.097925 0.385870 -0.160815
C27   C     C_R   0.499997 0.958370 0.457444 -0.180690
C28   C     C_R   0.553878 0.053373 0.457730 -0.175532
C29   C     C_R   0.689441 0.079833 0.467353 0.527905
C30   C     C_R   0.393048 0.936045 0.402507 0.497926
C31   C     C_R   0.758838 0.013073 0.504043 0.387242
C32   C     C_R   0.325222 0.005268 0.366705 0.408956
C33   C     C_3   0.935798 0.411006 0.515909 0.578453
C34   C     C_3   0.063739 0.588027 0.491759 0.590327
C35   C     C_3   0.035157 0.453151 0.580269 -0.399381
C36   C     C_3   0.965179 0.546255 0.427333 -0.401202
C37   C     C_3   0.123558 0.501963 0.499661 -0.201834
C38   C     C_3   0.875899 0.496995 0.507352 -0.194185
C39   C     C_3   0.024727 0.459068 0.436281 0.090473
C40   C     C_3   0.974450 0.540126 0.571369 0.086649
C41   C     C_R   0.458205 0.403581 0.755390 -0.201606
C42   C     C_R   0.553555 0.596564 0.243956 -0.201931
C43   C     C_R   0.333002 0.301809 0.880315 0.055489
C44   C     C_R   0.659469 0.714426 0.121212 0.060846
C45   C     C_R   0.358351 0.326052 0.788086 0.506878
C46   C     C_R   0.632572 0.685447 0.212605 0.478799
H1    H     H_    0.070599 0.416971 0.641269 0.184378
H2    H     H_    0.935651 0.584058 0.365322 0.147472
H3    H     H_    0.283680 0.311471 0.366521 0.177615
H4    H     H_    0.745394 0.703171 0.608802 0.164220
H5    H     H_    0.444823 0.470288 0.210722 0.179533
H6    H     H_    0.606762 0.515025 0.784166 0.170787
H7    H     H_    0.484085 0.363086 0.149494 0.167747
H8    H     H_    0.598686 0.627870 0.847391 0.164886
N1    N     N_R   0.574200 0.731700 0.552740 -0.166502
N2    N     N_R   0.425800 0.268300 0.447260 -0.171365
O1    O     O_R   0.462600 0.383110 0.605620 -0.572958
O2    O     O_R   0.537400 0.616890 0.394380 -0.573942
O3    O     O_R   0.510210 0.531900 0.639510 -0.631166
O4    O     O_R   0.489790 0.468100 0.360490 -0.635883
O5    O     O_R   0.662240 0.425610 0.483080 -0.529923
O6    O     O_R   0.337760 0.574390 0.516920 -0.529571
O7    O     O_R   0.709860 0.574400 0.516970 -0.668957
O8    O     O_R   0.290140 0.425600 0.483030 -0.647019
Zn1   Zn    Zn3+2 0.468210 0.400660 0.477370 0.980474
Zn2   Zn    Zn3+2 0.531790 0.599340 0.522630 0.976482
O9    O     O_3   0.598603 0.226340 0.528976 -0.510712
C47   C     C_3   0.565154 0.174164 0.613785 -0.297031
H9    H     H_    0.477176 0.116118 0.617959 0.094791
H10   H     H_    0.551357 0.222588 0.658641 0.187566
H11   H     H_    0.647389 0.142500 0.638110 0.164766
O10   O     O_3   0.367733 0.765559 0.533648 -0.495136
C48   C     C_3   0.321489 0.787637 0.611365 -0.286482
H12   H     H_    0.346855 0.864236 0.612581 0.127388
H13   H     H_    0.358508 0.748690 0.670447 0.130822
H14   H     H_    0.214114 0.766615 0.614540 0.211896
C49   C     C_3   0.874885 0.873689 0.635264 -0.388680
C50   C     C_3   0.856311 0.824568 0.730879 -0.887261
H15   H     H_    0.773152 0.842934 0.762204 0.294265
H16   H     H_    0.839229 0.747406 0.735850 0.253819
H17   H     H_    0.945090 0.847878 0.767409 0.249534
H18   H     H_    0.955274 0.852032 0.603739 0.194467
H19   H     H_    0.904628 0.949066 0.638768 0.263231
C51   C     C_3   0.212846 0.165195 0.273430 -0.301965
C52   C     C_3   0.179788 0.256251 0.227865 -0.934685
H20   H     H_    0.111396 0.277568 0.269838 0.250451
H21   H     H_    0.268303 0.312590 0.212767 0.270738
H22   H     H_    0.131370 0.244862 0.165312 0.265952
H23   H     H_    0.263674 0.140029 0.222773 0.260222
H24   H     H_    0.119773 0.115025 0.292781 0.229271
O11   O     O_3   0.759159 0.167830 0.430484 -0.519744
C53   C     C_3   0.754946 0.178624 0.337862 -0.278209
H25   H     H_    0.732393 0.111474 0.311355 0.107208
H26   H     H_    0.851787 0.216736 0.310105 0.186375
H27   H     H_    0.682919 0.220875 0.314078 0.172033
O12   O     O_3   0.356045 0.848213 0.379040 -0.554444
C54   C     C_3   0.448990 0.836973 0.318684 -0.218275
H28   H     H_    0.542368 0.832240 0.350371 0.203239
H29   H     H_    0.466340 0.894675 0.261425 0.097199
H30   H     H_    0.411911 0.770562 0.293639 0.201531
O13   O     O_3   0.860792 0.318681 0.526394 -0.524404
C55   C     C_3   0.928787 0.257246 0.576456 -0.145346
H31   H     H_    0.934882 0.268965 0.645700 0.113441
H32   H     H_    0.027063 0.263218 0.547341 0.156721
H33   H     H_    0.874151 0.184489 0.578294 0.225270
O14   O     O_3   0.138780 0.680136 0.480801 -0.529375
C56   C     C_3   0.063340 0.744078 0.445145 -0.225085
H34   H     H_    0.963520 0.727287 0.474878 0.102668
H35   H     H_    0.059223 0.747397 0.372922 0.164677
H36   H     H_    0.110868 0.814666 0.458112 0.224714
C57   C     C_3   0.052320 0.412938 0.359346 -0.352379
C58   C     C_3   0.945938 0.414030 0.291829 -0.850061
H37   H     H_    0.848967 0.383076 0.323905 0.293610
H38   H     H_    0.947819 0.486826 0.259360 0.246984
H39   H     H_    0.961846 0.373646 0.240095 0.230866
H40   H     H_    0.146876 0.450834 0.327043 0.192579
H41   H     H_    0.057968 0.339722 0.385352 0.217987
C59   C     C_3   0.943543 0.585900 0.648285 -0.369093
C60   C     C_3   0.044038 0.582186 0.719478 -0.866323
H42   H     H_    0.143801 0.608131 0.690601 0.277377
H43   H     H_    0.028228 0.626449 0.768037 0.241331
H44   H     H_    0.034347 0.509209 0.754215 0.257009
H45   H     H_    0.941856 0.660067 0.623913 0.200158
H46   H     H_    0.846385 0.549381 0.677393 0.196132
O15   O     O_3   0.381861 0.231846 0.066824 -0.636429
C61   C     C_3   0.478883 0.183790 0.051509 -0.385656
H47   H     H_    0.572920 0.214726 0.079159 0.172023
H48   H     H_    0.491499 0.182534 0.980317 0.165607
H49   H     H_    0.448522 0.110195 0.085108 0.182654
O16   O     O_3   0.657218 0.766871 0.928757 -0.618210
C62   C     C_3   0.548844 0.794335 0.886845 -0.382824
H50   H     H_    0.459936 0.773052 0.930291 0.162625
H51   H     H_    0.530235 0.766449 0.824407 0.169559
H52   H     H_    0.570781 0.871809 0.869943 0.189090
O17   O     O_3   0.676262 0.747485 0.269647 -0.622785
C63   C     C_3   0.794149 0.730950 0.305226 -0.367913
H53   H     H_    0.841383 0.792402 0.335018 0.186545
H54   H     H_    0.863425 0.721494 0.255145 0.129029
H55   H     H_    0.775926 0.669155 0.357934 0.199340
O18   O     O_3   0.274730 0.285228 0.728899 -0.609697
C64   C     C_3   0.287472 0.192705 0.727169 -0.340433
H56   H     H_    0.369575 0.171554 0.765249 0.118595
H57   H     H_    0.301160 0.185167 0.657866 0.194343
H58   H     H_    0.195610 0.143291 0.751922 0.176876
C65   C     C_3   0.207617 0.232875 0.915427 -0.327217
C66   C     C_3   0.086516 0.267370 0.882161 -0.876284
H59   H     H_    0.093444 0.340444 0.893069 0.256255
H60   H     H_    0.072251 0.264058 0.811594 0.290663
H61   H     H_    0.999215 0.222217 0.918740 0.231520
H62   H     H_    0.205869 0.162836 0.898625 0.191259
H63   H     H_    0.197263 0.222866 0.987525 0.248336
C67   C     C_3   0.743854 0.811805 0.091365 -0.283850
C68   C     C_3   0.663709 0.886931 0.082095 -0.821658
H64   H     H_    0.578841 0.869332 0.040639 0.264451
H65   H     H_    0.628281 0.893755 0.147622 0.251574
H66   H     H_    0.724956 0.955363 0.051815 0.229357
H67   H     H_    0.820306 0.829069 0.139177 0.193605
H68   H     H_    0.801443 0.816346 0.030709 0.227746
O19   O     O_3   0.892453 0.040736 0.505861 -0.637148
C69   C     C_3   0.948269 0.009209 0.437054 -0.276706
H69   H     H_    0.918410 0.041005 0.372066 0.164903
H70   H     H_    0.923983 0.931610 0.443568 0.153699
H71   H     H_    0.055172 0.031124 0.440100 0.217021
O20   O     O_3   0.207216 0.977712 0.327992 -0.645211
C70   C     C_3   0.225060 0.953336 0.244946 -0.349747
H72   H     H_    0.214332 0.876545 0.250872 0.215118
H73   H     H_    0.318998 0.991183 0.211124 0.139845
H74   H     H_    0.146680 0.972033 0.202132 0.175570

loop_
_geom_bond_atom_site_label_1
_geom_bond_atom_site_label_2
_ccdc_geom_bond_type
C25   C31   A    
C40   C59   S    
C26   C32   A    
C61   H47   S    
C34   C37   S    
C56   H35   S    
C48   H12   S    
C20   O9    S    
C57   C58   S    
C20   N2    A    
C62   H52   S    
C35   H1    S    
C54   H30   S    
C58   H38   S    
C65   C66   S    
O17   C63   S    
C70   H72   S    
C49   C50   S    
C33   C39   S    
C34   C40   S    
C28   C29   A    
C35   C37   S    
C1    O3    A    
O3    Zn2   S    
C2    O4    A    
C15   C25   A    
O14   C56   S    
C49   H19   S    
N2    Zn1   S    
C16   C51   S    
C55   H33   S    
C42   C46   A    
C59   C60   S    
C30   O12   S    
C33   C35   S    
C46   O17   S    
O2    Zn2   S    
C3    C41   A    
C47   H9    S    
C8    C14   A    
C56   H34   S    
C36   H2    S    
C57   H40   S    
C7    C43   A    
C68   H65   S    
C9    C10   A    
C17   N1    A    
C34   C36   S    
C65   H62   S    
C11   H7    S    
C18   N2    A    
C13   O15   S    
C23   O7    A    
C21   C27   A    
O7    Zn2   S    
C24   O8    A    
C22   C28   A    
C27   C30   A    
C24   O6    A    
C48   H13   S    
C19   O10   S    
C51   H24   S    
C63   H55   S    
C58   H37   S    
C54   H29   S    
O13   C55   S    
C44   C46   A    
C54   H28   S    
C66   H60   S    
C60   H43   S    
C16   C26   A    
C37   C39   S    
C67   H68   S    
O6    Zn2   S    
C52   H21   S    
O9    C47   S    
C34   O14   S    
C69   H71   S    
O18   C64   S    
C4    C6    A    
C64   H58   S    
O11   C53   S    
C5    C7    A    
C50   H15   S    
O10   C48   S    
C6    C8    A    
C4    H5    S    
C61   H49   S    
C62   H51   S    
C52   H20   S    
C45   O18   S    
C69   H70   S    
C5    C9    A    
C43   C65   S    
C30   C32   A    
C1    O1    A    
C66   H61   S    
O19   C69   S    
C23   O5    A    
C60   H42   S    
O12   C54   S    
C53   H26   S    
C24   C37   S    
C16   C18   A    
C59   H46   S    
C51   C52   S    
C68   H66   S    
C55   H32   S    
C43   C45   A    
C65   H63   S    
C1    C41   S    
C12   C14   A    
O4    Zn1   S    
C70   H74   S    
O15   C61   S    
C48   H14   S    
C33   O13   S    
C51   H23   S    
C20   C22   A    
C62   H50   S    
C29   O11   S    
N1    Zn2   S    
C63   H54   S    
C66   H59   S    
C14   O16   S    
C52   H22   S    
C19   N1    A    
C15   C17   A    
C21   C25   A    
C67   H67   S    
O20   C70   S    
C61   H48   S    
C19   C21   A    
C60   H44   S    
C36   C39   S    
C8    C44   A    
O1    Zn1   S    
C63   H53   S    
C3    C5    A    
C17   H4    S    
C6    C10   A    
C3    H6    S    
C2    O2    A    
C23   C38   S    
C33   C38   S    
C44   C67   S    
C57   H41   S    
O8    Zn1   S    
C64   H57   S    
C35   C40   S    
C29   C31   A    
C64   H56   S    
C69   H69   S    
C38   C40   S    
C39   C57   S    
C11   C13   A    
C50   H17   S    
C15   C49   S    
C4    C42   A    
C49   H18   S    
C2    C42   S    
C47   H11   S    
C32   O20   S    
C36   C38   S    
C53   H25   S    
C56   H36   S    
O16   C62   S    
C50   H16   S    
C59   H45   S    
C53   H27   S    
C55   H31   S    
C9    C12   A    
C31   O19   S    
C10   C11   A    
O5    Zn1   S    
C7    C13   A    
C67   C68   S    
C70   H73   S    
C22   C26   A    
C27   C28   A    
C47   H10   S    
C41   C45   A    
C68   H64   S    
C58   H39   S    
C12   H8    S    
C18   H3    S    
