data_mof_unit_68535.cif
_audit_creation_date              2012-10-26T18:48:18-0400
_audit_creation_method            fapswitch 2.2
_symmetry_space_group_name_H-M    P1
_symmetry_Int_Tables_number       1
_space_group_crystal_system       triclinic
_cell_length_a                    10.634835
_cell_length_b                    8.74534
_cell_length_c                    7.498799
_cell_angle_alpha                 102.951786
_cell_angle_beta                  94.249291
_cell_angle_gamma                 94.028305
_cell_volume                      675.103770899

loop_
_atom_site_label
_atom_site_type_symbol
_atom_type_description
_atom_site_fract_x
_atom_site_fract_y
_atom_site_fract_z
_atom_type_partial_charge
C1    C     C_R   0.498996 0.200142 0.453262 0.538972
C2    C     C_3   0.121821 0.494406 0.502398 0.025515
C3    C     C_3   0.974411 0.588713 0.664798 0.017995
C4    C     C_3   0.023434 0.420300 0.337677 0.033283
C5    C     C_2   0.502635 0.032729 0.427306 -0.178569
C6    C     C_2   0.514579 0.968704 0.572371 -0.172923
C7    C     C_3   0.859202 0.205429 0.455023 -0.265552
C8    C     C_3   0.939170 0.067896 0.423489 -0.469518
C9    C     C_3   0.135215 0.810747 0.592685 -0.277965
C10   C     C_3   0.198502 0.862473 0.438541 -0.445043
C11   C     C_3   0.930602 0.684028 0.842121 -0.266673
C12   C     C_R   0.507707 0.800336 0.546609 0.538941
C13   C     C_3   0.038106 0.753368 0.987155 -0.459734
C14   C     C_3   0.055527 0.325476 0.151139 -0.263451
C15   C     C_3   0.937654 0.264895 0.018059 -0.444173
C16   C     C_R   0.259099 0.491556 0.500414 0.541221
C17   C     C_R   0.740453 0.513247 0.500486 0.533562
C18   C     C_3   0.038942 0.433914 0.637224 -0.127588
C19   C     C_3   0.959928 0.577235 0.367253 -0.124856
C20   C     C_3   0.940305 0.360568 0.472247 0.023418
C21   C     C_3   0.058772 0.649764 0.533024 0.022573
C22   C     C_3   0.877609 0.514910 0.500478 0.014817
Cu1   Cu    Cu3+1 0.514140 0.517380 0.684380 0.922114
Cu2   Cu    Cu3+1 0.485860 0.482620 0.315620 0.919354
H1    H     H_    0.076697 0.377350 0.745595 0.103339
H2    H     H_    0.813616 0.210191 0.584589 0.154787
H3    H     H_    0.783056 0.188657 0.341156 0.157465
H4    H     H_    0.256633 0.772022 0.367633 0.201924
H5    H     H_    0.127972 0.886740 0.337933 0.138041
H6    H     H_    0.257855 0.974309 0.496336 0.137681
H7    H     H_    0.072229 0.899670 0.653948 0.132019
H8    H     H_    0.210804 0.805022 0.700757 0.165358
H9    H     H_    0.097023 0.660823 0.017430 0.166418
H10   H     H_    0.097523 0.848184 0.950039 0.142260
H11   H     H_    0.992849 0.807870 0.109967 0.121461
H12   H     H_    0.919038 0.633048 0.260641 0.103573
H13   H     H_    0.876846 0.780728 0.810548 0.142340
H14   H     H_    0.866737 0.606230 0.900560 0.163574
H15   H     H_    0.873690 0.184320 0.071808 0.157293
H16   H     H_    0.885461 0.364517 0.992781 0.162134
H17   H     H_    0.965930 0.197651 0.885526 0.123980
H18   H     H_    0.118013 0.401941 0.088852 0.154471
H19   H     H_    0.108135 0.224652 0.171803 0.140846
H20   H     H_    0.398535 0.378733 0.949629 0.233605
H21   H     H_    0.601470 0.621265 0.050369 0.232798
H22   H     H_    0.491607 0.961164 0.287474 0.134301
H23   H     H_    0.525475 0.040230 0.712215 0.135070
H24   H     H_    0.971664 0.049793 0.284351 0.147971
H25   H     H_    0.022439 0.094355 0.526633 0.151979
H26   H     H_    0.883129 0.959302 0.435852 0.140459
N1    N     N_2   0.464560 0.456420 0.038510 -0.260925
N2    N     N_2   0.535440 0.543580 0.961490 -0.261575
O1    O     O_R   0.509190 0.286130 0.619780 -0.502340
O2    O     O_R   0.490810 0.713870 0.380220 -0.510192
O3    O     O_R   0.485310 0.256770 0.308360 -0.499242
O4    O     O_R   0.514690 0.743230 0.691640 -0.498969
O5    O     O_R   0.328790 0.514640 0.655680 -0.505621
O6    O     O_R   0.671210 0.485360 0.344320 -0.506619
O7    O     O_R   0.304910 0.485280 0.344260 -0.517811
O8    O     O_R   0.695090 0.514720 0.655740 -0.517571

loop_
_geom_bond_atom_site_label_1
_geom_bond_atom_site_label_2
_ccdc_geom_bond_type
Cu1   O5    S    
C11   H14   S    
C2    C4    S    
Cu1   Cu2   S    
C8    H24   S    
C13   H9    S    
C2    C18   S    
C2    C16   S    
C9    C10   S    
C10   H6    S    
C17   C22   S    
C9    H8    S    
C17   O6    A    
C14   H18   S    
C15   H15   S    
C2    C21   S    
C1    O3    A    
C7    C8    S    
C18   H1    S    
Cu2   O3    S    
C4    C14   S    
Cu1   O8    S    
C11   C13   S    
C10   H5    S    
C9    C21   S    
Cu1   N2    S    
C12   O4    A    
C7    H2    S    
Cu2   N1    S    
Cu2   O7    S    
C1    C5    S    
H20   N1    S    
C19   C21   S    
C20   C22   S    
Cu1   O1    S    
C18   C20   S    
C16   O5    A    
C6    C12   S    
C5    C6    D    
C15   H16   S    
C3    C21   S    
C3    C11   S    
C6    H23   S    
C9    H7    S    
C17   O8    A    
Cu2   O2    S    
N1    N2    D    
C4    C20   S    
C8    H26   S    
Cu1   O4    S    
C19   C22   S    
C7    H3    S    
C15   H17   S    
C3    C18   S    
Cu2   O6    S    
C7    C20   S    
C5    H22   S    
C10   H4    S    
C11   H13   S    
C1    O1    A    
C14   C15   S    
C3    C22   S    
C13   H10   S    
H21   N2    S    
C19   H12   S    
C4    C19   S    
C8    H25   S    
C13   H11   S    
C12   O2    A    
C14   H19   S    
C16   O7    A    
