data_mof_unit_43768.cif
_audit_creation_date              2012-12-11T17:34:19-0500
_audit_creation_method            fapswitch 2.2
_symmetry_space_group_name_H-M    P1
_symmetry_Int_Tables_number       1
_space_group_crystal_system       triclinic
_cell_length_a                    23.78162
_cell_length_b                    7.223189
_cell_length_c                    20.643505
_cell_angle_alpha                 90.0
_cell_angle_beta                  105.401865
_cell_angle_gamma                 90.000048
_cell_volume                      3418.77066918

loop_
_atom_site_label
_atom_site_type_symbol
_atom_type_description
_atom_site_fract_x
_atom_site_fract_y
_atom_site_fract_z
_atom_type_partial_charge
O1    O     O_R   0.449110 0.494310 0.552140 -0.537691
O2    O     O_R   0.550890 0.994310 0.447860 -0.537690
O3    O     O_R   0.440010 0.824420 0.415850 -0.533712
O4    O     O_R   0.559990 0.324420 0.584150 -0.533713
C1    C     C_R   0.425312 0.655755 0.391000 0.683404
C2    C     C_R   0.574688 0.155755 0.609000 0.683404
O5    O     O_R   0.442260 0.824040 0.549660 -0.540204
O6    O     O_R   0.557740 0.324040 0.450340 -0.540204
O7    O     O_R   0.553160 0.993960 0.582620 -0.531462
O8    O     O_R   0.446840 0.493960 0.417380 -0.531462
C3    C     C_R   0.428612 0.655386 0.567598 0.678191
C4    C     C_R   0.571388 0.155386 0.432402 0.678191
O9    O     O_3   0.536380 0.660670 0.510660 -0.372774
O10   O     O_3   0.463620 0.160670 0.489340 -0.372774
V1    V     V_3+5 0.493250 0.935680 0.498020 1.407894
V2    V     V_3+5 0.506750 0.435680 0.501980 1.407894
C5    C     C_R   0.823495 0.910407 0.170823 -0.136750
C6    C     C_R   0.176511 0.410408 0.829185 -0.136751
H1    H     H_    0.806501 0.784385 0.186930 0.105919
H2    H     H_    0.193510 0.284386 0.813084 0.105920
C7    C     C_R   0.862706 0.898501 0.130705 -0.166505
C8    C     C_R   0.137300 0.398501 0.869302 -0.166507
H3    H     H_    0.875040 0.762756 0.116941 0.122133
H4    H     H_    0.124971 0.262757 0.883073 0.122134
C9    C     C_R   0.885865 0.059830 0.109160 -0.051836
C10   C     C_R   0.114135 0.559831 0.890839 -0.051836
C11   C     C_R   0.868274 0.233033 0.128709 -0.169362
C12   C     C_R   0.131719 0.733033 0.871283 -0.169359
H5    H     H_    0.884854 0.360665 0.113347 0.125588
H6    H     H_    0.115134 0.860665 0.886638 0.125587
C13   C     C_R   0.829121 0.244431 0.168721 -0.140273
C14   C     C_R   0.170872 0.744431 0.831271 -0.140274
H7    H     H_    0.816551 0.379335 0.183110 0.106138
H8    H     H_    0.183438 0.879334 0.816875 0.106139
C15   C     C_R   0.806606 0.083428 0.190162 0.131771
C16   C     C_R   0.193393 0.583428 0.809838 0.131772
C17   C     C_1   0.766512 0.096436 0.232146 -0.060427
C18   C     C_1   0.233488 0.596436 0.767854 -0.060427
C19   C     C_1   0.733074 0.108146 0.267287 -0.060521
C20   C     C_1   0.266925 0.608145 0.732713 -0.060521
C21   C     C_R   0.670261 0.960093 0.330443 -0.139828
C22   C     C_R   0.329745 0.460094 0.669565 -0.139828
H9    H     H_    0.682606 0.825231 0.315758 0.105963
H10   H     H_    0.317405 0.325232 0.684256 0.105963
C23   C     C_R   0.631193 0.971431 0.370563 -0.168639
C24   C     C_R   0.368813 0.471431 0.629444 -0.168637
H11   H     H_    0.614436 0.843794 0.385689 0.125093
H12   H     H_    0.385575 0.343795 0.614325 0.125092
C25   C     C_R   0.613927 0.144579 0.390541 -0.052111
C26   C     C_R   0.386074 0.644579 0.609460 -0.052111
C27   C     C_R   0.637265 0.305918 0.369230 -0.168782
C28   C     C_R   0.362729 0.805917 0.630763 -0.168784
H13   H     H_    0.625165 0.441628 0.383299 0.121986
H14   H     H_    0.374824 0.941626 0.616688 0.121988
C29   C     C_R   0.676391 0.294072 0.329002 -0.136865
C30   C     C_R   0.323604 0.794071 0.670991 -0.136865
H15   H     H_    0.693554 0.420100 0.313118 0.105997
H16   H     H_    0.306436 0.920098 0.686869 0.105998
C31   C     C_R   0.693001 0.121104 0.309298 0.131980
C32   C     C_R   0.306999 0.621103 0.690702 0.131979
C33   C     C_R   0.642573 0.195763 0.795139 -0.160759
C34   C     C_R   0.357427 0.695763 0.204861 -0.160760
H17   H     H_    0.556440 0.224063 0.729693 0.107051
H18   H     H_    0.443560 0.724063 0.270307 0.107051
H19   H     H_    0.727060 0.196233 0.908442 0.126071
H20   H     H_    0.272940 0.696233 0.091558 0.126071
H21   H     H_    0.628019 0.228693 0.839294 0.115114
H22   H     H_    0.371981 0.728694 0.160707 0.115114
C35   C     C_R   0.618605 0.149839 0.674792 -0.035673
C36   C     C_R   0.381395 0.649838 0.325208 -0.035672
C37   C     C_R   0.902067 0.012594 0.768309 -0.157593
C38   C     C_R   0.097933 0.512594 0.231691 -0.157593
C39   C     C_R   0.863770 0.007444 0.704021 0.214674
C40   C     C_R   0.136230 0.507443 0.295979 0.214674
C41   C     C_R   0.804316 0.042074 0.695257 -0.171336
C42   C     C_R   0.195684 0.542072 0.304742 -0.171337
C43   C     C_R   0.781650 0.082927 0.750428 0.038405
C44   C     C_R   0.218350 0.582927 0.249572 0.038405
C45   C     C_R   0.821624 0.089818 0.816006 0.064950
C46   C     C_R   0.178376 0.589818 0.183995 0.064950
C47   C     C_R   0.720653 0.116806 0.742656 0.085037
C48   C     C_R   0.279347 0.616805 0.257344 0.085037
C49   C     C_R   0.701634 0.158809 0.800715 0.139215
C50   C     C_R   0.298366 0.658809 0.199285 0.139215
C51   C     C_R   0.741553 0.164656 0.864126 -0.200628
C52   C     C_R   0.258447 0.664656 0.135874 -0.200628
C53   C     C_R   0.800451 0.130314 0.871771 -0.177422
C54   C     C_R   0.199549 0.630314 0.128229 -0.177423
C55   C     C_R   0.677628 0.111509 0.679568 -0.213874
C56   C     C_R   0.322372 0.611509 0.320432 -0.213875
C57   C     C_R   0.601631 0.192661 0.732776 -0.164877
C58   C     C_R   0.398369 0.692661 0.267224 -0.164876
C59   C     C_R   0.881995 0.053891 0.824429 -0.121054
C60   C     C_R   0.118005 0.553891 0.175571 -0.121055
H23   H     H_    0.688420 0.080873 0.633223 0.094643
H24   H     H_    0.311580 0.580873 0.366777 0.094643
H25   H     H_    0.947999 0.983766 0.774888 0.106745
H26   H     H_    0.052001 0.483766 0.225112 0.106746
H27   H     H_    0.776958 0.035762 0.644527 0.118318
H28   H     H_    0.223042 0.535759 0.355473 0.118318
H29   H     H_    0.829410 0.136203 0.922018 0.111080
H30   H     H_    0.170589 0.636203 0.077983 0.111081
O11   O     O_R   0.053190 0.709680 0.082610 -0.531216
O12   O     O_R   0.946810 0.209680 0.917390 -0.531217
O13   O     O_R   0.057740 0.380240 0.950340 -0.539791
O14   O     O_R   0.942260 0.880240 0.049660 -0.539792
C61   C     C_R   0.071448 0.548974 0.932497 0.674079
C62   C     C_R   0.928551 0.048974 0.067502 0.674078
O15   O     O_R   0.060000 0.379940 0.084150 -0.532392
O16   O     O_R   0.940000 0.879940 0.915850 -0.532392
O17   O     O_R   0.949110 0.210100 0.052140 -0.538289
O18   O     O_R   0.050890 0.710100 0.947860 -0.538289
C63   C     C_R   0.074745 0.548237 0.109008 0.687435
C64   C     C_R   0.925255 0.048237 0.890992 0.687434
O19   O     O_3   0.963630 0.543720 0.989330 -0.372367
O20   O     O_3   0.036370 0.043720 0.010670 -0.372367
V3    V     V_3+5 0.006750 0.268680 0.001980 1.411384
V4    V     V_3+5 0.993250 0.768680 0.998020 1.411383
C65   C     C_3   0.885830 0.963695 0.643996 -0.790618
H31   H     H_    0.933662 0.939163 0.658396 0.207799
H32   H     H_    0.863845 0.837336 0.618763 0.211226
H33   H     H_    0.876202 0.081134 0.608028 0.210346
C66   C     C_3   0.114170 0.463691 0.356004 -0.790617
H34   H     H_    0.066338 0.439159 0.341604 0.207799
H35   H     H_    0.136155 0.337329 0.381235 0.211226
H36   H     H_    0.123799 0.581128 0.391973 0.210346

loop_
_geom_bond_atom_site_label_1
_geom_bond_atom_site_label_2
_ccdc_geom_bond_type
C2    C35   S    
C18   C20   T    
O4    V2    S    
C20   C32   S    
C29   C31   A    
C11   H5    S    
C39   C41   A    
C61   O18   A    
O1    C3    A    
O2    C4    A    
O16   V4    S    
C2    O7    A    
C45   C53   A    
C4    C25   S    
O15   V3    S    
C66   H34   S    
C38   H26   S    
O5    C3    A    
O13   C61   A    
C40   C42   A    
C39   C65   S    
C14   C16   A    
C15   C17   S    
C42   C44   A    
C45   C59   A    
C44   C46   A    
C66   H35   S    
O20   V3    S    
C22   C24   A    
C23   H11   S    
C33   H21   S    
C7    C9    A    
C53   H29   S    
C25   C27   A    
C34   C58   A    
C26   C28   A    
C13   H7    S    
C43   C47   A    
O16   C64   A    
C6    H2    S    
O15   C63   A    
C38   C60   A    
C65   H32   S    
C40   C66   S    
O6    V2    S    
O14   V4    S    
C21   H9    S    
O13   V3    S    
C36   C56   A    
C22   H10   S    
C35   C55   A    
C47   C49   A    
C60   C63   S    
C28   H14   S    
C51   C53   A    
C24   H12   S    
C11   C13   A    
C12   C14   A    
C21   C31   A    
C38   C40   A    
C33   C49   A    
C22   C32   A    
C37   C39   A    
C66   H36   S    
O5    V1    S    
C27   C29   A    
C5    C7    A    
C30   C32   A    
C27   H13   S    
C14   H8    S    
C55   H23   S    
C29   H15   S    
C1    C36   S    
C37   H25   S    
C44   C48   A    
C23   C25   A    
O6    C4    A    
O19   V4    S    
C19   C31   S    
C41   H27   S    
C43   C45   A    
O1    V2    S    
C56   H24   S    
O2    V1    S    
C41   C43   A    
O12   C64   A    
O4    C2    A    
C49   C51   A    
C48   C50   A    
C7    H3    S    
C8    H4    S    
O11   V4    S    
C42   H28   S    
H18   C58   S    
C46   C60   A    
O3    V1    S    
O12   V3    S    
C65   H33   S    
C34   C50   A    
O11   C63   A    
C6    C8    A    
C36   C58   A    
C50   C52   A    
O3    C1    A    
C10   C61   S    
H20   C52   S    
C54   H30   S    
C65   H31   S    
H19   C51   S    
C37   C59   A    
C9    C11   A    
C24   C26   A    
C10   C12   A    
C48   C56   A    
C62   O17   A    
C34   H22   S    
O17   V3    S    
C12   H6    S    
O7    V1    S    
C47   C55   A    
C1    O8    A    
C46   C54   A    
C3    C26   S    
O8    V2    S    
O18   V4    S    
O14   C62   A    
C13   C15   A    
C16   C18   S    
C5    H1    S    
C30   H16   S    
C52   C54   A    
C59   C64   S    
C28   C30   A    
C17   C19   T    
C8    C10   A    
O9    V2    S    
H17   C57   S    
C21   C23   A    
O10   V1    S    
C5    C15   A    
C35   C57   A    
C6    C16   A    
C33   C57   A    
C9    C62   S    
