data_mof_unit_46205.cif
_audit_creation_date              2013-03-05T15:45:55-0500
_audit_creation_method            fapswitch 2.2
_symmetry_space_group_name_H-M    P1
_symmetry_Int_Tables_number       1
_space_group_crystal_system       triclinic
_cell_length_a                    18.310525
_cell_length_b                    18.276306
_cell_length_c                    18.349494
_cell_angle_alpha                 119.919557
_cell_angle_beta                  119.828775
_cell_angle_gamma                 59.791785
_cell_volume                      4343.40705495

loop_
_atom_site_label
_atom_site_type_symbol
_atom_site_description
_atom_site_fract_x
_atom_site_fract_y
_atom_site_fract_z
_atom_type_partial_charge
Zn1   Zn    Zn3+2 0.956630 0.130130 0.543370 0.961203
Zn2   Zn    Zn3+2 0.130140 0.956620 0.543380 0.928942
Zn3   Zn    Zn3+2 0.956630 0.956620 0.369870 0.980797
Zn4   Zn    Zn3+2 0.956610 0.956630 0.543370 0.955977
O1    O     O_3   1.000000 0.000000 0.500000 -0.484471
O2    O     O_R   0.055060 0.884200 0.615800 -0.649596
O3    O     O_R   0.884210 0.176520 0.444920 -0.656172
O4    O     O_R   0.176540 0.055080 0.615800 -0.668310
O5    O     O_R   0.884190 0.884200 0.323480 -0.624627
O6    O     O_R   0.176540 0.884190 0.444930 -0.665443
O7    O     O_R   0.884180 0.055090 0.615790 -0.636311
O8    O     O_R   0.055100 0.884190 0.323490 -0.634641
O9    O     O_R   0.884190 0.176530 0.615790 -0.634093
O10   O     O_R   0.055100 0.176520 0.615800 -0.645315
O11   O     O_R   0.884180 0.884200 0.444920 -0.650177
O12   O     O_R   0.176510 0.884190 0.615800 -0.619232
O13   O     O_R   0.884210 0.055080 0.323480 -0.606111
C1    C     C_R   0.140132 0.857954 0.637950 0.809747
C2    C     C_R   0.860831 0.140252 0.360354 0.846085
C3    C     C_R   0.140162 0.140093 0.635651 0.793677
C4    C     C_R   0.858362 0.861703 0.360234 0.800108
C5    C     C_R   0.140263 0.858505 0.360277 0.771213
C6    C     C_R   0.859835 0.139997 0.639559 0.793276
H1    H     H_    0.048052 0.233666 0.949443 0.137253
C7    C     C_R   0.670185 0.176706 0.564203 -0.141479
C8    C     C_R   0.578576 0.191802 0.527557 -0.162138
C9    C     C_R   0.525854 0.241556 0.582046 -0.152231
C10   C     C_R   0.564013 0.278975 0.673374 -0.151152
C11   C     C_R   0.656905 0.265162 0.712258 0.073287
C12   C     C_R   0.710910 0.212206 0.657158 0.075521
C13   C     C_R   0.696553 0.303198 0.804660 -0.152519
C14   C     C_R   0.789793 0.286204 0.843550 0.068979
C15   C     C_R   0.844017 0.232246 0.788616 0.073952
C16   C     C_R   0.803958 0.196301 0.695840 -0.154252
C17   C     C_R   0.830632 0.320350 0.936705 -0.126508
C18   C     C_R   0.923004 0.300908 0.974134 -0.138775
C19   C     C_R   0.976334 0.248484 0.920047 -0.143492
C20   C     C_R   0.937635 0.214395 0.828170 -0.146589
H2    H     H_    0.708453 0.137238 0.519026 0.108312
H3    H     H_    0.548197 0.164981 0.456539 0.144497
H4    H     H_    0.454743 0.252731 0.553204 0.139274
H5    H     H_    0.519944 0.318719 0.712870 0.120590
H6    H     H_    0.953443 0.326020 0.045435 0.139913
H7    H     H_    0.981909 0.173340 0.788815 0.118040
C21   C     C_R   0.926843 0.258998 0.366026 -0.148198
H8    H     H_    0.971662 0.217416 0.407913 0.127982
C22   C     C_R   0.958042 0.316303 0.368858 -0.129594
H9    H     H_    0.024405 0.318749 0.412697 0.129553
C23   C     C_R   0.904366 0.369820 0.314895 -0.152408
H10   H     H_    0.928859 0.414024 0.317132 0.133073
C24   C     C_R   0.819327 0.366159 0.257489 -0.154536
C25   C     C_R   0.785628 0.309673 0.254525 0.107119
C26   C     C_R   0.840041 0.255379 0.309627 0.024927
C27   C     C_R   0.807111 0.197203 0.305050 -0.167093
C28   C     C_R   0.721125 0.193886 0.248266 0.461719
H11   H     H_    0.601726 0.246300 0.150564 0.146373
C29   C     C_R   0.668178 0.247886 0.194375 -0.341251
C30   C     C_R   0.699755 0.304573 0.196669 -0.118873
C31   C     C_R   0.682184 0.923294 0.374293 -0.230439
C32   C     C_R   0.597930 0.952351 0.379481 -0.260690
H12   H     H_    0.574495 0.016220 0.427250 0.155866
C33   C     C_R   0.542960 0.900002 0.322443 0.551553
C34   C     C_R   0.572745 0.818041 0.259739 -0.237884
H13   H     H_    0.526929 0.780993 0.214278 0.149527
C35   C     C_R   0.659578 0.785086 0.256070 -0.037981
C36   C     C_R   0.714450 0.839357 0.312946 0.100657
C37   C     C_R   0.798660 0.809321 0.304553 -0.120285
C38   C     C_R   0.827406 0.727396 0.241416 -0.297703
C39   C     C_R   0.776771 0.670975 0.189763 0.483279
C40   C     C_R   0.692186 0.700098 0.195646 -0.166194
C41   C     C_R   0.110992 0.692629 0.585785 -0.142628
H14   H     H_    0.070508 0.729169 0.539238 0.145604
C42   C     C_R   0.096161 0.614842 0.562281 -0.139515
H15   H     H_    0.044262 0.595132 0.501120 0.131698
C43   C     C_R   0.149312 0.561294 0.616069 -0.147007
H16   H     H_    0.138634 0.500046 0.596739 0.134306
C44   C     C_R   0.217749 0.585088 0.693596 -0.152625
H17   H     H_    0.259658 0.538758 0.730521 0.144819
C45   C     C_R   0.233067 0.664778 0.719997 0.097827
C46   C     C_R   0.178709 0.719621 0.665385 0.036804
C47   C     C_R   0.196930 0.797026 0.689320 -0.195936
C48   C     C_R   0.272137 0.815419 0.762198 0.442004
H18   H     H_    0.382462 0.776213 0.871031 0.176332
C49   C     C_R   0.324923 0.761137 0.814924 -0.299876
C50   C     C_R   0.304045 0.688865 0.796903 -0.139971
C51   C     C_R   0.282213 0.690807 0.388131 -0.266000
H19   H     H_    0.242346 0.729453 0.431576 0.176247
C52   C     C_R   0.349459 0.611218 0.400749 -0.289229
H20   H     H_    0.360067 0.594396 0.454790 0.159502
C53   C     C_R   0.400507 0.553677 0.343198 0.555470
C54   C     C_R   0.386016 0.580440 0.276562 -0.248660
H21   H     H_    0.425741 0.534409 0.232985 0.172446
C55   C     C_R   0.319794 0.662335 0.264213 0.015692
C56   C     C_R   0.266344 0.717902 0.320184 0.102675
C57   C     C_R   0.196882 0.797593 0.304649 -0.047869
C58   C     C_R   0.179386 0.819534 0.233397 -0.205615
C59   C     C_R   0.232314 0.765832 0.179447 -0.211973
C60   C     C_R   0.303475 0.688918 0.195464 -0.049684
C61   C     C_R   0.331088 0.068311 0.653573 -0.287793
H22   H     H_    0.294045 0.035925 0.586613 0.184118
C62   C     C_R   0.418526 0.018431 0.690219 0.473172
C63   C     C_R   0.469514 0.058834 0.774444 -0.390000
H23   H     H_    0.534539 0.014468 0.801464 0.169025
C64   C     C_R   0.434749 0.151445 0.822650 0.474547
C65   C     C_R   0.346142 0.203014 0.780702 0.012189
C66   C     C_R   0.291033 0.155767 0.704656 -0.041905
C67   C     C_R   0.197251 0.195582 0.685462 -0.039401
C68   C     C_R   0.159443 0.287847 0.724734 -0.208497
H24   H     H_    0.182312 0.411696 0.808282 0.179867
C69   C     C_R   0.213797 0.339594 0.783711 -0.233737
C70   C     C_R   0.307138 0.299063 0.812203 -0.054034
Zn5   Zn    Zn3+2 0.543340 0.369890 0.956600 0.967942
Zn6   Zn    Zn3+2 0.543340 0.543410 0.130100 0.954535
Zn7   Zn    Zn3+2 0.369830 0.543410 0.956590 0.959661
Zn8   Zn    Zn3+2 0.543370 0.543400 0.956600 0.983776
O14   O     O_3   0.499970 0.500030 0.999970 -0.488699
O15   O     O_R   0.615800 0.615830 0.055050 -0.606242
O16   O     O_R   0.444880 0.323510 0.884180 -0.601697
O17   O     O_R   0.615760 0.444950 0.176490 -0.633167
O18   O     O_R   0.323460 0.615830 0.884170 -0.647198
O19   O     O_R   0.444880 0.615840 0.176480 -0.649896
O20   O     O_R   0.615800 0.444940 0.884180 -0.626513
O21   O     O_R   0.323440 0.615840 0.055040 -0.632022
O22   O     O_R   0.615780 0.323500 0.884180 -0.646210
O23   O     O_R   0.615760 0.323500 0.055050 -0.654579
O24   O     O_R   0.444910 0.615830 0.884180 -0.637672
O25   O     O_R   0.615780 0.615830 0.176490 -0.662432
O26   O     O_R   0.323430 0.444950 0.884170 -0.659800
C71   C     C_R   0.639844 0.640161 0.139791 0.828646
C72   C     C_R   0.360571 0.358783 0.863830 0.825212
C73   C     C_R   0.640369 0.359974 0.139900 0.810081
C74   C     C_R   0.359969 0.638126 0.858121 0.807728
C75   C     C_R   0.359848 0.638385 0.139759 0.776470
C76   C     C_R   0.640417 0.359969 0.860691 0.788466
H25   H     H_    0.780892 0.407493 0.215357 0.122625
H26   H     H_    0.891170 0.705930 0.234399 0.159985
H27   H     H_    0.720875 0.967719 0.417991 0.158757
O27   O     O_3   0.456750 0.931948 0.322704 -0.659007
C77   C     C_3   0.458372 0.918231 0.392947 0.057247
H28   H     H_    0.397095 0.968484 0.410568 0.175991
H29   H     H_    0.516254 0.929825 0.454857 0.139227
C78   C     C_3   0.456768 0.824157 0.362846 -0.361866
H30   H     H_    0.399157 0.813957 0.300952 0.238936
H31   H     H_    0.519300 0.772684 0.348537 0.229949
C79   C     C_3   0.448699 0.811423 0.434161 -0.877827
H32   H     H_    0.504980 0.823003 0.497152 0.287843
H33   H     H_    0.451469 0.741642 0.411757 0.264896
H34   H     H_    0.384133 0.858490 0.446302 0.273954
O28   O     O_3   0.810427 0.586540 0.133357 -0.628989
C80   C     C_3   0.868255 0.525784 0.181938 0.065410
H35   H     H_    0.850319 0.463838 0.142811 0.142135
H36   H     H_    0.861581 0.550366 0.248440 0.114827
C81   C     C_3   0.965678 0.501358 0.193167 -0.329537
H37   H     H_    0.972889 0.472300 0.126599 0.233622
H38   H     H_    0.984887 0.562387 0.230956 0.212054
C82   C     C_3   0.029732 0.434288 0.243303 -0.998542
H39   H     H_    0.028483 0.465250 0.312548 0.260203
H40   H     H_    0.098918 0.414575 0.246025 0.270777
H41   H     H_    0.011078 0.373096 0.209326 0.261871
O29   O     O_3   0.300577 0.880062 0.776260 -0.642809
C83   C     C_3   0.262010 0.962610 0.834542 0.086060
H42   H     H_    0.285853 0.957389 0.901266 0.133736
H43   H     H_    0.187542 0.983764 0.807441 0.127444
C84   C     C_3   0.290479 0.033678 0.844529 -0.315854
H44   H     H_    0.364163 0.016518 0.877345 0.208617
H45   H     H_    0.273603 0.034129 0.777597 0.243218
C85   C     C_3   0.244110 0.127212 0.899215 -0.968642
H46   H     H_    0.170438 0.146822 0.865760 0.255383
H47   H     H_    0.267247 0.176471 0.905543 0.278416
H48   H     H_    0.260479 0.128872 0.966881 0.262216
H49   H     H_    0.125614 0.879883 0.220751 0.157221
O30   O     O_3   0.468632 0.473104 0.351926 -0.649150
C86   C     C_3   0.446092 0.424091 0.373181 0.059846
H50   H     H_    0.466885 0.352803 0.330880 0.144675
H51   H     H_    0.372603 0.443930 0.356621 0.133165
C87   C     C_3   0.497791 0.429454 0.470942 -0.334236
H52   H     H_    0.566731 0.379878 0.477114 0.220825
H53   H     H_    0.503565 0.497104 0.512785 0.230435
C88   C     C_3   0.451600 0.410654 0.506455 -0.954630
H54   H     H_    0.384974 0.463372 0.506545 0.259838
H55   H     H_    0.492833 0.410990 0.575857 0.282994
H56   H     H_    0.442840 0.344268 0.464407 0.263257
H57   H     H_    0.219065 0.785623 0.126144 0.159809
H58   H     H_    0.087646 0.320357 0.709450 0.176944
O31   O     O_3   0.451812 0.927263 0.647525 -0.654213
C89   C     C_3   0.420303 0.882961 0.665057 0.103825
H59   H     H_    0.346039 0.902225 0.635116 0.191353
H60   H     H_    0.439832 0.900010 0.738260 0.151096
C90   C     C_3   0.461028 0.781454 0.624438 -0.351917
H61   H     H_    0.439356 0.762554 0.551113 0.237817
H62   H     H_    0.535227 0.761098 0.651284 0.232372
C91   C     C_3   0.431662 0.731116 0.645165 -0.876169
H63   H     H_    0.452693 0.748319 0.718269 0.284564
H64   H     H_    0.463226 0.657758 0.615821 0.245458
H65   H     H_    0.357803 0.748274 0.616244 0.279456
O32   O     O_3   0.476018 0.190188 0.913578 -0.629001
C92   C     C_3   0.564166 0.136946 0.950906 0.132191
H66   H     H_    0.598844 0.182513 0.009024 0.189200
H67   H     H_    0.605621 0.101600 0.907075 0.125493
C93   C     C_3   0.563314 0.075482 0.984484 -0.429060
H68   H     H_    0.535450 0.117401 0.040115 0.229473
H69   H     H_    0.519768 0.035179 0.931207 0.219321
C94   C     C_3   0.657369 0.011966 0.016970 -0.858074
H70   H     H_    0.683754 0.965287 0.960584 0.251431
H71   H     H_    0.655408 0.972073 0.045512 0.275136
H72   H     H_    0.703062 0.050346 0.069124 0.285818
H73   H     H_    0.791914 0.361208 0.981519 0.116139
O33   O     O_3   0.693931 0.131241 0.240965 -0.638758
C95   C     C_3   0.612732 0.173328 0.258943 0.068478
H74   H     H_    0.555998 0.195633 0.202818 0.143980
H75   H     H_    0.615701 0.231928 0.321803 0.135322
C96   C     C_3   0.596037 0.105470 0.269176 -0.298563
H76   H     H_    0.603890 0.042050 0.211873 0.241887
H77   H     H_    0.646187 0.090313 0.331270 0.203235
C97   C     C_3   0.502041 0.141104 0.272562 -0.998990
H78   H     H_    0.491484 0.205523 0.328055 0.254726
H79   H     H_    0.493125 0.091630 0.282978 0.281421
H80   H     H_    0.451087 0.151887 0.208911 0.267944

loop_
_geom_bond_atom_site_label_1
_geom_bond_atom_site_label_2
_geom_bond_distance
_ccdc_geom_bond_type
C94   H70   1.110737 S    
C34   C35   1.413393 A    
C55   C56   1.415371 A    
C90   C91   1.526610 S    
C5    C57   1.453892 S    
C64   C65   1.433767 A    
C57   C58   1.396401 A    
C45   C50   1.416255 A    
C97   H78   1.109610 S    
C8    H3    1.078841 S    
C1    C47   1.454852 S    
C59   C60   1.395782 A    
O31   C89   1.416509 S    
C84   H45   1.110834 S    
C22   C23   1.390585 A    
C44   H17   1.079867 S    
O30   C86   1.416183 S    
C28   O33   1.389623 S    
C94   H71   1.110475 S    
C60   C75   1.453219 S    
C10   C11   1.416385 A    
C8    C9    1.388665 A    
O4    C3    1.275054 A    
Zn8   O24   1.933504 S    
O21   C75   1.279562 A    
Zn1   O1    1.939157 S    
C18   C19   1.389455 A    
C19   C20   1.393022 A    
Zn5   O22   1.934431 S    
C97   H79   1.110276 S    
C50   C74   1.452448 S    
C79   H32   1.110524 S    
C77   C78   1.532763 S    
C51   C52   1.391263 A    
C66   C67   1.413816 A    
C31   H27   1.080875 S    
Zn8   O14   1.945607 S    
O8    C5    1.280627 A    
O32   C92   1.416253 S    
C95   C96   1.528959 S    
C48   O29   1.383784 S    
H11   C29   1.080169 S    
O9    C6    1.272215 A    
C95   H74   1.110995 S    
C32   C33   1.394989 A    
C42   H15   1.082848 S    
O7    C6    1.272450 A    
C92   H67   1.111731 S    
C9    H4    1.082548 S    
C69   C70   1.402345 A    
O20   C76   1.273489 A    
Zn3   O8    1.930918 S    
C51   C56   1.412395 A    
C83   H43   1.114796 S    
Zn6   O17   1.930043 S    
C24   H25   1.081660 S    
C87   C88   1.523842 S    
H18   C49   1.084412 S    
C93   H68   1.110813 S    
Zn8   O15   1.942251 S    
C80   C81   1.532538 S    
C22   H9    1.082599 S    
O17   C73   1.273718 A    
C67   C68   1.396939 A    
C3    C67   1.465676 S    
C91   H63   1.110752 S    
C81   H38   1.108714 S    
Zn2   O12   1.934032 S    
C53   C54   1.395716 A    
C88   H56   1.109938 S    
C86   H51   1.116548 S    
C36   C37   1.415181 A    
C65   C70   1.436158 A    
C21   C26   1.415177 A    
C31   C32   1.393693 A    
C85   H46   1.110943 S    
Zn8   O20   1.931109 S    
O18   C74   1.275808 A    
C4    C37   1.456611 S    
C42   C43   1.388752 A    
C78   C79   1.522869 S    
C63   H23   1.078517 S    
C13   C76   1.450546 S    
C62   O31   1.382909 S    
C41   C46   1.417467 A    
C79   H33   1.109369 S    
C59   H57   1.083926 S    
C85   H48   1.110744 S    
C21   C22   1.394338 A    
O19   C75   1.278947 A    
O2    C1    1.278481 A    
C94   H72   1.110063 S    
C12   C16   1.412612 A    
C37   C38   1.394375 A    
C62   C63   1.387553 A    
O10   C3    1.279017 A    
C38   H26   1.082544 S    
C49   C50   1.395298 A    
Zn4   O2    1.933561 S    
C97   H80   1.110858 S    
O33   C95   1.412466 S    
C54   H21   1.080737 S    
C41   C42   1.393270 A    
C68   H58   1.083230 S    
C51   H19   1.079652 S    
C38   C39   1.390727 A    
C23   C24   1.393365 A    
C7    C8    1.392582 A    
C86   H50   1.109474 S    
C58   H49   1.083970 S    
C40   C71   1.458844 S    
C47   C48   1.408211 A    
C24   C25   1.414616 A    
C85   H47   1.110864 S    
C32   H12   1.079110 S    
Zn4   O7    1.931110 S    
C17   C18   1.393478 A    
C82   H39   1.110767 S    
C92   C93   1.536025 S    
C43   H16   1.082699 S    
O25   C71   1.279243 A    
C20   H7    1.082325 S    
C11   C12   1.411448 A    
Zn3   O5    1.937857 S    
C54   C55   1.414412 A    
Zn7   O26   1.937965 S    
O23   C73   1.280814 A    
C70   C72   1.472082 S    
C13   C14   1.412793 A    
C96   C97   1.525885 S    
O24   C74   1.276899 A    
C30   C73   1.452630 S    
C11   C13   1.411606 A    
C6    C16   1.450458 S    
C58   C59   1.382219 A    
C33   C34   1.395696 A    
C15   C16   1.412352 A    
C64   O32   1.400654 S    
C44   C45   1.416559 A    
C56   C57   1.417612 A    
C33   O27   1.382052 S    
C81   C82   1.526209 S    
C63   C64   1.426502 A    
C43   C44   1.393183 A    
Zn5   O23   1.937564 S    
C25   C30   1.412883 A    
Zn7   O21   1.935666 S    
C90   H61   1.109161 S    
C2    C27   1.452975 S    
C17   H73   1.082173 S    
C87   H52   1.111959 S    
C61   C62   1.385029 A    
C96   H77   1.111848 S    
C23   H10   1.081079 S    
C48   C49   1.384467 A    
C28   C29   1.395987 A    
C78   H31   1.110711 S    
C45   C46   1.416102 A    
Zn2   O1    1.944733 S    
Zn1   O9    1.934385 S    
C89   H60   1.116246 S    
Zn2   O6    1.935771 S    
Zn5   O14   1.939305 S    
C79   H34   1.111196 S    
O15   C71   1.278918 A    
C25   C26   1.415432 A    
C83   C84   1.530113 S    
C86   C87   1.533721 S    
C7    C12   1.415596 A    
C61   C66   1.407485 A    
C27   C28   1.403292 A    
C84   H44   1.111596 S    
Zn1   O3    1.937565 S    
C82   H41   1.110448 S    
Zn2   O4    1.937966 S    
C14   C17   1.415743 A    
C52   C53   1.407040 A    
C46   C47   1.419478 A    
Zn3   O1    1.954363 S    
O26   C72   1.292400 A    
Zn7   O14   1.944733 S    
C77   H28   1.111165 S    
O16   C72   1.266251 A    
C26   C27   1.416616 A    
Zn6   O25   1.937856 S    
C92   H66   1.098428 S    
C88   H54   1.110967 S    
H1    C19   1.082580 S    
C65   C66   1.408925 A    
O3    C2    1.276388 A    
C15   C20   1.416836 A    
C80   H35   1.110767 S    
C61   H22   1.081430 S    
O22   C76   1.271266 A    
C39   O28   1.384425 S    
C14   C15   1.411777 A    
Zn6   O14   1.954361 S    
Zn4   O11   1.942250 S    
C82   H40   1.110349 S    
C91   H65   1.110956 S    
C89   H59   1.114844 S    
C41   H14   1.079812 S    
C31   C36   1.412966 A    
C83   H42   1.114284 S    
H24   C69   1.083302 S    
C7    H2    1.082225 S    
Zn5   O16   1.940483 S    
C77   H29   1.116605 S    
O5    C4    1.279508 A    
C29   C30   1.394462 A    
C96   H76   1.112060 S    
O11   C4    1.278548 A    
C89   C90   1.527966 S    
C93   C94   1.525153 S    
C10   H5    1.082042 S    
O13   C2    1.277135 A    
C68   C69   1.382311 A    
Zn3   O13   1.930044 S    
C80   H36   1.118951 S    
C84   C85   1.525091 S    
C39   C40   1.404704 A    
O29   C83   1.410027 S    
O27   C77   1.414846 S    
C34   H13   1.081703 S    
C21   H8    1.081390 S    
O6    C5    1.278419 A    
Zn4   O1    1.945458 S    
Zn6   O19   1.930773 S    
C52   H20   1.080732 S    
O12   C1    1.274328 A    
C35   C36   1.417574 A    
C53   O30   1.392198 S    
C9    C10   1.391754 A    
C95   H75   1.115483 S    
C78   H30   1.110071 S    
C18   H6    1.079814 S    
Zn1   O10   1.940732 S    
C90   H62   1.111435 S    
C81   H37   1.110980 S    
O28   C80   1.419184 S    
C55   C60   1.416712 A    
C93   H69   1.109631 S    
Zn7   O18   1.933886 S    
C35   C40   1.416258 A    
C91   H64   1.109570 S    
C87   H53   1.110476 S    
C88   H55   1.110045 S    
