data_mof_unit_22966.cif
_audit_creation_date              2012-12-10T20:39:08-0500
_audit_creation_method            fapswitch 2.2
_symmetry_space_group_name_H-M    P1
_symmetry_Int_Tables_number       1
_space_group_crystal_system       triclinic
_cell_length_a                    19.221358
_cell_length_b                    10.696211
_cell_length_c                    9.859737
_cell_angle_alpha                 90.348489
_cell_angle_beta                  90.071587
_cell_angle_gamma                 90.281532
_cell_volume                      2027.05591347

loop_
_atom_site_label
_atom_site_type_symbol
_atom_type_description
_atom_site_fract_x
_atom_site_fract_y
_atom_site_fract_z
_atom_type_partial_charge
C1    C     C_R   0.498635 0.260004 0.499773 0.878955
C2    C     C_R   0.290506 0.504680 0.498488 -0.041732
C3    C     C_R   0.930231 0.504718 0.504679 0.272144
C4    C     C_R   0.070160 0.513949 0.495334 0.288764
C5    C     C_R   0.817927 0.481782 0.631709 0.108980
C6    C     C_R   0.745136 0.482205 0.626011 -0.172707
C7    C     C_R   0.710139 0.497446 0.502342 -0.074920
C8    C     C_R   0.747524 0.511086 0.382034 -0.203101
C9    C     C_R   0.819378 0.512333 0.385464 -0.186484
C10   C     C_R   0.854770 0.499721 0.508822 0.052923
C11   C     C_R   0.491341 0.064424 0.622872 0.031370
C12   C     C_R   0.365731 0.500653 0.499807 0.847759
C13   C     C_R   0.489762 0.128387 0.500231 -0.119494
C14   C     C_R   0.476144 0.063526 0.379126 -0.215041
C15   C     C_R   0.475373 0.934358 0.379588 -0.220178
C16   C     C_R   0.488361 0.871298 0.501293 -0.091576
C17   C     C_R   0.489710 0.936938 0.623614 0.133568
C18   C     C_3   0.538606 0.929024 0.741508 -0.575131
C19   C     C_3   0.540723 0.071240 0.740795 -0.182975
C20   C     C_R   0.479450 0.395980 0.070948 0.209440
C21   C     C_R   0.527661 0.597115 0.072637 -0.113326
C22   C     C_R   0.528101 0.596680 0.928641 -0.094355
C23   C     C_R   0.498208 0.739977 0.500341 0.879611
C24   C     C_R   0.477851 0.397160 0.928558 0.224227
C25   C     C_3   0.407477 0.335431 0.926546 -0.289913
C26   C     C_3   0.410890 0.331351 0.080834 -0.523522
C27   C     C_R   0.634472 0.499298 0.500263 0.875701
C28   C     C_R   0.255011 0.564184 0.604165 -0.201035
C29   C     C_R   0.182987 0.568858 0.602278 -0.159090
C30   C     C_R   0.145939 0.513873 0.494478 0.080764
C31   C     C_R   0.181835 0.455737 0.387797 -0.153513
C32   C     C_R   0.253852 0.451503 0.389705 -0.177217
H1    H     H_    0.282946 0.608395 0.687046 0.193636
H2    H     H_    0.469199 0.884892 0.284075 0.173029
H3    H     H_    0.512460 0.890977 0.832975 0.205528
H4    H     H_    0.588500 0.882634 0.714724 0.190859
H5    H     H_    0.516705 0.114124 0.832405 0.171219
H6    H     H_    0.548852 0.676567 0.127338 0.140341
H7    H     H_    0.550120 0.675171 0.874953 0.135506
H8    H     H_    0.408572 0.241203 0.878426 0.119376
H9    H     H_    0.371422 0.388866 0.134464 0.233828
H10   H     H_    0.156507 0.614577 0.685651 0.158789
H11   H     H_    0.415944 0.234831 0.120026 0.172003
H12   H     H_    0.154450 0.412952 0.303289 0.152018
H13   H     H_    0.280784 0.405221 0.307304 0.145168
H14   H     H_    0.714960 0.470637 0.717391 0.174447
H15   H     H_    0.721370 0.522525 0.285543 0.165013
H16   H     H_    0.847598 0.525556 0.291529 0.153263
H17   H     H_    0.470639 0.111398 0.283503 0.164300
N1    N     N_R   0.033953 0.446411 0.402043 -0.178974
N2    N     N_R   0.965026 0.442147 0.406363 -0.169739
N3    N     N_R   0.966181 0.574267 0.596227 -0.184097
N4    N     N_R   0.035092 0.578360 0.592029 -0.179110
N5    N     N_R   0.499530 0.499140 0.142800 -0.099167
N6    N     N_R   0.499530 0.499180 0.857150 -0.092964
O1    O     O_R   0.500010 0.316790 0.614690 -0.614159
O2    O     O_R   0.500000 0.316760 0.385350 -0.623465
O3    O     O_R   0.398140 0.500000 0.614710 -0.616413
O4    O     O_R   0.398130 0.499970 0.385370 -0.612313
O5    O     O_R   0.500000 0.683240 0.614650 -0.615733
O6    O     O_R   0.499990 0.683210 0.385310 -0.629217
O7    O     O_R   0.601870 0.500030 0.614630 -0.610299
O8    O     O_R   0.601860 0.500000 0.385290 -0.621385
Zn1   Zn    Zn3+2 0.500000 0.500020 0.653130 0.983409
Zn2   Zn    Zn3+2 0.500000 0.499980 0.346870 0.957279
C33   C     C_2   0.611181 0.123781 0.705469 0.461139
H18   H     H_    0.639218 0.088926 0.617601 0.056343
O9    O     O_2   0.637054 0.206501 0.775119 -0.593687
C34   C     C_2   0.349144 0.416117 0.875690 0.510632
H19   H     H_    0.311651 0.377053 0.804674 0.046214
O10   O     O_2   0.342717 0.524102 0.914689 -0.580264
C35   C     C_3   0.856707 0.460698 0.764975 -0.423402
C36   C     C_3   0.812276 0.414965 0.884761 -0.361439
C37   C     C_3   0.857540 0.385229 0.007657 -0.847318
H20   H     H_    0.894582 0.309096 0.982801 0.267714
H21   H     H_    0.887147 0.469617 0.040451 0.260427
H22   H     H_    0.824027 0.354237 0.092869 0.254333
H23   H     H_    0.774797 0.488804 0.915154 0.220300
H24   H     H_    0.783136 0.329024 0.854923 0.258944
H25   H     H_    0.897764 0.389719 0.746396 0.217917
H26   H     H_    0.882316 0.549773 0.795808 0.221276

loop_
_geom_bond_atom_site_label_1
_geom_bond_atom_site_label_2
_ccdc_geom_bond_type
C33   O9    D    
O8    Zn2   S    
C29   H10   S    
C36   C37   S    
C2    C12   S    
C7    C8    A    
N5    Zn2   S    
C24   N6    A    
C11   C19   S    
C37   H21   S    
C28   C29   A    
C1    O1    A    
C5    C35   S    
C25   H8    S    
C21   N5    A    
C4    N4    A    
C14   H17   S    
C15   C16   A    
C7    C27   S    
C19   C33   S    
C2    C32   A    
C18   C19   S    
C32   H13   S    
C34   O10   D    
O7    Zn1   S    
C19   H5    S    
C12   O4    A    
C21   H6    S    
C20   C24   A    
C16   C17   A    
C37   H22   S    
C36   H23   S    
O1    Zn1   S    
C18   H3    S    
C15   H2    S    
C35   H26   S    
C12   O3    A    
C33   H18   S    
C21   C22   A    
C26   H11   S    
N1    N2    A    
O3    Zn1   S    
C23   O5    A    
C31   H12   S    
C24   C25   S    
C20   N5    A    
C37   H20   S    
C3    N2    A    
C8    C9    A    
C25   C26   S    
C4    N1    A    
C29   C30   A    
C27   O7    A    
C1    O2    A    
C31   C32   A    
C30   C31   A    
N6    Zn1   S    
C17   C18   S    
C36   H24   S    
C22   N6    A    
C27   O8    A    
C28   H1    S    
C16   C23   S    
C1    C13   S    
N3    N4    A    
C9    C10   A    
C11   C17   A    
C6    H14   S    
O2    Zn2   S    
C35   C36   S    
C3    N3    A    
C6    C7    A    
O5    Zn1   S    
C8    H15   S    
C5    C10   A    
C35   H25   S    
C3    C10   S    
O4    Zn2   S    
C11   C13   A    
C5    C6    A    
C20   C26   S    
C22   H7    S    
C34   H19   S    
O6    Zn2   S    
C23   O6    A    
C25   C34   S    
C9    H16   S    
C14   C15   A    
C2    C28   A    
C13   C14   A    
C18   H4    S    
C4    C30   S    
C26   H9    S    
