data_mof_unit_44988.cif
_audit_creation_date              2013-03-05T15:44:23-0500
_audit_creation_method            fapswitch 2.2
_symmetry_space_group_name_H-M    P1
_symmetry_Int_Tables_number       1
_space_group_crystal_system       triclinic
_cell_length_a                    19.066266
_cell_length_b                    11.099296
_cell_length_c                    18.795507
_cell_angle_alpha                 90.00003
_cell_angle_beta                  90.247694
_cell_angle_gamma                 90.0
_cell_volume                      3977.50805672

loop_
_atom_site_label
_atom_site_type_symbol
_atom_site_description
_atom_site_fract_x
_atom_site_fract_y
_atom_site_fract_z
_atom_type_partial_charge
O1    O     O_R   0.784320 0.290430 0.830510 -0.431311
O2    O     O_R   0.215680 0.290430 0.169490 -0.425594
O3    O     O_R   0.284320 0.790430 0.830510 -0.425590
O4    O     O_R   0.715680 0.790430 0.169490 -0.431310
O5    O     O_R   0.762640 0.040960 0.825200 -0.477210
O6    O     O_R   0.237360 0.040960 0.174800 -0.473241
O7    O     O_R   0.262640 0.540960 0.825200 -0.473248
O8    O     O_R   0.737360 0.540960 0.174800 -0.477210
C1    C     C_R   0.729297 0.949859 0.849930 0.577933
C2    C     C_R   0.270385 0.949104 0.150121 0.580671
C3    C     C_R   0.229614 0.449106 0.849879 0.580667
C4    C     C_R   0.770703 0.449858 0.150070 0.577934
O9    O     O_R   0.667400 0.923970 0.829950 -0.439491
O10   O     O_R   0.332600 0.923970 0.170050 -0.461233
O11   O     O_R   0.167400 0.423970 0.829950 -0.461235
O12   O     O_R   0.832600 0.423970 0.170050 -0.439492
O13   O     O_R   0.553960 0.081340 0.821780 -0.458910
O14   O     O_R   0.446040 0.081340 0.178220 -0.449855
O15   O     O_R   0.053960 0.581340 0.821780 -0.449858
O16   O     O_R   0.946040 0.581340 0.178220 -0.458908
C5    C     C_R   0.526022 0.176284 0.847388 0.591459
C6    C     C_R   0.436302 0.181008 0.143579 0.559809
C7    C     C_R   0.063698 0.681008 0.856421 0.559809
C8    C     C_R   0.973978 0.676284 0.152612 0.591460
O17   O     O_R   0.543180 0.283240 0.826740 -0.424140
O18   O     O_R   0.456820 0.283240 0.173260 -0.384689
O19   O     O_R   0.043180 0.783240 0.826740 -0.384689
O20   O     O_R   0.956820 0.783240 0.173260 -0.424142
O21   O     O_R   0.678360 0.375140 0.822710 -0.431633
O22   O     O_R   0.321640 0.375140 0.177290 -0.446170
O23   O     O_R   0.178360 0.875140 0.822710 -0.446168
O24   O     O_R   0.821640 0.875140 0.177290 -0.431634
C9    C     C_R   0.728009 0.325339 0.861472 0.572300
C10   C     C_R   0.274755 0.318949 0.138391 0.530974
C11   C     C_R   0.225245 0.818948 0.861609 0.530976
C12   C     C_R   0.771991 0.825339 0.138527 0.572300
O25   O     O_R   0.785050 0.289380 0.670560 -0.511159
O26   O     O_R   0.214950 0.289380 0.329440 -0.513031
O27   O     O_R   0.285050 0.789380 0.670560 -0.513031
O28   O     O_R   0.714950 0.789380 0.329440 -0.511158
O29   O     O_R   0.763320 0.039990 0.676930 -0.493555
O30   O     O_R   0.236680 0.039990 0.323070 -0.485971
O31   O     O_R   0.263320 0.539990 0.676930 -0.485970
O32   O     O_R   0.736680 0.539990 0.323070 -0.493555
C13   C     C_R   0.727849 0.955961 0.647478 0.558793
C14   C     C_R   0.272144 0.955947 0.352515 0.565819
C15   C     C_R   0.227856 0.455947 0.647485 0.565820
C16   C     C_R   0.772151 0.455961 0.352522 0.558793
O33   O     O_R   0.668130 0.922920 0.670000 -0.515278
O34   O     O_R   0.331870 0.922920 0.330000 -0.512924
O35   O     O_R   0.168130 0.422920 0.670000 -0.512923
O36   O     O_R   0.831870 0.422920 0.330000 -0.515279
O37   O     O_R   0.554640 0.080370 0.673500 -0.518366
O38   O     O_R   0.445360 0.080370 0.326500 -0.508205
O39   O     O_R   0.054640 0.580370 0.673500 -0.508205
O40   O     O_R   0.945360 0.580370 0.326500 -0.518366
C17   C     C_R   0.528737 0.176712 0.645280 0.559053
C18   C     C_R   0.471202 0.176733 0.354771 0.579444
C19   C     C_R   0.028798 0.676733 0.645229 0.579445
C20   C     C_R   0.971263 0.676712 0.354720 0.559052
O41   O     O_R   0.543920 0.282180 0.666790 -0.443383
O42   O     O_R   0.456080 0.282180 0.333210 -0.439567
O43   O     O_R   0.043920 0.782180 0.666790 -0.439567
O44   O     O_R   0.956080 0.782180 0.333210 -0.443383
O45   O     O_R   0.679040 0.374160 0.674430 -0.489719
O46   O     O_R   0.320960 0.374160 0.325570 -0.488260
O47   O     O_R   0.179040 0.874160 0.674430 -0.488260
O48   O     O_R   0.820960 0.874160 0.325570 -0.489720
C21   C     C_R   0.738728 0.358609 0.645139 0.554747
C22   C     C_R   0.261270 0.358608 0.354862 0.552182
C23   C     C_R   0.238730 0.858608 0.645138 0.552183
C24   C     C_R   0.761272 0.858609 0.354861 0.554747
Cr1   Cr    Cr6+3 0.769270 0.163730 0.750710 1.154542
Cr2   Cr    Cr6+3 0.230730 0.163730 0.249290 1.142881
Cr3   Cr    Cr6+3 0.269270 0.663730 0.750710 1.142877
Cr4   Cr    Cr6+3 0.730730 0.663730 0.249290 1.154542
Cr5   Cr    Cr6+3 0.612620 0.009790 0.748780 1.135892
Cr6   Cr    Cr6+3 0.387380 0.009790 0.251220 1.125576
Cr7   Cr    Cr6+3 0.112620 0.509790 0.748780 1.125572
Cr8   Cr    Cr6+3 0.887380 0.509790 0.251220 1.135892
Cr9   Cr    Cr6+3 0.614160 0.322500 0.747710 1.192167
Cr10  Cr    Cr6+3 0.385840 0.322500 0.252290 1.184127
Cr11  Cr    Cr6+3 0.114160 0.822500 0.747710 1.184125
Cr12  Cr    Cr6+3 0.885840 0.822500 0.252290 1.192167
O49   O     O_3   0.665350 0.165340 0.749070 -0.342768
O50   O     O_3   0.334650 0.165340 0.250930 -0.372785
O51   O     O_3   0.165350 0.665340 0.749070 -0.372785
O52   O     O_3   0.834650 0.665340 0.250930 -0.342768
C25   C     C_2   0.481176 0.162911 0.910374 -0.063177
C26   C     C_2   0.443794 0.162892 0.067012 -0.024155
C27   C     C_2   0.056207 0.662893 0.932988 -0.024155
C28   C     C_2   0.018825 0.662912 0.089626 -0.063180
C29   C     C_2   0.499440 0.111554 0.034895 0.247199
C30   C     C_2   0.492726 0.075751 0.959157 0.133082
C31   C     C_2   0.007276 0.575751 0.040844 0.133077
C32   C     C_2   0.000561 0.611554 0.965105 0.247199
C33   C     C_R   0.678932 0.405665 0.977438 0.161816
C34   C     C_R   0.329907 0.391581 0.018489 0.107025
C35   C     C_R   0.170092 0.891572 0.981513 0.107031
C36   C     C_R   0.821067 0.905666 0.022562 0.161817
C37   C     C_R   0.684117 0.423098 0.051601 0.167898
C38   C     C_R   0.322810 0.402788 0.942361 0.158344
C39   C     C_R   0.177188 0.902778 0.057641 0.158351
C40   C     C_R   0.815883 0.923099 0.948399 0.167897
C41   C     C_R   0.746054 0.389955 0.085496 -0.042971
C42   C     C_R   0.256682 0.382232 0.912292 -0.045869
C43   C     C_R   0.243316 0.882225 0.087710 -0.045860
C44   C     C_R   0.753946 0.889956 0.914504 -0.042972
C45   C     C_R   0.792686 0.313108 0.051311 0.173182
C46   C     C_R   0.210370 0.306788 0.946970 0.137886
C47   C     C_R   0.289629 0.806780 0.053032 0.137880
C48   C     C_R   0.707315 0.813107 0.948689 0.173181
C49   C     C_R   0.795452 0.313242 0.977193 0.141019
C50   C     C_R   0.213952 0.296411 0.020313 0.109826
C51   C     C_R   0.286047 0.796405 0.979689 0.109816
C52   C     C_R   0.704549 0.813241 0.022807 0.141017
C53   C     C_R   0.736368 0.358152 0.938162 -0.056995
C54   C     C_R   0.271958 0.343434 0.059124 -0.108421
C55   C     C_R   0.228040 0.843428 0.940877 -0.108417
C56   C     C_R   0.763632 0.858152 0.061838 -0.056995
C57   C     C_R   0.492705 0.281349 0.536260 0.190173
C58   C     C_R   0.506683 0.281458 0.463987 0.188694
C59   C     C_R   0.993317 0.781458 0.536013 0.188694
C60   C     C_R   0.007295 0.781350 0.463740 0.190173
C61   C     C_R   0.500493 0.171575 0.426266 -0.015850
C62   C     C_R   0.499201 0.171464 0.573896 -0.014031
C63   C     C_R   0.000799 0.671464 0.426104 -0.014031
C64   C     C_R   0.999506 0.671575 0.573734 -0.015850
C65   C     C_R   0.498700 0.061962 0.463227 -0.182178
C66   C     C_R   0.501124 0.061912 0.536876 -0.181796
C67   C     C_R   0.998876 0.561912 0.463124 -0.181796
C68   C     C_R   0.001300 0.561962 0.536773 -0.182178
C69   C     C_R   0.796340 0.326055 0.531024 -0.135910
C70   C     C_R   0.203689 0.325985 0.468991 -0.136550
C71   C     C_R   0.296311 0.825985 0.531009 -0.136550
C72   C     C_R   0.703659 0.826056 0.468976 -0.135910
C73   C     C_R   0.797833 0.336406 0.458295 -0.134525
C74   C     C_R   0.202204 0.336340 0.541722 -0.135700
C75   C     C_R   0.297796 0.836340 0.458278 -0.135699
C76   C     C_R   0.702167 0.836406 0.541705 -0.134525
C77   C     C_R   0.753807 0.418889 0.424097 0.045543
C78   C     C_R   0.246204 0.418872 0.575911 0.044014
C79   C     C_R   0.253795 0.918872 0.424089 0.044014
C80   C     C_R   0.746193 0.918889 0.575903 0.045543
C81   C     C_R   0.704388 0.484629 0.463552 -0.085930
C82   C     C_R   0.295588 0.484669 0.536443 -0.086141
C83   C     C_R   0.204412 0.984669 0.463557 -0.086141
C84   C     C_R   0.795612 0.984628 0.536448 -0.085930
C85   C     C_R   0.700756 0.470179 0.536945 -0.118809
C86   C     C_R   0.299193 0.470254 0.463046 -0.119242
C87   C     C_R   0.200807 0.970254 0.536954 -0.119242
C88   C     C_R   0.799244 0.970179 0.463055 -0.118809
C89   C     C_R   0.747620 0.391979 0.571080 0.021433
C90   C     C_R   0.252371 0.391974 0.428923 0.020106
C91   C     C_R   0.247629 0.891974 0.571077 0.020106
C92   C     C_R   0.752380 0.891979 0.428920 0.021433
N1    N     N_R   0.567036 0.094608 0.068985 0.158426
O53   O     O_R   0.575147 0.097773 0.137699 -0.218591
O54   O     O_R   0.622494 0.080015 0.029738 -0.325240
N2    N     N_R   0.508206 0.952538 0.940603 0.125976
O55   O     O_R   0.514614 0.874033 0.991440 -0.155368
O56   O     O_R   0.497286 0.912226 0.876565 -0.216470
N3    N     N_R   0.991798 0.452539 0.059399 0.125972
O57   O     O_R   0.985389 0.374032 0.008563 -0.155368
O58   O     O_R   0.002723 0.412230 0.123437 -0.216484
N4    N     N_R   0.932966 0.594606 0.931016 0.158427
O59   O     O_R   0.924853 0.597786 0.862303 -0.218593
O60   O     O_R   0.877508 0.580007 0.970264 -0.325236
H1    H     H_    0.836518 0.284496 0.429385 0.153475
H2    H     H_    0.163544 0.284390 0.570643 0.153867
H3    H     H_    0.336456 0.784390 0.429357 0.153867
H4    H     H_    0.663482 0.784496 0.570615 0.153475
H5    H     H_    0.670364 0.549804 0.438146 0.171543
H6    H     H_    0.329603 0.549862 0.561843 0.171788
H7    H     H_    0.170397 0.049862 0.438157 0.171788
H8    H     H_    0.829636 0.049804 0.561854 0.171543
H9    H     H_    0.661974 0.520024 0.566842 0.171531
H10   H     H_    0.337913 0.520201 0.433131 0.172167
H11   H     H_    0.162087 0.020201 0.566869 0.172166
H12   H     H_    0.838026 0.020023 0.433158 0.171532
H13   H     H_    0.395760 0.173624 0.036451 -0.016875
H14   H     H_    0.457438 0.245377 0.928530 0.174202
H15   H     H_    0.042562 0.745379 0.071471 0.174200
H16   H     H_    0.104241 0.673624 0.963548 -0.016889
N5    N     N_R   0.611528 0.414023 0.945846 0.128543
O61   O     O_R   0.593707 0.504853 0.906303 -0.147617
O62   O     O_R   0.564396 0.338690 0.966382 -0.295657
N6    N     N_R   0.393239 0.430846 0.053544 0.121083
O63   O     O_R   0.391504 0.512958 0.102291 -0.162813
O64   O     O_R   0.454211 0.397247 0.031467 -0.218031
N7    N     N_R   0.106760 0.930841 0.946457 0.121083
O65   O     O_R   0.108498 0.012955 0.897712 -0.162808
O66   O     O_R   0.045787 0.897248 0.968536 -0.218027
N8    N     N_R   0.888471 0.914022 0.054155 0.128543
O67   O     O_R   0.906294 0.004854 0.093696 -0.147617
O68   O     O_R   0.935602 0.838688 0.033619 -0.295662
N9    N     N_R   0.621862 0.437013 0.094010 0.156105
O69   O     O_R   0.611668 0.532346 0.132686 -0.209968
O70   O     O_R   0.585680 0.341467 0.108940 -0.207211
N10   N     N_R   0.380593 0.421568 0.893332 0.097478
O71   O     O_R   0.437318 0.480098 0.910013 -0.122553
O72   O     O_R   0.377108 0.374441 0.829950 -0.323230
N11   N     N_R   0.119406 0.921567 0.106669 0.097478
O73   O     O_R   0.062684 0.980106 0.089988 -0.122544
O74   O     O_R   0.122890 0.874446 0.170053 -0.323229
N12   N     N_R   0.878137 0.937014 0.905990 0.156105
O75   O     O_R   0.888332 0.032347 0.867315 -0.209968
O76   O     O_R   0.914320 0.841469 0.891060 -0.207207
N13   N     N_R   0.832974 0.229931 0.093248 0.127246
O77   O     O_R   0.899985 0.246090 0.101657 -0.135470
O78   O     O_R   0.800112 0.160447 0.137831 -0.285204
N14   N     N_R   0.158356 0.242546 0.906587 0.149469
O79   O     O_R   0.092053 0.264012 0.917109 -0.152853
O80   O     O_R   0.177391 0.190007 0.847718 -0.274946
N15   N     N_R   0.341643 0.742541 0.093416 0.149462
O81   O     O_R   0.407946 0.764015 0.082896 -0.152855
O82   O     O_R   0.322608 0.690004 0.152285 -0.274952
N16   N     N_R   0.667028 0.729929 0.906751 0.127245
O83   O     O_R   0.600017 0.746086 0.898342 -0.135470
O84   O     O_R   0.699891 0.660445 0.862169 -0.285204
N17   N     N_R   0.858864 0.272679 0.943351 0.138325
O85   O     O_R   0.891655 0.344399 0.899994 -0.180876
O86   O     O_R   0.893051 0.181047 0.968820 -0.168312
N18   N     N_R   0.156273 0.240173 0.054375 0.126764
O87   O     O_R   0.112262 0.306625 0.088808 -0.192894
O88   O     O_R   0.135243 0.137020 0.031234 -0.224824
N19   N     N_R   0.343733 0.740189 0.945625 0.126765
O89   O     O_R   0.387734 0.806661 0.911192 -0.192928
O90   O     O_R   0.364776 0.637040 0.968762 -0.224781
N20   N     N_R   0.641136 0.772677 0.056649 0.138324
O91   O     O_R   0.608345 0.844396 0.100006 -0.180872
O92   O     O_R   0.606950 0.681044 0.031180 -0.168313
N21   N     N_R   0.475969 0.392388 0.572071 0.110393
O93   O     O_R   0.518689 0.483689 0.569125 -0.303994
O94   O     O_R   0.424934 0.394504 0.617802 -0.320894
N22   N     N_R   0.523298 0.392661 0.428303 0.110662
O95   O     O_R   0.480414 0.483734 0.431218 -0.304721
O96   O     O_R   0.574511 0.395220 0.382789 -0.323236
N23   N     N_R   0.976702 0.892661 0.571697 0.110662
O97   O     O_R   0.019586 0.983734 0.568782 -0.304721
O98   O     O_R   0.925488 0.895220 0.617212 -0.323236
N24   N     N_R   0.024031 0.892388 0.427929 0.110393
O99   O     O_R   0.981310 0.983689 0.430876 -0.303994
O100  O     O_R   0.075065 0.894504 0.382198 -0.320893
H17   H     H_    0.494265 0.976863 0.435339 0.165994
H18   H     H_    0.505742 0.976793 0.564714 0.165472
H19   H     H_    0.994258 0.476793 0.435286 0.165472
H20   H     H_    0.005735 0.476863 0.564661 0.165994
H21   H     H_    0.832661 0.263453 0.555463 0.149183
H22   H     H_    0.167388 0.263345 0.444558 0.149258
H23   H     H_    0.332611 0.763345 0.555442 0.149258
H24   H     H_    0.667338 0.763453 0.444537 0.149183

loop_
_geom_bond_atom_site_label_1
_geom_bond_atom_site_label_2
_geom_bond_distance
_ccdc_geom_bond_type
C10   C54   1.515150 S    
N14   O79   1.302349 A    
Cr11  O51   1.998957 S    
N11   O73   1.298879 A    
O4    C12   1.283318 A    
C18   O42   1.271276 A    
C29   C30   1.482975 S    
C24   C92   1.451060 S    
C7    C27   1.460698 S    
O39   C19   1.291055 A    
C74   H2    1.083846 S    
O29   C13   1.276881 A    
C78   C82   1.405770 A    
C58   N22   1.440648 S    
C31   C32   1.482975 S    
C36   C40   1.410335 A    
C80   C84   1.405766 A    
N18   O87   1.292929 A    
O26   C22   1.262950 A    
C59   C64   1.415403 A    
O23   Cr11  1.952410 S    
C59   C60   1.385432 A    
N4    O60   1.301997 A    
C65   H17   1.083365 S    
C1    C44   1.459819 S    
C69   C73   1.372225 A    
N11   O74   1.302511 A    
C15   C78   1.451049 S    
O5    C1    1.282655 A    
N1    O53   1.300547 A    
C4    O12   1.269834 A    
C69   C89   1.403972 A    
O24   C12   1.313952 A    
N3    O58   1.300046 A    
N23   O97   1.301430 A    
C47   N15   1.435803 S    
C16   O36   1.270560 A    
C31   N3    1.442174 S    
N15   O82   1.303652 A    
C42   C46   1.382286 A    
C4    C41   1.459819 S    
C72   C92   1.403971 A    
C37   N9    1.440933 S    
N5    O62   1.287886 A    
O47   C23   1.278088 A    
O20   Cr12  2.060386 S    
C33   N5    1.416400 S    
N22   O96   1.301270 A    
O21   C9    1.313953 A    
O8    Cr4   1.958206 S    
C71   C91   1.403979 A    
N22   O95   1.301430 A    
N6    O64   1.291070 A    
O30   C14   1.276873 A    
C25   C30   1.350312 D    
N9    O70   1.296529 A    
C1    O9    1.269836 A    
O44   Cr12  2.071086 S    
C81   C85   1.390779 A    
C85   C89   1.399430 A    
C27   C32   1.349184 D    
C82   C86   1.390782 A    
C75   C79   1.396859 A    
C72   C76   1.372223 A    
O11   Cr7   2.076532 S    
C88   C92   1.399433 A    
C29   N1    1.449049 S    
N10   O71   1.298892 A    
C34   C38   1.442037 A    
C16   C77   1.451032 S    
C13   C80   1.451031 S    
N24   O100  1.301299 A    
C86   C90   1.399374 A    
C75   H3    1.083846 S    
C36   C56   1.424521 A    
O27   Cr3   2.075778 S    
O3    Cr3   2.075064 S    
N21   O93   1.301464 A    
C46   C50   1.384706 A    
C73   H1    1.083846 S    
O2    Cr2   2.075066 S    
O48   C24   1.278049 A    
C86   H10   1.082622 S    
C52   N20   1.440741 S    
O2    C10   1.310040 A    
C40   C44   1.388976 A    
C76   C80   1.396867 A    
N8    O67   1.296927 A    
O42   Cr10  2.071086 S    
Cr5   O49   1.997880 S    
O18   Cr10  2.060386 S    
C30   N2    1.442176 S    
C22   C90   1.451100 S    
C27   H16   1.085501 S    
Cr8   O52   1.997880 S    
O17   Cr9   2.060389 S    
C2    C43   1.479259 S    
N9    O69   1.298869 A    
C3    O11   1.273328 A    
C45   N13   1.434722 S    
C64   C68   1.401486 A    
Cr7   O51   1.997880 S    
C14   O34   1.270581 A    
O6    Cr2   1.958206 S    
C63   C67   1.401515 A    
O31   Cr3   1.954696 S    
C9    C53   1.494570 S    
O24   Cr12  1.952412 S    
O9    Cr5   2.076532 S    
C84   C88   1.390779 A    
O30   Cr2   1.954697 S    
C37   C41   1.388978 A    
N16   O83   1.299151 A    
O22   C10   1.310332 A    
O1    C9    1.283317 A    
N7    O65   1.292835 A    
O48   Cr12  1.941848 S    
Cr12  O52   1.998958 S    
C35   C39   1.442041 A    
C81   H5    1.081423 S    
C17   C62   1.453997 S    
O16   Cr8   1.943558 S    
N12   O75   1.298866 A    
C68   H20   1.083366 S    
O7    Cr3   1.958206 S    
C19   C64   1.454117 S    
Cr10  O50   1.998958 S    
C35   C55   1.448073 A    
C5    C25   1.470861 S    
C28   C31   1.350310 D    
C21   C89   1.451060 S    
Cr4   O52   1.981553 S    
O40   C20   1.290911 A    
O43   Cr11  2.071087 S    
N6    O63   1.292835 A    
O12   Cr8   2.076533 S    
N2    O56   1.300045 A    
C88   H12   1.082676 S    
C12   C56   1.494571 S    
O15   C7    1.296580 A    
N15   O81   1.302351 A    
N7    O66   1.291068 A    
C51   N19   1.419506 S    
N17   O85   1.301181 A    
C57   N21   1.440714 S    
C38   N10   1.454372 S    
O46   Cr10  1.941848 S    
O39   Cr7   1.955563 S    
O25   C21   1.262968 A    
C33   C37   1.410332 A    
O7    C3    1.285921 A    
N19   O89   1.292934 A    
C26   H13   1.085504 S    
O3    C11   1.310041 A    
O8    C4    1.282657 A    
C23   C91   1.451100 S    
C11   C55   1.515162 S    
C3    C42   1.479243 S    
C85   H9    1.082675 S    
N13   O77   1.299149 A    
C6    C26   1.460695 S    
N23   O98   1.301270 A    
C84   H8    1.081422 S    
O47   Cr11  1.941847 S    
Cr2   O50   1.981553 S    
N20   O92   1.298351 A    
N21   O94   1.301299 A    
O35   Cr7   2.062975 S    
C49   N17   1.440742 S    
C57   C58   1.385432 A    
C50   C54   1.421528 A    
C67   H19   1.083366 S    
C59   N23   1.440648 S    
C49   C53   1.431267 A    
Cr3   O51   1.981553 S    
O14   Cr6   1.943558 S    
N19   O90   1.288142 A    
N14   O80   1.303651 A    
O21   Cr9   1.952410 S    
C79   C83   1.405769 A    
C7    O19   1.322849 A    
C73   C77   1.396866 A    
C60   C63   1.415113 A    
C61   C65   1.401487 A    
C74   C78   1.396859 A    
C87   H11   1.082623 S    
C8    C28   1.470859 S    
O23   C11   1.310338 A    
C36   N8    1.416400 S    
C70   H22   1.081926 S    
C69   H21   1.081945 S    
C60   N24   1.440713 S    
C67   C68   1.384842 A    
N8    O68   1.287886 A    
C48   C52   1.394308 A    
C26   C29   1.349185 D    
C39   C43   1.398186 A    
C65   C66   1.384842 A    
O26   Cr2   2.075776 S    
O25   Cr1   2.075778 S    
C44   C48   1.391325 A    
C19   O43   1.271277 A    
C32   N4    1.449051 S    
C5    O17   1.291518 A    
O37   C17   1.290911 A    
O22   Cr10  1.952412 S    
O28   C24   1.262970 A    
N24   O99   1.301465 A    
O14   C6    1.296581 A    
C43   C47   1.382288 A    
C40   N12   1.440931 S    
C20   C63   1.453997 S    
C46   N14   1.435805 S    
C48   N16   1.434722 S    
C8    O20   1.291516 A    
C71   H23   1.081925 S    
O31   C15   1.276875 A    
C28   H15   1.077235 S    
N18   O88   1.288133 A    
O6    C2    1.285927 A    
C15   O35   1.270581 A    
C17   O41   1.271458 A    
C14   C79   1.451049 S    
C50   N18   1.419499 S    
C45   C49   1.394308 A    
C70   C74   1.372259 A    
O5    Cr1   1.958206 S    
C71   C75   1.372259 A    
C51   C55   1.421533 A    
C87   C91   1.399374 A    
O40   Cr8   1.955562 S    
N16   O84   1.301564 A    
C20   O44   1.271459 A    
O1    Cr1   2.075064 S    
N2    O55   1.298514 A    
C58   C61   1.415403 A    
O19   Cr11  2.060389 S    
Cr1   O49   1.981553 S    
N17   O86   1.298350 A    
O32   C16   1.276878 A    
O41   Cr9   2.071087 S    
C25   H14   1.077236 S    
C35   N7    1.440588 S    
O13   Cr5   1.943556 S    
Cr6   O50   1.997880 S    
N5    O61   1.296929 A    
C70   C90   1.403979 A    
N4    O59   1.300543 A    
C41   C45   1.391326 A    
O45   C21   1.278049 A    
C83   C87   1.390782 A    
C82   H6    1.081411 S    
O34   Cr6   2.062975 S    
C77   C81   1.405765 A    
N13   O78   1.301564 A    
O33   Cr5   2.062975 S    
C13   O33   1.270560 A    
C38   C42   1.398187 A    
C83   H7    1.081410 S    
O10   Cr6   2.076533 S    
C33   C53   1.424524 A    
N20   O91   1.301183 A    
C52   C56   1.431265 A    
C39   N11   1.454372 S    
O4    Cr4   2.075066 S    
N3    O57   1.298515 A    
C76   H4    1.083845 S    
O29   Cr1   1.954696 S    
C2    O10   1.273327 A    
C66   H18   1.083365 S    
O28   Cr4   2.075776 S    
C57   C62   1.415111 A    
O38   C18   1.291055 A    
O46   C22   1.278088 A    
C18   C61   1.454118 S    
N1    O54   1.301991 A    
C6    O18   1.322849 A    
C62   C66   1.401517 A    
O45   Cr9   1.941847 S    
C72   H24   1.081947 S    
C47   C51   1.384714 A    
O32   Cr4   1.954697 S    
O37   Cr5   1.955563 S    
O36   Cr8   2.062975 S    
N12   O76   1.296513 A    
C34   N6    1.440587 S    
O16   C8    1.275985 A    
N10   O72   1.302507 A    
Cr9   O49   1.998957 S    
O15   Cr7   1.943556 S    
C34   C54   1.448076 A    
O38   Cr6   1.955562 S    
O27   C23   1.262949 A    
O13   C5    1.275981 A    
