data_mof_unit_43994.cif
_audit_creation_date              2012-12-11T14:42:09-0500
_audit_creation_method            fapswitch 2.2
_symmetry_space_group_name_H-M    P1
_symmetry_Int_Tables_number       1
_space_group_crystal_system       triclinic
_cell_length_a                    18.96741
_cell_length_b                    10.930313
_cell_length_c                    18.800516
_cell_angle_alpha                 89.853075
_cell_angle_beta                  89.985267
_cell_angle_gamma                 90.104813
_cell_volume                      3897.69839467

loop_
_atom_site_label
_atom_site_type_symbol
_atom_type_description
_atom_site_fract_x
_atom_site_fract_y
_atom_site_fract_z
_atom_type_partial_charge
C1    C     C_R   0.708201 0.002163 0.861139 0.580529
C2    C     C_R   0.273591 0.954603 0.146246 0.547361
C3    C     C_R   0.226571 0.454141 0.853633 0.558624
C4    C     C_R   0.791618 0.501497 0.138777 0.554955
C5    C     C_R   0.718959 0.522892 0.029636 -0.127093
C6    C     C_R   0.310289 0.434352 0.953525 -0.141264
C7    C     C_R   0.189451 0.931435 0.046887 -0.132681
C8    C     C_R   0.783197 0.018478 0.968960 -0.128160
C9    C     C_R   0.781061 0.480844 0.062512 -0.021340
C10   C     C_R   0.247416 0.397624 0.921067 -0.014849
C11   C     C_R   0.253244 0.898428 0.078698 -0.020265
C12   C     C_R   0.719194 0.982189 0.937466 -0.015315
C13   C     C_R   0.832649 0.421278 0.020996 0.140171
C14   C     C_R   0.201169 0.317358 0.958043 0.153196
C15   C     C_R   0.300566 0.821183 0.041285 0.147484
C16   C     C_R   0.666453 0.928549 0.980288 0.145860
C17   C     C_R   0.820567 0.403272 0.949601 -0.128950
C18   C     C_R   0.216466 0.283977 0.026983 -0.129006
C19   C     C_R   0.285227 0.787327 0.972569 -0.131651
C20   C     C_R   0.679154 0.909417 0.051572 -0.119424
C21   C     C_R   0.754837 0.429369 0.919014 -0.008127
C22   C     C_R   0.274033 0.334219 0.062962 -0.023059
C23   C     C_R   0.226308 0.833834 0.937132 -0.020480
C24   C     C_R   0.746102 0.929794 0.080796 -0.006878
C25   C     C_R   0.520211 0.282177 0.529747 -0.138827
C26   C     C_R   0.519504 0.279055 0.457145 -0.137023
C27   C     C_R   0.020528 0.782128 0.529652 -0.138635
C28   C     C_R   0.019761 0.778994 0.457044 -0.137193
C29   C     C_R   0.505146 0.168865 0.422539 0.047702
C30   C     C_R   0.512809 0.173486 0.569110 0.040085
C31   C     C_R   0.005279 0.668833 0.422463 0.047723
C32   C     C_R   0.013000 0.673482 0.569032 0.039967
C33   C     C_R   0.502334 0.059381 0.460777 -0.119805
C34   C     C_R   0.504218 0.062046 0.534343 -0.137382
C35   C     C_R   0.002452 0.559361 0.460707 -0.119738
C36   C     C_R   0.004349 0.562047 0.534272 -0.137497
C37   C     C_R   0.823091 0.415689 0.549259 0.262805
C38   C     C_R   0.177214 0.412703 0.451300 0.264997
C39   C     C_R   0.323103 0.915454 0.549216 0.262647
C40   C     C_R   0.677216 0.913019 0.451233 0.265108
C41   C     C_R   0.832415 0.443487 0.477710 -0.123390
C42   C     C_R   0.167955 0.440595 0.522781 -0.122343
C43   C     C_R   0.332415 0.943273 0.477664 -0.123438
C44   C     C_R   0.667946 0.940822 0.522723 -0.122306
C45   C     C_R   0.526827 0.178528 0.848727 0.560489
C46   C     C_R   0.441972 0.181415 0.141449 0.546058
C47   C     C_R   0.027876 0.677034 0.848780 0.556368
C48   C     C_R   0.939411 0.682911 0.142383 0.546268
C49   C     C_R   0.775529 0.475144 0.434943 -0.010989
C50   C     C_R   0.224786 0.474097 0.565162 -0.010770
C51   C     C_R   0.275547 0.975197 0.434945 -0.010330
C52   C     C_R   0.724795 0.974088 0.565153 -0.011406
C53   C     C_R   0.708101 0.485301 0.464421 -0.158278
C54   C     C_R   0.292210 0.484404 0.535628 -0.158555
C55   C     C_R   0.208159 0.985663 0.464476 -0.158358
C56   C     C_R   0.792247 0.984184 0.535657 -0.158436
C57   C     C_R   0.697976 0.461052 0.536222 -0.188797
C58   C     C_R   0.302378 0.459462 0.463983 -0.189441
C59   C     C_R   0.198046 0.961398 0.536280 -0.189681
C60   C     C_R   0.802426 0.959257 0.464012 -0.188566
C61   C     C_R   0.754787 0.422364 0.578567 0.045997
C62   C     C_R   0.245451 0.420742 0.421752 0.043163
C63   C     C_R   0.254824 0.922396 0.578572 0.044963
C64   C     C_R   0.745476 0.920789 0.421736 0.044150
C65   C     C_R   0.738969 0.366880 0.851910 0.559843
C66   C     C_R   0.276728 0.311831 0.140059 0.552006
C67   C     C_R   0.223261 0.811568 0.859999 0.570547
C68   C     C_R   0.761291 0.866726 0.147900 0.549911
C69   C     C_R   0.710996 0.998868 0.639718 0.559376
C70   C     C_R   0.289194 0.999111 0.360158 0.561844
C71   C     C_R   0.210993 0.498875 0.639722 0.559326
C72   C     C_R   0.789189 0.499096 0.360161 0.562515
C73   C     C_R   0.531730 0.177067 0.643251 0.549628
C74   C     C_R   0.472520 0.176143 0.353607 0.556086
C75   C     C_R   0.031789 0.677071 0.643213 0.549268
C76   C     C_R   0.972548 0.676140 0.353583 0.556944
C77   C     C_R   0.740208 0.364666 0.647073 0.564030
C78   C     C_R   0.259886 0.364227 0.353061 0.576368
C79   C     C_R   0.240213 0.864670 0.647073 0.572962
C80   C     C_R   0.759887 0.864245 0.353053 0.568264
C81   C     C_2   0.485600 0.179458 0.914452 -0.110015
C82   C     C_2   0.466909 0.170494 0.068350 -0.076927
C83   C     C_2   0.992785 0.665596 0.916438 -0.072553
C84   C     C_2   0.959386 0.681855 0.068257 -0.090267
C85   C     C_2   0.436806 0.090833 0.022847 -0.133894
C86   C     C_2   0.459587 0.081537 0.947763 -0.122235
C87   C     C_2   0.002686 0.597649 0.041568 -0.104946
C88   C     C_2   0.023147 0.595762 0.966623 -0.113255
C89   C     C_R   0.704311 0.494280 0.958948 0.149418
C90   C     C_R   0.324114 0.403781 0.024111 0.140045
C91   C     C_R   0.175275 0.899628 0.976604 0.154755
C92   C     C_R   0.798056 0.989326 0.039519 0.141420
Cr1   Cr    Cr6+3 0.769270 0.163730 0.750710 1.033633
Cr2   Cr    Cr6+3 0.230730 0.163730 0.249290 1.027249
Cr3   Cr    Cr6+3 0.269270 0.663730 0.750710 1.025699
Cr4   Cr    Cr6+3 0.730730 0.663730 0.249290 1.033469
Cr5   Cr    Cr6+3 0.612620 0.009790 0.748780 1.065672
Cr6   Cr    Cr6+3 0.387380 0.009790 0.251220 1.059913
Cr7   Cr    Cr6+3 0.112620 0.509790 0.748780 1.055409
Cr8   Cr    Cr6+3 0.887380 0.509790 0.251220 1.065244
Cr9   Cr    Cr6+3 0.614160 0.322500 0.747710 1.061434
Cr10  Cr    Cr6+3 0.385840 0.322500 0.252290 1.073148
Cr11  Cr    Cr6+3 0.114160 0.822500 0.747710 1.072174
Cr12  Cr    Cr6+3 0.885840 0.822500 0.252290 1.060707
H1    H     H_    0.395863 0.029418 0.041474 0.166591
H2    H     H_    0.455567 0.994528 0.920550 0.206068
H3    H     H_    0.026512 0.529717 0.076263 0.198764
H4    H     H_    0.068117 0.538660 0.953310 0.177264
H5    H     H_    0.883797 0.436160 0.454431 0.112093
H6    H     H_    0.116630 0.431883 0.546404 0.115532
H7    H     H_    0.383766 0.935763 0.454335 0.112199
H8    H     H_    0.616598 0.932240 0.546304 0.115368
H9    H     H_    0.662930 0.506479 0.431553 0.131821
H10   H     H_    0.337370 0.505945 0.568411 0.134485
H11   H     H_    0.163007 0.007112 0.431642 0.131677
H12   H     H_    0.837420 0.005531 0.568465 0.134680
H13   H     H_    0.644959 0.464856 0.557355 0.130066
H14   H     H_    0.355548 0.462655 0.442970 0.139239
H15   H     H_    0.145054 0.965459 0.557457 0.129607
H16   H     H_    0.855612 0.962256 0.443035 0.139707
H17   H     H_    0.508961 0.231493 0.051348 0.154650
H18   H     H_    0.480007 0.268682 0.939281 0.157032
H19   H     H_    0.940456 0.758030 0.036866 0.138478
H20   H     H_    0.948929 0.726123 0.926822 0.118773
H21   H     H_    0.679643 0.572374 0.059817 0.189777
H22   H     H_    0.347278 0.492332 0.925185 0.173411
H23   H     H_    0.151651 0.986622 0.075690 0.178878
H24   H     H_    0.823763 0.063369 0.937787 0.189625
H25   H     H_    0.861264 0.356740 0.919647 0.192845
H26   H     H_    0.179730 0.223891 0.054196 0.183372
H27   H     H_    0.322881 0.729762 0.945154 0.184927
H28   H     H_    0.637635 0.866851 0.082630 0.195108
H29   H     H_    0.528456 0.370319 0.554603 0.127555
H30   H     H_    0.523953 0.365076 0.428629 0.128578
H31   H     H_    0.028859 0.870247 0.554501 0.127623
H32   H     H_    0.024245 0.864989 0.428509 0.128197
H33   H     H_    0.494646 0.973307 0.433895 0.147699
H34   H     H_    0.501169 0.977540 0.563958 0.155025
H35   H     H_    0.994691 0.473297 0.433828 0.147768
H36   H     H_    0.001213 0.477561 0.563888 0.155030
O1    O     O_R   0.784320 0.290430 0.830510 -0.537016
O2    O     O_R   0.215680 0.290430 0.169490 -0.503308
O3    O     O_R   0.284320 0.790430 0.830510 -0.514999
O4    O     O_R   0.715680 0.790430 0.169490 -0.534176
O5    O     O_R   0.554640 0.080370 0.673500 -0.522350
O6    O     O_R   0.445360 0.080370 0.326500 -0.518161
O7    O     O_R   0.054640 0.580370 0.673500 -0.520201
O8    O     O_R   0.945360 0.580370 0.326500 -0.518873
O9    O     O_R   0.543920 0.282180 0.666790 -0.529322
O10   O     O_R   0.456080 0.282180 0.333210 -0.524702
O11   O     O_R   0.043920 0.782180 0.666790 -0.529685
O12   O     O_R   0.956080 0.782180 0.333210 -0.524536
O13   O     O_R   0.679040 0.374160 0.674430 -0.517280
O14   O     O_R   0.320960 0.374160 0.325570 -0.511701
O15   O     O_R   0.179040 0.874160 0.674430 -0.515053
O16   O     O_R   0.820960 0.874160 0.325570 -0.513646
O17   O     O_3   0.665350 0.165340 0.749070 -0.308022
O18   O     O_3   0.334650 0.165340 0.250930 -0.328701
O19   O     O_3   0.165350 0.665340 0.749070 -0.310498
O20   O     O_3   0.834650 0.665340 0.250930 -0.327591
O21   O     O_R   0.762640 0.040960 0.825200 -0.503613
O22   O     O_R   0.237360 0.040960 0.174800 -0.529997
O23   O     O_R   0.262640 0.540960 0.825200 -0.529196
O24   O     O_R   0.737360 0.540960 0.174800 -0.496057
O25   O     O_R   0.667400 0.923970 0.829950 -0.433016
O26   O     O_R   0.332600 0.923970 0.170050 -0.457030
O27   O     O_R   0.167400 0.423970 0.829950 -0.451396
O28   O     O_R   0.832600 0.423970 0.170050 -0.432311
O29   O     O_R   0.553960 0.081340 0.821780 -0.481198
O30   O     O_R   0.446040 0.081340 0.178220 -0.471254
O31   O     O_R   0.053960 0.581340 0.821780 -0.491721
O32   O     O_R   0.946040 0.581340 0.178220 -0.485681
O33   O     O_R   0.543180 0.283240 0.826740 -0.479676
O34   O     O_R   0.456820 0.283240 0.173260 -0.458438
O35   O     O_R   0.043180 0.783240 0.826740 -0.462151
O36   O     O_R   0.956820 0.783240 0.173260 -0.459497
O37   O     O_R   0.678360 0.375140 0.822710 -0.447036
O38   O     O_R   0.321640 0.375140 0.177290 -0.441573
O39   O     O_R   0.178360 0.875140 0.822710 -0.434756
O40   O     O_R   0.821640 0.875140 0.177290 -0.465463
O41   O     O_R   0.785050 0.289380 0.670560 -0.483151
O42   O     O_R   0.214950 0.289380 0.329440 -0.474692
O43   O     O_R   0.285050 0.789380 0.670560 -0.478422
O44   O     O_R   0.714950 0.789380 0.329440 -0.479023
O45   O     O_R   0.763320 0.039990 0.676930 -0.499021
O46   O     O_R   0.236680 0.039990 0.323070 -0.503302
O47   O     O_R   0.263320 0.539990 0.676930 -0.504820
O48   O     O_R   0.736680 0.539990 0.323070 -0.497290
O49   O     O_R   0.668130 0.922920 0.670000 -0.509422
O50   O     O_R   0.331870 0.922920 0.330000 -0.507937
O51   O     O_R   0.168130 0.422920 0.670000 -0.510316
O52   O     O_R   0.831870 0.422920 0.330000 -0.506348
Br1   Br    Br    0.613042 0.539623 0.923483 -0.378163
Br2   Br    Br    0.411446 0.463317 0.061305 -0.406329
Br3   Br    Br    0.085440 0.950003 0.941314 -0.383172
Br4   Br    Br    0.891710 0.024967 0.072432 -0.383856
Br5   Br    Br    0.917633 0.346498 0.056341 -0.406169
Br6   Br    Br    0.110991 0.258839 0.924779 -0.387546
Br7   Br    Br    0.392453 0.768544 0.073206 -0.379344
Br8   Br    Br    0.578460 0.864385 0.946532 -0.412859
O53   O     O_3   0.880332 0.383161 0.591139 -0.546775
C93   C     C_3   0.909191 0.271891 0.566352 -0.011742
H37   H     H_    0.939833 0.286932 0.516877 0.096742
H38   H     H_    0.867270 0.203467 0.555495 0.140626
C94   C     C_3   0.958440 0.219274 0.622426 -0.345960
H39   H     H_    0.928840 0.200755 0.672290 0.184583
H40   H     H_    0.981503 0.132239 0.602921 0.080462
H41   H     H_    0.001859 0.284681 0.633727 0.153950
O54   O     O_3   0.120068 0.378529 0.409650 -0.540191
C95   C     C_3   0.089651 0.269670 0.436752 -0.012371
H42   H     H_    0.056276 0.289749 0.483649 0.098185
H43   H     H_    0.130550 0.202420 0.452713 0.134177
C96   C     C_3   0.043428 0.211457 0.380011 -0.344953
H44   H     H_    0.075702 0.187779 0.332746 0.185148
H45   H     H_    0.018891 0.126643 0.401370 0.076027
H46   H     H_    0.001057 0.275724 0.363819 0.157981
O55   O     O_3   0.380317 0.882645 0.591072 -0.545117
C97   C     C_3   0.409411 0.771792 0.565923 -0.011459
H47   H     H_    0.440478 0.787710 0.516808 0.096621
H48   H     H_    0.367622 0.703479 0.554291 0.139512
C98   C     C_3   0.458218 0.718338 0.622128 -0.346019
H49   H     H_    0.428194 0.698803 0.671610 0.184191
H50   H     H_    0.481560 0.631746 0.602303 0.079402
H51   H     H_    0.501450 0.783719 0.634216 0.154316
O56   O     O_3   0.620041 0.879195 0.409539 -0.541883
C99   C     C_3   0.589865 0.769852 0.436243 -0.012433
H52   H     H_    0.556895 0.789029 0.483573 0.098139
H53   H     H_    0.630940 0.702363 0.451392 0.135141
C100  C     C_3   0.543180 0.712618 0.379539 -0.344787
H54   H     H_    0.575066 0.689858 0.331824 0.185531
H55   H     H_    0.518873 0.627361 0.400599 0.076939
H56   H     H_    0.500624 0.777119 0.364108 0.157414

loop_
_geom_bond_atom_site_label_1
_geom_bond_atom_site_label_2
_ccdc_geom_bond_type
C58   C62   A    
C87   C88   S    
C79   O43   A    
Cr3   O3    S    
Cr7   O19   S    
Cr8   O32   S    
O53   C93   S    
C14   C18   A    
Cr9   O33   S    
C35   C36   A    
C84   C87   D    
Cr6   O50   S    
C67   O3    A    
C2    O22   A    
C32   C75   S    
C31   C76   S    
C3    O27   A    
Cr12  O36   S    
C21   C89   A    
C94   H39   S    
C84   H19   S    
C15   C19   A    
C66   O38   A    
C98   H49   S    
C13   Br5   S    
Cr3   O19   S    
C32   C36   A    
Cr12  O20   S    
C38   C42   A    
C98   H51   S    
C55   C59   A    
C88   H4    S    
C49   C53   A    
C96   H46   S    
Cr7   O31   S    
C4    O24   A    
C76   O12   A    
C29   C33   A    
C58   H14   S    
Cr6   O30   S    
C65   O1    A    
C23   C67   S    
C40   O56   S    
C9    C13   A    
C22   C66   S    
C52   C69   S    
C77   O13   A    
C46   C82   S    
C11   C15   A    
C8    H24   S    
C72   O48   A    
C12   C16   A    
C75   O11   A    
C49   C72   S    
C77   O41   A    
C46   O34   A    
C80   O16   A    
C8    C92   A    
C51   C70   S    
C47   C83   S    
C83   H20   S    
C22   C90   A    
C25   H29   S    
C2    O26   A    
C82   H17   S    
C34   H34   S    
C81   C86   D    
C16   Br8   S    
C8    C12   A    
Cr11  O19   S    
C44   C52   A    
Cr5   O49   S    
C83   C88   D    
C1    O21   A    
Cr2   O18   S    
C48   O32   A    
C37   C41   A    
C47   O31   A    
C64   C80   S    
Cr10  O18   S    
C86   H2    S    
C1    C12   S    
Cr1   O41   S    
Cr4   O44   S    
C85   H1    S    
C2    C11   S    
C24   C92   A    
C41   C49   A    
C53   H9    S    
O54   C95   S    
Cr7   O27   S    
C96   H45   S    
C19   H27   S    
C62   C78   S    
C93   H37   S    
C30   C34   A    
C17   H25   S    
Cr2   O2    S    
Cr6   O18   S    
Cr8   O52   S    
C33   C34   A    
C6    H22   S    
C10   C14   A    
C61   C77   S    
C30   C73   S    
C53   C57   A    
C19   C23   A    
C78   O14   A    
C39   C43   A    
C29   C74   S    
Cr6   O6    S    
C51   C55   A    
C75   O7    A    
C25   C26   A    
C85   C86   S    
C24   C68   S    
C33   H33   S    
C93   C94   S    
C17   C21   A    
Cr4   O24   S    
C73   O5    A    
C78   O42   A    
Cr5   O17   S    
C20   H28   S    
C7    C11   A    
C50   C71   S    
C95   C96   S    
C5    C9    A    
C100  H54   S    
C26   H30   S    
Cr3   O23   S    
Cr4   O4    S    
C91   Br3   S    
Cr8   O20   S    
C97   H48   S    
C90   Br2   S    
C96   H44   S    
C16   C20   A    
C89   Br1   S    
Cr11  O35   S    
O56   C99   S    
C56   H12   S    
C87   H3    S    
C99   H52   S    
C50   C54   A    
Cr12  O16   S    
Cr1   O17   S    
C36   H36   S    
C39   O55   S    
Cr6   O26   S    
C46   O30   A    
C93   H38   S    
Cr10  O10   S    
C66   O2    A    
C44   H8    S    
Cr11  O15   S    
Cr4   O20   S    
C42   C50   A    
Cr1   O21   S    
Cr3   O47   S    
C95   H43   S    
Cr10  O38   S    
C23   C91   A    
C59   C63   A    
C18   H26   S    
Cr10  O34   S    
Cr9   O13   S    
C69   O49   A    
C82   C85   D    
C69   O45   A    
C7    C91   A    
Cr1   O1    S    
C70   O50   A    
C97   C98   S    
C57   H13   S    
C54   C58   A    
C94   H41   S    
C25   C30   A    
Cr7   O7    S    
C59   H15   S    
Cr3   O43   S    
C73   O9    A    
C27   C32   A    
C28   H32   S    
C4    O28   A    
Cr5   O5    S    
C74   O6    A    
C28   C31   A    
C45   C81   S    
Cr2   O46   S    
C71   O47   A    
C92   Br4   S    
C45   O29   A    
C71   O51   A    
C6    C10   A    
C68   O4    A    
C37   C61   A    
C57   C61   A    
C63   C79   S    
C35   H35   S    
Cr11  O11   S    
C100  H56   S    
C99   C100  S    
C39   C63   A    
C99   H53   S    
C40   C64   A    
Cr8   O28   S    
C81   H18   S    
C60   C64   A    
C21   C65   S    
C3    O23   A    
Cr12  O12   S    
C18   C22   A    
O55   C97   S    
Cr5   O29   S    
C27   H31   S    
Cr9   O17   S    
C100  H55   S    
C3    C10   S    
C6    C90   A    
Cr10  O14   S    
C72   O52   A    
Cr7   O51   S    
C55   H11   S    
C43   C51   A    
C97   H47   S    
Cr12  O40   S    
C65   O37   A    
Cr8   O8    S    
Cr5   O25   S    
C54   H10   S    
C31   C35   A    
Cr9   O9    S    
C68   O40   A    
C15   Br7   S    
C60   H16   S    
Cr11  O39   S    
C80   O44   A    
C38   O54   S    
C42   H6    S    
C47   O35   A    
C67   O39   A    
Cr9   O37   S    
C70   O46   A    
C79   O15   A    
C13   C17   A    
C43   H7    S    
C48   C84   S    
C45   O33   A    
C40   C44   A    
C56   C60   A    
C1    O25   A    
C76   O8    A    
C26   C29   A    
C98   H50   S    
C95   H42   S    
C5    H21   S    
C27   C28   A    
C37   O53   S    
C74   O10   A    
C41   H5    S    
Cr2   O42   S    
C7    H23   S    
C4    C9    S    
C14   Br6   S    
C94   H40   S    
Cr4   O48   S    
C20   C24   A    
C5    C89   A    
Cr2   O22   S    
C52   C56   A    
C48   O36   A    
C38   C62   A    
Cr1   O45   S    
