data_mof_unit_65564.cif
_audit_creation_date              2012-12-10T18:02:42-0500
_audit_creation_method            fapswitch 2.2
_symmetry_space_group_name_H-M    P1
_symmetry_Int_Tables_number       1
_space_group_crystal_system       triclinic
_cell_length_a                    21.749758
_cell_length_b                    21.741529
_cell_length_c                    55.739837
_cell_angle_alpha                 89.998386
_cell_angle_beta                  90.000721
_cell_angle_gamma                 90.009364
_cell_volume                      26357.8632594

loop_
_atom_site_label
_atom_site_type_symbol
_atom_type_description
_atom_site_fract_x
_atom_site_fract_y
_atom_site_fract_z
_atom_type_partial_charge
C1    C     C_R   0.499415 0.381141 0.499854 0.789705
C2    C     C_R   0.527584 0.218581 0.517426 -0.037924
C3    C     C_R   0.407653 0.937773 0.300751 -0.193208
C4    C     C_R   0.524270 0.891340 0.800881 -0.192240
C5    C     C_R   0.092564 0.561885 0.800752 -0.193194
C6    C     C_R   0.475747 0.108675 0.800878 -0.192242
C7    C     C_R   0.907421 0.438132 0.800754 -0.193181
C8    C     C_R   0.014218 0.446034 0.313455 -0.118540
C9    C     C_R   0.546635 0.030664 0.313343 -0.117074
C10   C     C_R   0.985778 0.553977 0.313453 -0.118538
C11   C     C_R   0.453357 0.969313 0.313343 -0.117083
C12   C     C_R   0.511748 0.945441 0.813496 -0.118670
C13   C     C_R   0.782013 0.498357 0.520517 -0.055228
C14   C     C_R   0.046744 0.530514 0.813345 -0.117131
C15   C     C_R   0.488269 0.054575 0.813494 -0.118668
C16   C     C_R   0.953243 0.469501 0.813346 -0.117141
C17   C     C_R   0.999998 0.500005 0.300675 -0.058011
C18   C     C_R   0.499997 0.999987 0.300568 -0.057146
C19   C     C_R   0.500008 0.000007 0.800716 -0.058069
C20   C     C_R   0.999994 0.500007 0.800571 -0.057180
C21   C     C_R   0.554724 0.010594 0.585491 -0.216748
C22   C     C_R   0.995014 0.444452 0.585440 -0.220229
C23   C     C_R   0.445277 0.989409 0.585491 -0.216741
C24   C     C_R   0.472435 0.781417 0.517429 -0.037943
C25   C     C_R   0.004986 0.555533 0.585442 -0.220230
C26   C     C_R   0.054669 0.510892 0.085485 -0.216279
C27   C     C_R   0.495291 0.944426 0.085440 -0.220195
C28   C     C_R   0.945332 0.489109 0.085485 -0.216274
C29   C     C_R   0.504708 0.055558 0.085442 -0.220198
C30   C     C_R   0.014470 0.447139 0.338686 0.637268
C31   C     C_R   0.545686 0.030267 0.338556 0.637085
C32   C     C_R   0.985524 0.552873 0.338684 0.637261
C33   C     C_R   0.454304 0.969714 0.338556 0.637099
C34   C     C_R   0.512055 0.946535 0.838728 0.637233
C35   C     C_R   0.717986 0.001672 0.020514 -0.055271
C36   C     C_R   0.045793 0.530120 0.838559 0.637079
C37   C     C_R   0.487962 0.053482 0.838726 0.637214
C38   C     C_R   0.954195 0.469895 0.838559 0.637091
C39   C     C_R   0.500266 0.943364 0.737192 0.058906
C40   C     C_R   0.052550 0.521119 0.737075 0.059027
C41   C     C_R   0.499743 0.056648 0.737190 0.058905
C42   C     C_R   0.947440 0.478882 0.737076 0.059026
C43   C     C_R   0.002848 0.443435 0.237153 0.058954
C44   C     C_R   0.552472 0.021304 0.237072 0.059079
C45   C     C_R   0.997152 0.556571 0.237151 0.058953
C46   C     C_R   0.027514 0.718578 0.017443 -0.037882
C47   C     C_R   0.447526 0.978659 0.237073 0.059080
C48   C     C_R   0.500004 0.000006 0.724566 0.062518
C49   C     C_R   0.999996 0.499997 0.724459 0.062639
C50   C     C_R   1.000000 0.500003 0.224527 0.062560
C51   C     C_R   0.499999 0.999981 0.224456 0.062658
C52   C     C_R   0.045053 0.533225 0.389280 0.385468
C53   C     C_R   0.456332 0.034940 0.389005 0.379379
C54   C     C_R   0.954938 0.466788 0.389280 0.385467
C55   C     C_R   0.543658 0.965049 0.389007 0.379396
C56   C     C_R   0.546511 0.031183 0.889328 0.386479
C57   C     C_R   0.282014 0.998327 0.020514 -0.055270
C58   C     C_R   0.956471 0.535117 0.889010 0.379458
C59   C     C_R   0.453495 0.968831 0.889327 0.386458
C60   C     C_R   0.043520 0.464892 0.889010 0.379466
C61   C     C_R   0.508247 0.111412 0.723925 -0.123898
C62   C     C_R   0.893456 0.466476 0.723809 -0.124651
C63   C     C_R   0.491760 0.888599 0.723929 -0.123903
C64   C     C_R   0.106535 0.533520 0.723809 -0.124656
C65   C     C_R   0.003152 0.611666 0.223887 -0.123883
C66   C     C_R   0.393591 0.966038 0.223805 -0.124642
C67   C     C_R   0.996848 0.388339 0.223891 -0.123887
C68   C     C_R   0.972485 0.281419 0.017442 -0.037882
C69   C     C_R   0.606407 0.033922 0.223806 -0.124639
C70   C     C_R   0.510503 0.110895 0.698965 -0.167809
C71   C     C_R   0.893206 0.468440 0.698857 -0.167786
C72   C     C_R   0.489501 0.889115 0.698968 -0.167809
C73   C     C_R   0.106789 0.531542 0.698857 -0.167782
C74   C     C_R   0.005439 0.611254 0.198927 -0.167854
C75   C     C_R   0.393336 0.967994 0.198853 -0.167765
C76   C     C_R   0.994562 0.388750 0.198930 -0.167856
C77   C     C_R   0.606665 0.031963 0.198854 -0.167764
C78   C     C_R   0.505015 0.055659 0.686290 -0.019607
C79   C     C_3   0.212013 0.505517 0.547095 -0.600140
C80   C     C_R   0.946557 0.483731 0.686200 -0.018828
C81   C     C_R   0.494988 0.944352 0.686292 -0.019605
C82   C     C_R   0.053440 0.516244 0.686201 -0.018831
C83   C     C_R   0.002476 0.555828 0.186253 -0.019775
C84   C     C_R   0.446627 0.983499 0.186197 -0.018779
C85   C     C_R   0.997525 0.444176 0.186255 -0.019774
C86   C     C_R   0.553375 0.016456 0.186198 -0.018780
C87   C     C_R   0.500002 0.000005 0.699055 -0.050107
C88   C     C_R   0.999997 0.499991 0.698959 -0.050314
C89   C     C_R   0.000000 0.500002 0.199017 -0.050014
C90   C     C_3   0.558715 0.213118 0.541169 -0.591822
C91   C     C_R   0.500000 0.999979 0.198957 -0.050300
C92   C     C_R   0.494720 0.945411 0.661061 0.542264
C93   C     C_R   0.052544 0.515671 0.660987 0.541868
C94   C     C_R   0.505281 0.054598 0.661059 0.542266
C95   C     C_R   0.947456 0.484294 0.660986 0.541870
C96   C     C_R   0.997190 0.445227 0.161025 0.542399
C97   C     C_R   0.552477 0.015891 0.160984 0.541907
C98   C     C_R   0.002812 0.554777 0.161023 0.542400
C99   C     C_R   0.447526 0.984064 0.160984 0.541907
C100  C     C_R   0.999998 0.500003 0.427179 -0.353632
C101  C     C_3   0.787986 0.494541 0.547097 -0.600141
C102  C     C_R   0.499998 1.000000 0.427000 -0.360157
C103  C     C_R   0.500000 0.000003 0.927211 -0.352029
C104  C     C_R   0.999998 0.500003 0.927002 -0.359903
C105  C     C_R   0.280143 0.501393 0.520536 0.034357
C106  C     C_R   0.525900 0.280721 0.517743 0.029813
C107  C     C_R   0.719857 0.498632 0.520537 0.034371
C108  C     C_R   0.474114 0.719277 0.517745 0.029833
C109  C     C_R   0.780142 0.001390 0.020534 0.034427
C110  C     C_R   0.025842 0.780718 0.017758 0.029919
C111  C     C_R   0.219859 0.998609 0.020535 0.034415
C112  C     C_R   0.618993 0.499917 0.499843 0.791863
C113  C     C_3   0.441321 0.786877 0.541176 -0.591850
C114  C     C_R   0.974157 0.219279 0.017756 0.029916
C115  C     C_R   0.314356 0.499885 0.499502 -0.137019
C116  C     C_R   0.498773 0.314731 0.499556 -0.121594
C117  C     C_R   0.685644 0.500111 0.499502 -0.137016
C118  C     C_R   0.501224 0.685270 0.499554 -0.121626
C119  C     C_R   0.814355 0.999885 0.999500 -0.136930
C120  C     C_R   0.998778 0.814729 0.999556 -0.121689
C121  C     C_R   0.185645 0.000117 0.999501 -0.136926
C122  C     C_R   0.001219 0.185271 0.999554 -0.121694
C123  C     C_R   0.281280 0.497788 0.477627 -0.190072
C124  C     C_3   0.712015 0.005524 0.047093 -0.600161
C125  C     C_R   0.471691 0.281828 0.480406 -0.190932
C126  C     C_R   0.718719 0.502178 0.477627 -0.190080
C127  C     C_R   0.528288 0.718176 0.480401 -0.190931
C128  C     C_R   0.781280 0.997794 0.977625 -0.190390
C129  C     C_R   0.971758 0.781825 0.980393 -0.190948
C130  C     C_R   0.218719 0.002212 0.977625 -0.190382
C131  C     C_R   0.028239 0.218178 0.980391 -0.190946
C132  C     C_R   0.216493 0.497712 0.477660 -0.199740
C133  C     C_R   0.471472 0.216977 0.480516 -0.201640
C134  C     C_R   0.783506 0.502254 0.477660 -0.199761
C135  C     C_3   0.058581 0.713113 0.041199 -0.592126
C136  C     C_R   0.528509 0.783026 0.480511 -0.201652
C137  C     C_R   0.716493 0.997719 0.977658 -0.200177
C138  C     C_R   0.971537 0.716975 0.980503 -0.201653
C139  C     C_R   0.283506 0.002286 0.977658 -0.200175
C140  C     C_R   0.028460 0.283028 0.980502 -0.201656
C141  C     C_R   0.184255 0.499911 0.499515 -0.018024
C142  C     C_R   0.500023 0.184622 0.499374 -0.027106
C143  C     C_R   0.815745 0.500088 0.499516 -0.018026
C144  C     C_R   0.499977 0.815378 0.499374 -0.027095
C145  C     C_R   0.684255 0.999913 0.999513 -0.018579
C146  C     C_3   0.287987 0.994462 0.047094 -0.600167
C147  C     C_R   0.000021 0.684620 0.999376 -0.027083
C148  C     C_R   0.315745 0.000087 0.999514 -0.018574
C149  C     C_R   0.999979 0.315380 0.999375 -0.027084
C150  C     C_3   0.305520 0.397393 0.547957 -0.312407
C151  C     C_3   0.649475 0.312126 0.521020 -0.293341
C152  C     C_3   0.694468 0.602658 0.547938 -0.312397
C153  C     C_3   0.350536 0.687895 0.521031 -0.293317
C154  C     C_3   0.805515 0.897393 0.047957 -0.312239
C155  C     C_3   0.149426 0.812063 0.021076 -0.293606
C156  C     C_3   0.194486 0.102592 0.047964 -0.312234
C157  C     C_3   0.941417 0.286880 0.041197 -0.592123
C158  C     C_3   0.850573 0.187933 0.021072 -0.293616
C159  C     C_3   0.141995 0.526860 0.374735 -0.248135
C160  C     C_3   0.436429 0.130378 0.374723 -0.247180
C161  C     C_3   0.858000 0.473156 0.374731 -0.248147
C162  C     C_3   0.563568 0.869606 0.374733 -0.247221
C163  C     C_3   0.643067 0.020529 0.874770 -0.248075
C164  C     C_3   0.936940 0.630634 0.874733 -0.247441
C165  C     C_3   0.356949 0.979491 0.874760 -0.248050
C166  C     C_3   0.063056 0.369374 0.874737 -0.247514
C167  C     C_3   0.071135 0.632678 0.425905 -0.184954
C168  C     C_3   0.283450 0.505308 0.547451 0.937028
C169  C     C_3   0.353253 0.034259 0.425346 -0.178419
C170  C     C_3   0.928866 0.367326 0.425904 -0.184915
C171  C     C_3   0.646744 0.965732 0.425344 -0.178397
C172  C     C_3   0.576999 0.129257 0.926056 -0.188508
C173  C     C_3   0.853409 0.534885 0.925360 -0.178709
C174  C     C_3   0.423020 0.870745 0.926053 -0.188464
C175  C     C_3   0.146592 0.465124 0.925353 -0.178637
C176  C     C_3   0.306935 0.569623 0.579541 -0.194724
C177  C     C_3   0.541874 0.307114 0.582163 -0.214011
C178  C     C_3   0.693067 0.430460 0.579553 -0.194725
C179  C     C_3   0.557065 0.284551 0.541763 0.927400
C180  C     C_3   0.458173 0.692868 0.582166 -0.214027
C181  C     C_3   0.806949 0.069631 0.079535 -0.194816
C182  C     C_3   0.041670 0.807118 0.082183 -0.214155
C183  C     C_3   0.193055 0.930336 0.079532 -0.194797
C184  C     C_3   0.958320 0.192864 0.082180 -0.214133
C185  C     C_3   0.716550 0.494745 0.547453 0.937022
C186  C     C_3   0.442963 0.715444 0.541768 0.927414
C187  C     C_3   0.783451 0.005309 0.047449 0.937002
C188  C     C_R   0.500582 0.618859 0.499853 0.789717
C189  C     C_3   0.056952 0.784547 0.041788 0.927560
C190  C     C_3   0.216551 0.994676 0.047450 0.937002
C191  C     C_3   0.943044 0.215446 0.041786 0.927560
C192  C     C_R   0.500000 0.000004 0.623198 0.357966
C193  C     C_R   0.000000 0.499986 0.623127 0.353461
C194  C     C_R   0.000001 0.500001 0.123181 0.359699
C195  C     C_R   0.500001 0.999984 0.123126 0.353495
C196  C     C_R   0.554619 0.010799 0.610559 -0.108476
C197  C     C_R   0.994927 0.444518 0.610488 -0.106658
C198  C     C_R   0.445381 0.989208 0.610559 -0.108473
C199  C     C_R   0.381006 0.500081 0.499843 0.791865
C200  C     C_R   0.005073 0.555458 0.610490 -0.106667
C201  C     C_R   0.054560 0.511103 0.110553 -0.109165
C202  C     C_R   0.495208 0.944491 0.110488 -0.106651
C203  C     C_R   0.945442 0.488899 0.110553 -0.109166
C204  C     C_R   0.504794 0.055483 0.110490 -0.106653
C205  C     C_R   0.999995 0.500007 0.376646 0.031265
C206  C     C_R   0.499994 0.999993 0.376433 0.039108
C207  C     C_R   0.500004 0.000009 0.876690 0.030528
C208  C     C_R   0.999995 0.500006 0.876436 0.039164
C209  C     C_R   0.042772 0.536363 0.414527 0.276403
C210  C     C_R   0.999420 0.881140 0.999854 0.789742
C211  C     C_R   0.453823 0.032011 0.414243 0.282055
C212  C     C_R   0.957222 0.463646 0.414527 0.276420
C213  C     C_R   0.546172 0.967985 0.414244 0.282054
C214  C     C_R   0.544377 0.034386 0.914575 0.276167
C215  C     C_R   0.953956 0.532198 0.914247 0.281952
C216  C     C_R   0.455626 0.965622 0.914573 0.276178
C217  C     C_R   0.046039 0.467808 0.914248 0.281960
C218  C     C_R   1.000000 0.500001 0.453636 0.959724
C219  C     C_R   0.499999 0.000001 0.453574 0.939140
C220  C     C_R   0.500000 0.000001 0.953647 0.962973
C221  C     C_R   0.118994 0.999919 0.999842 0.791874
C222  C     C_R   0.999999 0.500001 0.953575 0.939495
C223  C     C_R   0.118484 0.499990 0.499982 0.819548
C224  C     C_R   0.500022 0.118604 0.499931 0.811635
C225  C     C_R   0.881516 0.500009 0.499983 0.819544
C226  C     C_R   0.499978 0.881396 0.499931 0.811640
C227  C     C_R   0.618484 0.999991 0.999980 0.820685
C228  C     C_R   0.000022 0.618603 0.999932 0.811746
C229  C     C_R   0.381516 0.000009 0.999980 0.820674
C230  C     C_R   0.999978 0.381397 0.999931 0.811747
C231  C     C_R   0.000000 0.499999 0.546146 0.794118
C232  C     C_R   0.000579 0.118860 0.999853 0.789739
C233  C     C_R   0.500000 0.000000 0.546156 0.794359
C234  C     C_R   0.500000 0.999999 0.046146 0.794132
C235  C     C_R   0.000000 0.500000 0.046155 0.794264
C236  C     C_R   0.500000 0.000001 0.572687 -0.037905
C237  C     C_R   0.000000 0.499995 0.572650 -0.038693
C238  C     C_R   0.000001 0.500000 0.072682 -0.037710
C239  C     C_R   0.500000 0.999995 0.072650 -0.038721
C240  C     C_R   0.009950 0.444052 0.262537 -0.055804
C241  C     C_R   0.549638 0.027669 0.262451 -0.055360
C242  C     C_R   0.990049 0.555955 0.262535 -0.055804
C243  C     C_R   0.881006 0.000081 0.999842 0.791868
C244  C     C_R   0.450358 0.972299 0.262451 -0.055359
C245  C     C_R   0.507389 0.943654 0.762577 -0.055908
C246  C     C_R   0.049737 0.527502 0.762453 -0.055439
C247  C     C_R   0.492624 0.056358 0.762575 -0.055907
C248  C     C_R   0.950250 0.472508 0.762454 -0.055440
C249  C     C_R   0.999999 0.500004 0.275168 -0.057323
C250  C     C_R   0.499998 0.999985 0.275073 -0.057280
C251  C     C_R   0.500007 0.000007 0.775208 -0.057331
C252  C     C_R   0.999994 0.500006 0.775076 -0.057315
C253  C     C_R   0.027784 0.391326 0.275874 0.580811
C254  C     C_R   0.217987 0.501672 0.520516 -0.055232
C255  C     C_R   0.593750 0.061601 0.275792 0.580377
C256  C     C_R   0.972213 0.608682 0.275870 0.580809
C257  C     C_R   0.406245 0.938370 0.275794 0.580379
C258  C     C_R   0.522791 0.890165 0.775914 0.580864
C259  C     C_R   0.093974 0.561273 0.775794 0.580396
C260  C     C_R   0.477222 0.109849 0.775911 0.580861
C261  C     C_R   0.906011 0.438742 0.775796 0.580395
C262  C     C_R   0.029204 0.392567 0.300840 -0.192386
C263  C     C_R   0.592340 0.062202 0.300750 -0.193215
C264  C     C_R   0.970793 0.607443 0.300836 -0.192386
Cu1   Cu    Cu3+1 0.500000 0.500000 0.523790 1.085824
Cu2   Cu    Cu3+1 0.938210 0.500100 0.999860 0.961498
Cu3   Cu    Cu3+1 0.499900 0.938210 0.999860 0.958341
Cu4   Cu    Cu3+1 0.061790 0.499900 0.999860 0.961516
Cu5   Cu    Cu3+1 0.000000 0.000000 0.023790 1.085838
Cu6   Cu    Cu3+1 0.500000 0.500000 0.476000 0.944057
Cu7   Cu    Cu3+1 0.000000 0.000000 0.976000 0.944045
Cu8   Cu    Cu3+1 0.000100 0.561790 0.499860 0.958635
Cu9   Cu    Cu3+1 0.438210 0.000100 0.499860 0.961473
Cu10  Cu    Cu3+1 0.999900 0.438210 0.499860 0.958639
Cu11  Cu    Cu3+1 0.561790 0.999900 0.499860 0.961483
Cu12  Cu    Cu3+1 0.500100 0.061790 0.999860 0.958344
F1    F     F_    0.049375 0.339583 0.265228 -0.671090
F2    F     F_    0.635515 0.099070 0.265179 -0.672092
F3    F     F_    0.950621 0.660423 0.265222 -0.671088
F4    F     F_    0.364481 0.900899 0.265182 -0.672094
F5    F     F_    0.541984 0.837481 0.765269 -0.670893
F6    F     F_    0.135878 0.598584 0.765179 -0.671952
F7    F     F_    0.458027 0.162532 0.765264 -0.670892
F8    F     F_    0.864105 0.401433 0.765183 -0.671958
H1    H     H_    0.516692 0.154170 0.689634 0.192817
H2    H     H_    0.991031 0.400944 0.576118 0.163388
H3    H     H_    0.402896 0.158180 0.364373 0.187104
H4    H     H_    0.441234 0.151936 0.392736 0.178778
H5    H     H_    0.481011 0.132025 0.364942 0.167002
H6    H     H_    0.822153 0.448005 0.364528 0.187542
H7    H     H_    0.838473 0.484577 0.392644 0.175985
H8    H     H_    0.868746 0.516002 0.364632 0.164085
H9    H     H_    0.597098 0.841806 0.364381 0.187107
H10   H     H_    0.558780 0.848055 0.392748 0.178793
H11   H     H_    0.518978 0.867948 0.364957 0.167005
H12   H     H_    0.679994 0.044073 0.864570 0.187257
H13   H     H_    0.402450 0.980908 0.576155 0.161970
H14   H     H_    0.662083 0.008221 0.892679 0.175996
H15   H     H_    0.630418 0.978221 0.864664 0.164068
H16   H     H_    0.903517 0.658567 0.864383 0.186982
H17   H     H_    0.941824 0.652163 0.892748 0.178840
H18   H     H_    0.981532 0.632113 0.864954 0.167075
H19   H     H_    0.320017 0.955942 0.864564 0.187259
H20   H     H_    0.337935 0.991824 0.892666 0.175958
H21   H     H_    0.369605 0.021785 0.864645 0.164068
H22   H     H_    0.096471 0.341448 0.864382 0.186989
H23   H     H_    0.058199 0.347844 0.892753 0.178863
H24   H     H_    0.008969 0.599044 0.576121 0.163382
H25   H     H_    0.018451 0.367888 0.864966 0.167083
H26   H     H_    0.023117 0.641304 0.431988 0.151020
H27   H     H_    0.077933 0.651385 0.407546 0.201921
H28   H     H_    0.102186 0.658333 0.438115 0.165789
H29   H     H_    0.320196 0.057545 0.437473 0.163418
H30   H     H_    0.357432 0.985658 0.431469 0.146942
H31   H     H_    0.333650 0.035839 0.406952 0.199641
H32   H     H_    0.976893 0.358701 0.431978 0.151000
H33   H     H_    0.922042 0.348619 0.407548 0.201928
H34   H     H_    0.897834 0.341670 0.438121 0.165775
H35   H     H_    0.097445 0.519634 0.076148 0.161824
H36   H     H_    0.679795 0.942464 0.437480 0.163410
H37   H     H_    0.642569 0.014344 0.431454 0.146927
H38   H     H_    0.666354 0.964120 0.406952 0.199652
H39   H     H_    0.529483 0.139954 0.932234 0.152302
H40   H     H_    0.584403 0.147762 0.907702 0.202554
H41   H     H_    0.609296 0.153435 0.938234 0.166260
H42   H     H_    0.820454 0.558344 0.937478 0.163527
H43   H     H_    0.857373 0.486277 0.931498 0.147118
H44   H     H_    0.833826 0.536515 0.906964 0.199720
H45   H     H_    0.470537 0.860056 0.932234 0.152293
H46   H     H_    0.491534 0.900892 0.076120 0.163430
H47   H     H_    0.415626 0.852240 0.907698 0.202542
H48   H     H_    0.390724 0.846557 0.938229 0.166255
H49   H     H_    0.142624 0.513756 0.931461 0.147064
H50   H     H_    0.166194 0.463422 0.906961 0.199743
H51   H     H_    0.179534 0.441714 0.937491 0.163499
H52   H     H_    0.343940 0.542076 0.588111 0.191716
H53   H     H_    0.261462 0.557101 0.587281 0.149306
H54   H     H_    0.315321 0.618665 0.583913 0.173963
H55   H     H_    0.575918 0.344849 0.584105 0.188586
H56   H     H_    0.563504 0.262067 0.586470 0.149944
H57   H     H_    0.902556 0.480366 0.076148 0.161825
H58   H     H_    0.504992 0.315172 0.595541 0.178121
H59   H     H_    0.656060 0.458013 0.588117 0.191716
H60   H     H_    0.738538 0.442993 0.587292 0.149324
H61   H     H_    0.684685 0.381422 0.583934 0.173917
H62   H     H_    0.424122 0.655138 0.584109 0.188564
H63   H     H_    0.436553 0.737917 0.586475 0.149943
H64   H     H_    0.495060 0.684798 0.595541 0.178126
H65   H     H_    0.843926 0.042053 0.088108 0.191720
H66   H     H_    0.761462 0.057154 0.087274 0.149285
H67   H     H_    0.815381 0.118666 0.083906 0.173984
H68   H     H_    0.508464 0.099096 0.076123 0.163427
H69   H     H_    0.075789 0.844784 0.084131 0.188482
H70   H     H_    0.063191 0.762031 0.086507 0.149681
H71   H     H_    0.004770 0.815274 0.095543 0.178229
H72   H     H_    0.156074 0.957905 0.088105 0.191716
H73   H     H_    0.238540 0.942812 0.087272 0.149278
H74   H     H_    0.184627 0.881297 0.083900 0.173994
H75   H     H_    0.924217 0.155183 0.084128 0.188487
H76   H     H_    0.936778 0.237941 0.086502 0.149678
H77   H     H_    0.995220 0.184725 0.095543 0.178216
H78   H     H_    0.042903 0.351214 0.310276 0.213960
H79   H     H_    0.627088 0.088449 0.310196 0.213672
H80   H     H_    0.957093 0.648797 0.310270 0.213961
H81   H     H_    0.850765 0.458060 0.689521 0.193188
H82   H     H_    0.372904 0.911528 0.310198 0.213672
H83   H     H_    0.536062 0.849398 0.810316 0.214085
H84   H     H_    0.127406 0.588007 0.810197 0.213756
H85   H     H_    0.463957 0.150617 0.810311 0.214087
H86   H     H_    0.872577 0.412013 0.810200 0.213760
H87   H     H_    0.597043 0.019137 0.620192 0.141356
H88   H     H_    0.991126 0.401420 0.620110 0.144952
H89   H     H_    0.402958 0.980870 0.620192 0.141357
H90   H     H_    0.008874 0.598552 0.620113 0.144946
H91   H     H_    0.096921 0.519698 0.120192 0.140343
H92   H     H_    0.483311 0.845841 0.689639 0.192818
H93   H     H_    0.491629 0.901368 0.120108 0.144957
H94   H     H_    0.903081 0.480304 0.120192 0.140344
H95   H     H_    0.508373 0.098601 0.120112 0.144955
H96   H     H_    0.516184 0.155184 0.732445 0.217629
H97   H     H_    0.849810 0.457833 0.732305 0.217679
H98   H     H_    0.483826 0.844827 0.732450 0.217632
H99   H     H_    0.150180 0.542168 0.732306 0.217674
H100  H     H_    0.009082 0.655750 0.232409 0.217518
H101  H     H_    0.349977 0.957227 0.232301 0.217626
H102  H     H_    0.990920 0.344255 0.232413 0.217523
H103  H     H_    0.149231 0.541918 0.689522 0.193189
H104  H     H_    0.650021 0.042735 0.232302 0.217626
H105  H     H_    0.305094 0.496262 0.460580 0.170480
H106  H     H_    0.449881 0.305961 0.465693 0.162493
H107  H     H_    0.694905 0.503678 0.460579 0.170487
H108  H     H_    0.550085 0.694045 0.465685 0.162502
H109  H     H_    0.805095 0.996272 0.960578 0.170703
H110  H     H_    0.949998 0.805957 0.965668 0.162533
H111  H     H_    0.194904 0.003737 0.960578 0.170705
H112  H     H_    0.049997 0.194048 0.965666 0.162530
H113  H     H_    0.191820 0.496172 0.460783 0.158194
H114  H     H_    0.009651 0.654762 0.189596 0.192777
H115  H     H_    0.449655 0.192335 0.465923 0.163179
H116  H     H_    0.808179 0.503768 0.460783 0.158220
H117  H     H_    0.550311 0.807672 0.465915 0.163174
H118  H     H_    0.691821 0.996182 0.960780 0.161134
H119  H     H_    0.949772 0.692332 0.965898 0.163313
H120  H     H_    0.308177 0.003824 0.960781 0.161127
H121  H     H_    0.050224 0.307674 0.965897 0.163310
H122  H     H_    0.190919 0.549810 0.552709 0.198545
H123  H     H_    0.528467 0.190681 0.554660 0.197784
H124  H     H_    0.809084 0.450256 0.552719 0.198551
H125  H     H_    0.350936 0.957442 0.189518 0.193126
H126  H     H_    0.471581 0.809307 0.554664 0.197789
H127  H     H_    0.690924 0.049819 0.052705 0.198540
H128  H     H_    0.028290 0.690689 0.054678 0.197834
H129  H     H_    0.309078 0.950164 0.052703 0.198540
H130  H     H_    0.971706 0.309300 0.054677 0.197838
H131  H     H_    0.190137 0.463975 0.554944 0.192229
H132  H     H_    0.605479 0.192948 0.539686 0.191640
H133  H     H_    0.809859 0.536094 0.554939 0.192231
H134  H     H_    0.394558 0.807055 0.539698 0.191640
H135  H     H_    0.690135 0.963985 0.054944 0.192224
H136  H     H_    0.990350 0.345242 0.189601 0.192779
H137  H     H_    0.105343 0.692926 0.039737 0.191563
H138  H     H_    0.309866 0.035997 0.054947 0.192225
H139  H     H_    0.894655 0.307068 0.039734 0.191563
H140  H     H_    0.336539 0.395523 0.532150 0.169279
H141  H     H_    0.257418 0.387159 0.542607 0.149343
H142  H     H_    0.320293 0.360547 0.560451 0.208476
H143  H     H_    0.629328 0.344400 0.507729 0.155734
H144  H     H_    0.652483 0.264918 0.513494 0.141061
H145  H     H_    0.697109 0.327817 0.524636 0.216222
H146  H     H_    0.663447 0.604507 0.532130 0.169265
H147  H     H_    0.649065 0.042513 0.189519 0.193128
H148  H     H_    0.742568 0.612891 0.542585 0.149338
H149  H     H_    0.679692 0.639516 0.560425 0.208481
H150  H     H_    0.370667 0.655621 0.507737 0.155754
H151  H     H_    0.347534 0.735106 0.513506 0.141047
H152  H     H_    0.302900 0.672214 0.524650 0.216237
H153  H     H_    0.836532 0.895519 0.032149 0.169281
H154  H     H_    0.757412 0.887161 0.042608 0.149363
H155  H     H_    0.820286 0.860548 0.060452 0.208541
H156  H     H_    0.129331 0.844336 0.007772 0.155798
H157  H     H_    0.152429 0.764848 0.013557 0.141020
H158  H     H_    0.597551 0.019094 0.576155 0.161970
H159  H     H_    0.197060 0.827731 0.024708 0.216211
H160  H     H_    0.163470 0.104473 0.032155 0.169283
H161  H     H_    0.242589 0.112827 0.042615 0.149361
H162  H     H_    0.179713 0.139430 0.060460 0.208537
H163  H     H_    0.870670 0.155663 0.007768 0.155792
H164  H     H_    0.847571 0.235150 0.013552 0.141024
H165  H     H_    0.802939 0.172265 0.024702 0.216203
H166  H     H_    0.177841 0.552008 0.364530 0.187539
H167  H     H_    0.161524 0.515452 0.392650 0.176010
H168  H     H_    0.131254 0.484007 0.364641 0.164076
N1    N     N_R   0.500000 0.000005 0.648992 -0.468685
N2    N     N_R   0.000000 0.499982 0.648917 -0.468090
N3    N     N_R   0.000001 0.500001 0.148965 -0.469075
N4    N     N_R   0.500001 0.999979 0.148915 -0.468100
N5    N     N_R   0.999996 0.500007 0.350782 -0.406406
N6    N     N_R   0.499994 0.999992 0.350617 -0.403347
N7    N     N_R   0.500008 0.000009 0.850825 -0.406590
N8    N     N_R   0.999994 0.500007 0.850620 -0.403341
O1    O     O_R   0.500120 0.409780 0.520070 -0.541982
O2    O     O_R   0.590150 0.500100 0.479710 -0.600426
O3    O     O_R   0.499900 0.590150 0.479710 -0.598243
O4    O     O_R   0.409850 0.499900 0.479710 -0.600423
O5    O     O_R   0.000100 0.909850 0.979710 -0.598262
O6    O     O_R   0.090150 0.000100 0.979710 -0.600415
O7    O     O_R   0.999900 0.090150 0.979710 -0.598263
O8    O     O_R   0.909850 0.999900 0.979710 -0.600417
O9    O     O_2   0.489749 0.892294 0.648687 -0.541596
O10   O     O_2   0.103858 0.530307 0.648628 -0.542333
O11   O     O_2   0.510250 0.107715 0.648683 -0.541596
O12   O     O_R   0.590220 0.500120 0.520070 -0.545339
O13   O     O_2   0.896143 0.469653 0.648628 -0.542341
O14   O     O_2   0.994554 0.391957 0.148642 -0.540950
O15   O     O_2   0.603727 0.030754 0.148625 -0.542336
O16   O     O_2   0.005448 0.608046 0.148639 -0.540955
O17   O     O_2   0.396277 0.969201 0.148624 -0.542337
O18   O     O_R   0.000080 0.552170 0.464990 -0.580242
O19   O     O_R   0.447830 0.000080 0.464990 -0.568721
O20   O     O_R   0.999920 0.447830 0.464990 -0.580233
O21   O     O_R   0.552170 0.999920 0.464990 -0.568701
O22   O     O_R   0.500080 0.052170 0.964990 -0.582090
O23   O     O_R   0.499880 0.590220 0.520070 -0.541967
O24   O     O_R   0.947830 0.500080 0.964990 -0.568950
O25   O     O_R   0.499920 0.947830 0.964990 -0.582094
O26   O     O_R   0.052170 0.499920 0.964990 -0.568907
O27   O     O_R   0.090280 0.552180 0.499860 -0.578277
O28   O     O_R   0.447820 0.090280 0.499860 -0.578916
O29   O     O_R   0.909720 0.447820 0.499860 -0.578280
O30   O     O_R   0.552180 0.909720 0.499860 -0.578912
O31   O     O_R   0.590280 0.052180 0.999860 -0.578959
O32   O     O_R   0.947820 0.590280 0.999860 -0.578857
O33   O     O_R   0.409720 0.947820 0.999860 -0.578961
O34   O     O_R   0.409780 0.499880 0.520070 -0.545355
O35   O     O_R   0.052180 0.409720 0.999860 -0.578856
O36   O     O_R   0.090280 0.447800 0.499890 -0.593382
O37   O     O_R   0.552200 0.090280 0.499890 -0.592334
O38   O     O_R   0.909720 0.552200 0.499890 -0.593376
O39   O     O_R   0.447800 0.909720 0.499890 -0.592340
O40   O     O_R   0.590280 0.947800 0.999890 -0.592935
O41   O     O_R   0.052200 0.590280 0.999890 -0.592379
O42   O     O_R   0.409720 0.052200 0.999890 -0.592934
O43   O     O_R   0.947800 0.409720 0.999890 -0.592381
O44   O     O_R   0.000120 0.552180 0.534730 -0.591631
O45   O     O_R   0.000120 0.909780 0.020070 -0.541963
O46   O     O_R   0.447820 0.000120 0.534730 -0.589595
O47   O     O_R   0.999880 0.447820 0.534730 -0.591632
O48   O     O_R   0.552180 0.999880 0.534730 -0.589596
O49   O     O_R   0.500120 0.052180 0.034730 -0.591639
O50   O     O_R   0.947820 0.500120 0.034730 -0.589551
O51   O     O_R   0.499880 0.947820 0.034730 -0.591643
O52   O     O_R   0.052180 0.499880 0.034730 -0.589551
O53   O     O_2   0.029392 0.395882 0.351038 -0.538212
O54   O     O_2   0.589872 0.060141 0.350936 -0.542561
O55   O     O_2   0.970603 0.604131 0.351034 -0.538209
O56   O     O_R   0.090220 0.000120 0.020070 -0.545354
O57   O     O_2   0.410117 0.939841 0.350937 -0.542560
O58   O     O_2   0.524626 0.894649 0.851079 -0.537837
O59   O     O_2   0.090086 0.559836 0.850939 -0.542500
O60   O     O_2   0.475392 0.105369 0.851075 -0.537829
O61   O     O_2   0.909903 0.440178 0.850940 -0.542504
O62   O     O_3   0.311012 0.454592 0.559870 -0.585641
O63   O     O_3   0.616028 0.313897 0.542765 -0.576680
O64   O     O_3   0.688983 0.545471 0.559861 -0.585647
O65   O     O_3   0.383996 0.686106 0.542772 -0.576691
O66   O     O_3   0.811011 0.954593 0.059868 -0.585678
O67   O     O_R   0.999880 0.090220 0.020070 -0.541964
O68   O     O_3   0.115923 0.813875 0.042807 -0.576731
O69   O     O_3   0.188990 0.045384 0.059871 -0.585673
O70   O     O_3   0.884074 0.186119 0.042804 -0.576721
O71   O     O_3   0.089857 0.564978 0.376803 -0.540907
O72   O     O_3   0.413992 0.069715 0.376441 -0.544297
O73   O     O_3   0.910136 0.435034 0.376804 -0.540910
O74   O     O_3   0.585996 0.930273 0.376444 -0.544310
O75   O     O_3   0.592682 0.060932 0.876858 -0.540687
O76   O     O_3   0.914268 0.570058 0.876446 -0.544316
O77   O     O_3   0.407327 0.939082 0.876855 -0.540681
O78   O     O_R   0.909780 0.999880 0.020070 -0.545350
O79   O     O_3   0.085721 0.429953 0.876446 -0.544335
O80   O     O_3   0.086535 0.569706 0.427014 -0.570428
O81   O     O_3   0.409972 0.065656 0.426558 -0.561475
O82   O     O_3   0.913464 0.430297 0.427015 -0.570430
O83   O     O_3   0.590022 0.934342 0.426561 -0.561494
O84   O     O_3   0.589604 0.065661 0.927082 -0.572914
O85   O     O_3   0.910264 0.566035 0.926566 -0.561732
O86   O     O_3   0.410402 0.934337 0.927079 -0.572887
O87   O     O_3   0.089736 0.433978 0.926568 -0.561747
O88   O     O_3   0.308821 0.562635 0.554369 -0.575800
O89   O     O_R   0.500100 0.409850 0.479710 -0.598243
O90   O     O_3   0.515462 0.308118 0.559033 -0.583330
O91   O     O_3   0.691183 0.437422 0.554379 -0.575783
O92   O     O_3   0.484572 0.691866 0.559034 -0.583324
O93   O     O_3   0.808830 0.062635 0.054363 -0.575851
O94   O     O_3   0.015319 0.808139 0.059042 -0.583227
O95   O     O_3   0.191173 0.937345 0.054360 -0.575862
O96   O     O_3   0.984676 0.191851 0.059041 -0.583231

loop_
_geom_bond_atom_site_label_1
_geom_bond_atom_site_label_2
_ccdc_geom_bond_type
C27   C202  A    
C41   C61   A    
C74   C83   A    
C64   H99   S    
C154  H155  S    
C176  H52   S    
C163  H12   S    
C220  O22   A    
C184  H76   S    
C156  O69   S    
C166  H25   S    
C149  C230  S    
C108  C186  S    
C35   C124  S    
Cu5   O56   S    
C126  H107  S    
C85   C96   A    
Cu5   O78   S    
C67   H102  S    
C35   C145  A    
C200  H90   S    
C2    C90   S    
C181  H65   S    
C199  O4    A    
C180  H63   S    
Cu7   O7    S    
C68   C149  A    
C22   H2    S    
C134  C143  A    
Cu4   O35   S    
C168  O62   S    
C29   H68   S    
Cu3   O51   S    
C98   N3    A    
C201  H91   S    
C5    H84   S    
C192  C198  A    
C173  H43   S    
Cu10  O20   S    
C117  C126  A    
C101  H124  S    
C35   C109  A    
C225  O29   A    
C119  C128  A    
Cu12  O42   S    
C240  C249  A    
C158  H163  S    
C72   H92   S    
C191  O96   S    
C95   N2    A    
C216  O86   S    
C183  H73   S    
C31   O54   S    
C207  N7    S    
C112  O12   A    
C120  C210  S    
C115  C123  A    
C241  C250  A    
C134  H116  S    
C167  H26   S    
C161  H8    S    
C127  C136  A    
C124  H127  S    
C187  O93   S    
C194  C201  A    
C234  O51   A    
C217  O87   S    
C52   C205  A    
C156  H162  S    
Cu1   Cu6   S    
C99   O17   S    
C164  H18   S    
C165  H19   S    
C261  F8    S    
C163  H15   S    
C102  C213  A    
C231  O44   A    
C211  O81   S    
C25   C237  A    
C113  H126  S    
C16   C20   A    
C54   C205  A    
C155  O68   S    
C48   C87   A    
Cu1   O23   S    
C245  C258  A    
C123  H105  S    
C169  O81   S    
C7    H86   S    
C174  H47   S    
C38   O61   S    
C255  C263  A    
C171  O83   S    
C223  O36   A    
Cu5   Cu7   S    
C79   H131  S    
C193  N2    S    
C27   H46   S    
C154  H153  S    
C186  O92   S    
C152  H149  S    
C55   C206  A    
C178  H61   S    
C31   N6    A    
C166  H23   S    
C110  C189  S    
C232  O7    A    
Cu2   O50   S    
C242  C249  A    
C4    H83   S    
C8    C17   A    
C160  O72   S    
C221  O56   A    
C1    O1    A    
C167  H28   S    
C66   H101  S    
C185  O91   S    
C177  O90   S    
C77   H147  S    
C3    C257  A    
C56   O75   S    
C57   C111  A    
C56   C207  A    
C45   C50   A    
C78   C94   A    
C100  C212  A    
C158  O70   S    
C258  F5    S    
C21   C196  A    
C182  H71   S    
C133  H115  S    
C3    C11   A    
C34   O58   S    
C65   H100  S    
Cu7   O5    S    
C126  C134  A    
C80   C88   A    
C212  O82   S    
C155  H156  S    
C79   H122  S    
C189  O94   S    
C181  H66   S    
C214  O84   S    
C103  C216  A    
C248  C252  A    
C184  H75   S    
C205  N5    S    
C78   C87   A    
C125  H106  S    
C128  H109  S    
C11   C18   A    
Cu4   O52   S    
Cu6   O4    S    
C123  C132  A    
C22   C197  A    
C69   C77   A    
C34   N7    A    
C135  H137  S    
Cu10  O29   S    
Cu12  O49   S    
C192  N1    S    
C109  C187  S    
C145  C227  S    
C234  O49   A    
C42   C248  A    
C133  C142  A    
C171  H38   S    
C141  C254  A    
C166  O79   S    
C151  O63   S    
C215  O85   S    
C168  O88   S    
C54   O73   S    
C14   C36   A    
C47   C244  A    
C102  C211  A    
C20   C252  A    
C21   C236  A    
C92   N1    A    
C100  C209  A    
Cu2   Cu4   S    
C202  H93   S    
Cu11  O21   S    
C153  H151  S    
C30   N5    A    
C182  O94   S    
C15   C37   A    
C172  H39   S    
C246  C259  A    
C81   C92   A    
C174  H45   S    
C90   H123  S    
C83   C98   A    
C62   H97   S    
C64   C73   A    
C218  O20   A    
C131  C140  A    
C138  C147  A    
C180  H62   S    
C1    O89   A    
C103  C220  S    
C22   C237  A    
C28   C238  A    
C70   H1    S    
C54   C212  A    
C93   N2    A    
C46   C135  S    
C112  O2    A    
C29   C204  A    
Cu2   O24   S    
Cu3   O40   S    
C183  H74   S    
C226  O39   A    
C143  C225  S    
C69   H104  S    
C101  C185  S    
C264  H80   S    
C177  H56   S    
C104  C222  S    
C169  H30   S    
C32   O55   S    
Cu1   O12   S    
C90   H132  S    
C104  C217  A    
C139  C148  A    
C63   H98   S    
C219  O19   A    
C120  C129  A    
C11   C33   A    
C26   C201  A    
C176  H53   S    
C174  O86   S    
C179  O90   S    
C36   N8    A    
C154  O66   S    
C115  C199  S    
C2    C106  A    
C65   C74   A    
C206  N6    S    
C73   H103  S    
C182  H69   S    
C157  H130  S    
C151  H145  S    
C170  H34   S    
C58   C208  A    
C188  O23   A    
C53   C206  A    
C262  H78   S    
C152  O64   S    
C80   C95   A    
C103  C214  A    
Cu9   O39   S    
C253  F1    S    
C141  C223  S    
C61   H96   S    
C241  C255  A    
C220  O25   A    
C84   C91   A    
C116  C125  A    
Cu6   O2    S    
C45   C65   A    
C2    C142  A    
C235  C238  S    
C150  H141  S    
C4    C12   A    
C118  C127  A    
C162  H11   S    
C203  H94   S    
C33   O57   S    
C122  C131  A    
C59   C207  A    
C132  C141  A    
C114  C191  S    
C113  H134  S    
C28   C203  A    
C105  C115  A    
C53   O72   S    
C129  H110  S    
C190  O69   S    
C226  O30   A    
C55   C213  A    
C97   O15   S    
C43   C50   A    
C247  C251  A    
Cu3   O33   S    
C165  H21   S    
C136  H117  S    
C105  C168  S    
C167  O80   S    
C160  H3    S    
C152  H146  S    
C74   H114  S    
C159  O71   S    
C172  H41   S    
C46   C110  A    
Cu1   O1    S    
C180  O92   S    
C19   C251  A    
C178  H59   S    
C82   C88   A    
C76   C85   A    
C17   C249  A    
Cu9   Cu11  S    
C62   C71   A    
C7    C261  A    
C52   O71   S    
C159  H168  S    
C233  C236  S    
C180  H64   S    
C158  H165  S    
C9    C18   A    
C127  H108  S    
Cu8   Cu10  S    
Cu1   O34   S    
C155  H159  S    
C228  O41   A    
C225  O38   A    
C8    C262  A    
C45   C242  A    
C151  H144  S    
C61   C70   A    
C6    H85   S    
C158  H164  S    
C106  C179  S    
C256  F3    S    
Cu8   O18   S    
C194  N3    S    
C186  O65   S    
C247  C260  A    
C37   N7    A    
C27   C239  A    
C92   O9    S    
C219  O21   A    
C15   C19   A    
C23   C198  A    
C229  O42   A    
C192  C196  A    
C137  C145  A    
C161  H7    S    
C58   O76   S    
C86   C91   A    
Cu5   O67   S    
C112  C117  S    
Cu11  O48   S    
C111  C121  A    
C170  H32   S    
C199  O34   A    
C154  H154  S    
Cu9   O46   S    
C5    C259  A    
Cu12  O22   S    
C6    C260  A    
C195  N4    S    
C173  O85   S    
C153  H150  S    
C175  H50   S    
C51   C91   A    
C93   O10   S    
C153  O65   S    
C24   C108  A    
C162  H9    S    
C227  O31   A    
C138  H119  S    
C47   C66   A    
C72   C81   A    
C181  O93   S    
C175  O87   S    
C58   C215  A    
C174  H48   S    
C245  C251  A    
C37   O60   S    
C82   C93   A    
C161  O73   S    
C57   C146  S    
C184  O96   S    
Cu2   O43   S    
C49   C88   A    
C163  O75   S    
C105  C254  A    
C96   O14   S    
C130  C139  A    
C71   H81   S    
C177  H58   S    
Cu8   O44   S    
Cu3   Cu12  S    
C232  O67   A    
C228  O32   A    
C113  C186  S    
C152  H148  S    
C14   C20   A    
C28   H57   S    
C85   C89   A    
C59   C216  A    
C60   C208  A    
C47   C51   A    
C195  C204  A    
C167  H27   S    
C222  O24   A    
C185  O64   S    
C106  C116  A    
C159  H166  S    
C188  O3    A    
Cu7   O8    S    
C98   O16   S    
C26   C238  A    
C50   C89   A    
C46   C147  A    
C231  O47   A    
C44   C69   A    
C146  H129  S    
C173  H44   S    
C40   C49   A    
C5    C14   A    
C81   C87   A    
C7    C16   A    
C235  O52   A    
C173  H42   S    
C243  O78   A    
C52   C209  A    
C172  O84   S    
C263  H79   S    
C224  O37   A    
C3    H82   S    
C12   C34   A    
C68   C157  S    
C73   C82   A    
C260  F7    S    
Cu5   O45   S    
C109  C119  A    
C248  C261  A    
C32   N5    A    
C191  O70   S    
C84   C99   A    
Cu2   O32   S    
C259  F6    S    
C244  C257  A    
C104  C215  A    
C40   C246  A    
C176  O88   S    
C193  C200  A    
C122  C232  S    
C150  O62   S    
C210  O45   A    
C171  H37   S    
C8    C30   A    
C156  H161  S    
C153  H152  S    
C164  H17   S    
C136  C144  A    
C25   C200  A    
C38   N8    A    
C165  H20   S    
C97   N4    A    
C230  O35   A    
C243  O8    A    
C24   C144  A    
C66   C75   A    
C12   C19   A    
C79   C254  S    
C13   C143  A    
C146  H138  S    
C75   C84   A    
C139  H120  S    
C172  H40   S    
C76   H136  S    
C43   C240  A    
Cu11  O37   S    
C95   O13   S    
C36   O59   S    
C137  H118  S    
C63   C72   A    
C233  O48   A    
C111  C190  S    
C155  H157  S    
C57   C148  A    
C121  C221  S    
C213  O83   S    
C107  C117  A    
Cu4   O41   S    
C39   C48   A    
Cu8   O38   S    
C253  C262  A    
C26   H35   S    
C166  H22   S    
C70   C78   A    
C242  C256  A    
C75   H125  S    
C13   C107  A    
C210  O5    A    
C150  H140  S    
C160  H5    S    
C177  H55   S    
C157  C191  S    
C169  H29   S    
C195  C202  A    
C246  C252  A    
C240  C253  A    
C244  C250  A    
C176  H54   S    
Cu7   O6    S    
C184  H77   S    
C130  H111  S    
C10   C17   A    
C229  O33   A    
C30   O53   S    
C9    C263  A    
C183  O95   S    
C132  H113  S    
C86   C97   A    
C224  O28   A    
C182  H70   S    
C83   C89   A    
C189  O68   S    
C6    C15   A    
C39   C245  A    
C135  C189  S    
C129  C138  A    
C235  O50   A    
C10   C264  A    
C233  O46   A    
C197  H88   S    
C218  O18   A    
C1    C116  S    
C79   C168  S    
C181  H67   S    
C23   H13   S    
C175  H51   S    
C94   N1    A    
C25   H24   S    
C24   C113  S    
Cu3   O25   S    
Cu6   O3    S    
C41   C247  A    
Cu6   O89   S    
C144  C226  S    
C150  H142  S    
C142  C224  S    
C71   C80   A    
Cu9   O28   S    
Cu10  O36   S    
C44   C241  A    
C198  H89   S    
C108  C118  A    
C222  O26   A    
C55   O74   S    
C110  C120  A    
C178  O91   S    
C163  H14   S    
C118  C188  S    
C164  O76   S    
C140  H121  S    
C96   N3    A    
C230  O43   A    
C160  H4    S    
C179  O63   S    
C183  H72   S    
C175  H49   S    
C128  C137  A    
Cu9   O19   S    
C10   C32   A    
C178  H60   S    
Cu10  O47   S    
C53   C211  A    
Cu12  O31   S    
C157  H139  S    
C21   H158  S    
C121  C130  A    
C159  H167  S    
C190  O95   S    
C94   O11   S    
C208  N8    S    
C209  O80   S    
C102  C219  S    
C23   C236  A    
C44   C51   A    
C43   C67   A    
C131  H112  S    
C77   C86   A    
C13   C101  S    
Cu11  O30   S    
C33   N6    A    
C151  H143  S    
C169  H31   S    
C125  C133  A    
C221  O6    A    
C42   C62   A    
C90   C179  S    
C4    C258  A    
C56   C214  A    
C187  O66   S    
C162  O74   S    
C99   N4    A    
C171  H36   S    
C124  C187  S    
C147  C228  S    
Cu4   O26   S    
C148  C229  S    
C39   C63   A    
C107  C185  S    
Cu8   O27   S    
C60   O79   S    
C196  H87   S    
C40   C64   A    
C231  C237  S    
C124  H135  S    
C256  C264  A    
C161  H6    S    
C59   O77   S    
C255  F2    S    
C60   C217  A    
C170  H33   S    
C170  O82   S    
C18   C250  A    
C193  C197  A    
C194  C203  A    
C140  C149  A    
C101  H133  S    
C41   C48   A    
C223  O27   A    
C234  C239  S    
C156  H160  S    
C164  H16   S    
C9    C31   A    
C42   C49   A    
C100  C218  S    
C114  C122  A    
C165  O77   S    
C257  F4    S    
C16   C38   A    
C227  O40   A    
C146  C190  S    
C67   C76   A    
C162  H10   S    
C204  H95   S    
C119  C243  S    
C29   C239  A    
C135  H128  S    
C68   C114  A    
