data_mof_unit_23439.cif
_audit_creation_date              2013-03-05T15:42:55-0500
_audit_creation_method            fapswitch 2.2
_symmetry_space_group_name_H-M    P1
_symmetry_Int_Tables_number       1
_space_group_crystal_system       triclinic
_cell_length_a                    15.095976
_cell_length_b                    10.927972
_cell_length_c                    9.673439
_cell_angle_alpha                 90.208365
_cell_angle_beta                  90.319738
_cell_angle_gamma                 90.125273
_cell_volume                      1595.77249769

loop_
_atom_site_label
_atom_site_type_symbol
_atom_site_description
_atom_site_fract_x
_atom_site_fract_y
_atom_site_fract_z
_atom_type_partial_charge
O1    O     O_R   0.500020 0.321960 0.617040 -0.575423
O2    O     O_R   0.499980 0.321920 0.382900 -0.525787
C1    C     C_R   0.502659 0.265063 0.499494 0.880989
O3    O     O_R   0.370270 0.499990 0.617090 -0.585919
O4    O     O_R   0.370240 0.499950 0.382940 -0.590400
C2    C     C_R   0.328729 0.499966 0.499679 0.799240
Cu1   Cu    Cu3+1 0.500020 0.500020 0.638630 1.003405
Cu2   Cu    Cu3+1 0.499980 0.499980 0.361370 0.982974
O5    O     O_R   0.500020 0.678080 0.617100 -0.582508
O6    O     O_R   0.499980 0.678040 0.382960 -0.580101
O7    O     O_R   0.629760 0.500050 0.617060 -0.521840
O8    O     O_R   0.629730 0.500010 0.382910 -0.586208
C3    C     C_R   0.499551 0.734668 0.500238 0.883823
C4    C     C_R   0.671411 0.496588 0.500605 0.850559
C5    C     C_R   0.814236 0.530519 0.384871 -0.238109
C6    C     C_R   0.768481 0.491483 0.502330 -0.177055
C7    C     C_R   0.815726 0.450999 0.620384 0.300485
C8    C     C_R   0.908868 0.454613 0.620659 -0.000918
C9    C     C_R   0.954039 0.496062 0.501688 0.019522
C10   C     C_R   0.906366 0.532812 0.383554 0.042491
C11   C     C_R   0.958006 0.415911 0.736473 -0.112605
C12   C     C_R   0.049976 0.419952 0.735502 -0.159240
C13   C     C_R   0.094783 0.461248 0.618519 0.126354
C14   C     C_R   0.047098 0.499356 0.500304 0.044411
C15   C     C_R   0.092489 0.539523 0.380748 -0.018560
C16   C     C_R   0.043719 0.578618 0.263497 0.325661
C17   C     C_R   0.951142 0.573115 0.265865 -0.231146
C18   C     C_R   0.186811 0.463593 0.617842 -0.210937
C19   C     C_R   0.232134 0.500044 0.499338 -0.089067
C20   C     C_R   0.185307 0.536223 0.380969 -0.184758
H1    H     H_    0.777915 0.561361 0.294453 0.183031
H2    H     H_    0.926062 0.381964 0.828569 0.201427
H3    H     H_    0.086182 0.389827 0.826248 0.164736
H4    H     H_    0.223230 0.434406 0.708888 0.153422
H5    H     H_    0.221976 0.561204 0.289601 0.203316
H6    H     H_    0.913850 0.603016 0.176044 0.193644
C21   C     C_2   0.524287 0.930656 0.392768 -0.251621
C22   C     C_2   0.494688 0.866528 0.500791 -0.372113
H7    H     H_    0.553340 0.883080 0.305345 0.177457
H8    H     H_    0.463717 0.908977 0.589432 0.149936
C23   C     C_2   0.515932 0.064948 0.383214 0.480802
C24   C     C_2   0.509496 0.132506 0.499828 -0.371451
H9    H     H_    0.511252 0.090960 0.601266 0.125700
C25   C     C_2   0.449555 0.428356 0.921370 -0.039989
N1    N     N_2   0.499020 0.498660 0.846910 -0.260297
H10   H     H_    0.406487 0.363120 0.869267 0.138351
H11   H     H_    0.537099 0.564338 0.894651 0.207280
C26   C     C_2   0.446526 0.432672 0.077149 -0.031412
N2    N     N_2   0.499000 0.498630 0.153040 -0.274666
H12   H     H_    0.397767 0.375674 0.128005 0.142357
H13   H     H_    0.547898 0.548814 0.106543 0.202943
O9    O     O_3   0.527919 0.122791 0.256559 -0.574845
C27   C     C_3   0.473503 0.072214 0.150929 0.056210
H14   H     H_    0.430269 0.146401 0.111074 0.152548
H15   H     H_    0.428176 0.997637 0.185375 0.137197
C28   C     C_3   0.531831 0.026663 0.032686 -0.314512
H16   H     H_    0.573288 0.103515 0.994447 0.255126
H17   H     H_    0.576631 0.953616 0.071006 0.215251
C29   C     C_3   0.476408 0.976144 0.913015 -0.905641
H18   H     H_    0.434857 0.898403 0.948332 0.266747
H19   H     H_    0.521074 0.942886 0.830280 0.261953
H20   H     H_    0.433125 0.048817 0.869755 0.250978
N3    N     N_R   0.769593 0.402550 0.737527 0.119514
O10   O     O_R   0.726657 0.299517 0.726827 -0.353296
O11   O     O_R   0.767702 0.463600 0.853230 -0.365846
N4    N     N_R   0.086376 0.626530 0.142683 0.114283
O12   O     O_R   0.143892 0.714855 0.154755 -0.363044
O13   O     O_R   0.055622 0.599298 0.020421 -0.364808

loop_
_geom_bond_atom_site_label_1
_geom_bond_atom_site_label_2
_geom_bond_distance
_ccdc_geom_bond_type
C7    C8    1.406527 A    
O4    Cu2   1.970792 S    
N4    O13   1.301376 A    
C13   C14   1.412411 A    
N3    O11   1.301388 A    
C1    C24   1.452490 S    
C5    H1    1.084828 S    
C19   C20   1.400928 A    
C10   C17   1.399241 A    
C17   H6    1.084459 S    
C8    C11   1.407050 A    
C23   C24   1.349989 D    
C23   O9    1.393200 S    
C9    C10   1.407322 A    
C28   C29   1.525589 S    
Cu2   O8    1.968597 S    
C26   H12   1.084459 S    
N4    O12   1.301354 A    
C16   C17   1.399021 A    
C14   C15   1.418088 A    
C18   H4    1.084933 S    
C29   H18   1.110891 S    
C21   H7    1.086175 S    
O1    Cu1   1.956255 S    
C11   C12   1.389071 A    
C7    N3    1.435604 S    
C22   H8    1.082376 S    
C3    C22   1.442982 S    
C21   C22   1.338602 D    
C20   H5    1.081057 S    
O3    Cu1   1.968596 S    
O4    C2    1.294535 A    
Cu1   N1    2.015032 S    
O3    C2    1.294325 A    
C18   C19   1.397061 A    
C11   H2    1.081787 S    
O8    C4    1.298437 A    
Cu1   O7    1.970794 S    
O2    C1    1.290145 A    
N1    H11   1.025515 S    
C21   C23   1.476408 S    
C5    C10   1.391097 A    
O7    C4    1.293651 A    
C4    C6    1.466559 S    
C29   H19   1.110069 S    
C6    C7    1.415795 A    
C24   H9    1.082911 S    
C27   H15   1.116025 S    
C5    C6    1.400375 A    
C16   N4    1.437370 S    
Cu1   Cu2   2.682054 S    
C2    C19   1.458191 S    
C28   H16   1.111919 S    
Cu2   O6    1.956255 S    
C8    C9    1.416275 A    
C27   C28   1.529834 S    
C15   C20   1.401702 A    
Cu1   O5    1.957701 S    
C12   H3    1.084085 S    
O5    C3    1.290510 A    
C12   C13   1.397384 A    
C26   N2    1.293495 D    
C29   H20   1.111023 S    
C25   H10   1.084742 S    
N2    H13   1.025516 S    
C15   C16   1.416541 A    
C13   C18   1.389473 A    
C28   H17   1.110734 S    
C9    C14   1.405336 A    
Cu2   N2    2.015239 S    
O2    Cu2   1.957701 S    
C25   N1    1.293902 D    
C25   C26   1.508433 S    
C27   H14   1.110690 S    
O9    C27   1.417359 S    
N3    O10   1.301451 A    
O1    C1    1.294832 A    
O6    C3    1.290366 A    
