data_mof_unit_44231.cif
_audit_creation_date              2012-12-11T14:08:10-0500
_audit_creation_method            fapswitch 2.2
_symmetry_space_group_name_H-M    P1
_symmetry_Int_Tables_number       1
_space_group_crystal_system       triclinic
_cell_length_a                    10.968888
_cell_length_b                    10.853979
_cell_length_c                    18.736175
_cell_angle_alpha                 89.865911
_cell_angle_beta                  89.965158
_cell_angle_gamma                 60.478434
_cell_volume                      1941.04448404

loop_
_atom_site_label
_atom_site_type_symbol
_atom_type_description
_atom_site_fract_x
_atom_site_fract_y
_atom_site_fract_z
_atom_type_partial_charge
C1    C     C_R   0.306094 0.614399 0.612993 0.566966
C2    C     C_3   0.698420 0.536378 0.800399 -0.260908
C3    C     C_3   0.693579 0.679128 0.812821 0.067990
C4    C     C_3   0.667989 0.647395 0.677150 0.038033
C5    C     C_3   0.797803 0.664230 0.688886 -0.245834
C6    C     C_3   0.684106 0.517660 0.720619 -0.225367
C7    C     C_2   0.672570 0.161111 0.672447 -0.119120
C8    C     C_2   0.682679 0.174614 0.829257 -0.138126
C9    C     C_2   0.792367 0.141904 0.786652 -0.173739
C10   C     C_2   0.776013 0.165499 0.708876 -0.153853
C11   C     C_2   0.290350 0.610500 0.689689 -0.091095
C12   C     C_R   0.652754 0.621112 0.601983 0.537402
C13   C     C_2   0.126361 0.710161 0.825850 -0.013167
C14   C     C_2   0.171201 0.583312 0.794369 -0.188628
C15   C     C_2   0.216004 0.556097 0.719485 -0.156104
C16   C     C_2   0.652206 0.648515 0.318138 -0.110534
C17   C     C_2   0.639389 0.665806 0.161229 -0.101239
C18   C     C_2   0.712208 0.545348 0.197214 -0.164891
C19   C     C_2   0.694586 0.537166 0.273613 -0.157504
C20   C     C_2   0.633464 0.196063 0.319114 -0.102851
C21   C     C_2   0.638348 0.199832 0.164511 -0.105118
C22   C     C_2   0.524997 0.225635 0.201597 -0.161366
C23   C     C_R   0.627634 0.228238 0.602334 0.543434
C24   C     C_2   0.518383 0.252743 0.277284 -0.156365
C25   C     C_2   0.254772 0.627909 0.319267 -0.117463
C26   C     C_2   0.200329 0.639989 0.168551 -0.115360
C27   C     C_2   0.269077 0.701756 0.198351 -0.030791
C28   C     C_2   0.316790 0.671308 0.272183 -0.173427
C29   C     C_R   0.701784 0.104843 0.898296 0.536859
C30   C     C_R   0.721851 0.688762 0.888678 0.539567
C31   C     C_R   0.066158 0.738507 0.897421 0.538821
C32   C     C_R   0.673651 0.113453 0.101529 0.558360
C33   C     C_R   0.693564 0.688112 0.094969 0.564351
C34   C     C_R   0.291723 0.618854 0.393107 0.572609
C35   C     C_R   0.103571 0.703899 0.109355 0.564806
C36   C     C_R   0.641715 0.622463 0.393085 0.546029
C37   C     C_R   0.613609 0.234112 0.393465 0.548114
C38   C     C_3   0.545952 0.800383 0.784964 -0.112538
C39   C     C_3   0.537398 0.783238 0.703973 -0.209139
C40   C     C_3   0.814089 0.680870 0.769092 -0.219399
Cr1   Cr    Cr6+3 0.393010 0.398050 0.501480 1.021075
Cr2   Cr    Cr6+3 0.398820 0.707980 0.501630 1.022678
Cr3   Cr    Cr6+3 0.708140 0.393940 0.496850 1.018023
Cr4   Cr    Cr6+3 0.937950 0.938450 0.008940 1.044452
Cr5   Cr    Cr6+3 0.626180 0.937030 0.994750 1.022666
Cr6   Cr    Cr6+3 0.937790 0.625760 0.001410 1.021137
H1    H     H_    0.780113 0.420973 0.703025 0.145932
H2    H     H_    0.916532 0.591581 0.786465 0.130683
H3    H     H_    0.893599 0.570040 0.668375 0.135437
H4    H     H_    0.896367 0.094272 0.809248 0.183245
H5    H     H_    0.849343 0.189163 0.681592 0.161485
H6    H     H_    0.576906 0.230239 0.807823 0.111840
H7    H     H_    0.605750 0.127175 0.698635 0.099442
H8    H     H_    0.160952 0.500629 0.821789 0.141400
H9    H     H_    0.178153 0.498053 0.687896 0.150225
H10   H     H_    0.463220 0.784316 0.810781 0.142195
H11   H     H_    0.337086 0.657735 0.722518 0.090364
H12   H     H_    0.795211 0.451805 0.171580 0.156716
H13   H     H_    0.726960 0.431831 0.294376 0.159778
H14   H     H_    0.552809 0.756946 0.186076 0.124276
H15   H     H_    0.617650 0.755466 0.299586 0.098684
H16   H     H_    0.441725 0.211563 0.178633 0.164593
H17   H     H_    0.413881 0.314447 0.299577 0.157254
H18   H     H_    0.717463 0.221425 0.186714 0.103350
H19   H     H_    0.738888 0.133845 0.298186 0.101624
H20   H     H_    0.439243 0.781567 0.692268 0.142030
H21   H     H_    0.391001 0.702852 0.290641 0.138088
H22   H     H_    0.205596 0.545988 0.192101 0.086511
H23   H     H_    0.174861 0.601356 0.304509 0.110479
H24   H     H_    0.530649 0.874778 0.673506 0.132435
H25   H     H_    0.817701 0.780028 0.778849 0.114193
H26   H     H_    0.786471 0.758587 0.659512 0.125264
H27   H     H_    0.798908 0.446472 0.820005 0.145083
H28   H     H_    0.612257 0.532810 0.830102 0.114141
H29   H     H_    0.593355 0.500684 0.711169 0.107778
O1    O     O_R   0.507110 0.256280 0.580300 -0.521252
O2    O     O_R   0.524640 0.695370 0.425100 -0.514839
O3    O     O_R   0.735890 0.504390 0.415980 -0.501681
O4    O     O_R   0.690560 0.277820 0.422350 -0.498428
O5    O     O_3   0.499990 0.499990 0.499980 -0.303322
O6    O     O_R   0.089190 0.825870 0.932320 -0.504989
O7    O     O_R   0.819070 0.053960 0.931440 -0.508102
O8    O     O_R   0.607070 0.076440 0.916460 -0.533726
O9    O     O_R   0.647110 0.806550 0.917690 -0.512503
O10   O     O_R   0.837080 0.593860 0.915300 -0.534948
O11   O     O_R   0.064770 0.636080 0.932550 -0.508783
O12   O     O_R   0.280830 0.527190 0.577940 -0.493571
O13   O     O_R   0.068250 0.829200 0.092940 -0.487538
O14   O     O_R   0.799650 0.057040 0.080330 -0.497507
O15   O     O_R   0.586130 0.079760 0.077080 -0.505556
O16   O     O_R   0.627700 0.809630 0.066580 -0.479390
O17   O     O_R   0.816140 0.597180 0.075920 -0.511058
O18   O     O_R   0.045360 0.639170 0.081440 -0.494804
O19   O     O_3   0.833980 0.833750 0.001700 -0.267425
O20   O     O_R   0.261360 0.738990 0.584270 -0.487147
O21   O     O_R   0.532590 0.694780 0.574370 -0.529512
O22   O     O_R   0.744470 0.503750 0.577000 -0.519446
O23   O     O_R   0.698520 0.277230 0.571620 -0.495634
O24   O     O_R   0.498530 0.256920 0.419280 -0.517840
O25   O     O_R   0.272880 0.527780 0.428680 -0.494381
O26   O     O_R   0.252780 0.739630 0.423250 -0.487679
C41   C     C_3   0.506179 0.955600 0.800062 -0.369433
H30   H     H_    0.597410 0.971674 0.792614 0.150412
H31   H     H_    0.421233 0.029621 0.763796 0.114155
H32   H     H_    0.460814 0.988224 0.854135 0.187919
C42   C     C_1   0.127006 0.828303 0.789389 0.188341
N1    N     N_1   0.130418 0.920607 0.760103 -0.339413
C43   C     C_1   0.283457 0.813384 0.163501 0.234971
N2    N     N_1   0.293806 0.903115 0.135647 -0.299858

loop_
_geom_bond_atom_site_label_1
_geom_bond_atom_site_label_2
_ccdc_geom_bond_type
C1    O12   A    
C7    C10   D    
Cr2   O5    S    
C40   H25   S    
C1    C11   S    
Cr3   O23   S    
C23   O1    A    
Cr1   O5    S    
C6    H29   S    
Cr5   O8    S    
C25   C28   D    
C37   O4    A    
C26   C27   D    
Cr2   O21   S    
C8    C29   S    
C29   O8    A    
C5    H26   S    
Cr4   O7    S    
C36   O2    A    
C33   O16   A    
C38   C39   S    
Cr6   O17   S    
C42   N1    T    
Cr5   O19   S    
Cr3   O4    S    
C43   N2    T    
C41   H32   S    
C18   C19   S    
C21   H18   S    
C11   C15   D    
C18   H12   S    
C32   O15   A    
C20   C24   D    
C3    C38   S    
C8    C9    D    
C34   O25   A    
Cr1   O24   S    
C4    C12   S    
C9    C10   S    
C8    H6    S    
C2    H28   S    
C25   C34   S    
Cr6   O10   S    
C31   O11   A    
C13   C14   D    
C5    H3    S    
C2    C6    S    
C17   C33   S    
C10   H5    S    
C35   O18   A    
Cr1   O12   S    
C21   C32   S    
C34   O26   A    
C6    H1    S    
Cr2   O20   S    
C20   H19   S    
C28   H21   S    
C4    C6    S    
Cr4   O6    S    
C33   O17   A    
C13   C42   S    
C19   H13   S    
Cr3   O5    S    
Cr3   O3    S    
C15   H9    S    
C3    C30   S    
C22   H16   S    
C35   O13   A    
C32   O14   A    
Cr6   O19   S    
C4    C39   S    
C1    O20   A    
C17   C18   D    
Cr1   O25   S    
C30   O10   A    
C41   H31   S    
Cr5   O15   S    
C12   O22   A    
C2    H27   S    
C11   H11   S    
C14   H8    S    
C3    C40   S    
C24   H17   S    
C39   H20   S    
C22   C24   S    
Cr5   O9    S    
C25   H23   S    
C16   H15   S    
C7    H7    S    
Cr2   O26   S    
C37   O24   A    
C40   H2    S    
C13   C31   S    
C9    H4    S    
Cr3   O22   S    
C4    C5    S    
C31   O6    A    
C26   H22   S    
C2    C3    S    
C29   O7    A    
C38   C41   S    
C36   O3    A    
C16   C36   S    
Cr1   O1    S    
C20   C37   S    
Cr6   O18   S    
C27   C43   S    
C16   C19   D    
C7    C23   S    
C39   H24   S    
Cr4   O13   S    
C30   O9    A    
C41   H30   S    
Cr5   O16   S    
Cr4   O19   S    
C17   H14   S    
C26   C35   S    
C23   O23   A    
C38   H10   S    
Cr2   O2    S    
C5    C40   S    
C27   C28   S    
C14   C15   S    
C12   O21   A    
C21   C22   D    
Cr4   O14   S    
Cr6   O11   S    
