data_mof_unit_19913.cif
_audit_creation_date              2012-12-11T18:34:45-0500
_audit_creation_method            fapswitch 2.2
_symmetry_space_group_name_H-M    P1
_symmetry_Int_Tables_number       1
_space_group_crystal_system       triclinic
_cell_length_a                    8.240845
_cell_length_b                    14.289349
_cell_length_c                    22.846151
_cell_angle_alpha                 93.299309
_cell_angle_beta                  89.546787
_cell_angle_gamma                 91.4493
_cell_volume                      2684.90398823

loop_
_atom_site_label
_atom_site_type_symbol
_atom_type_description
_atom_site_fract_x
_atom_site_fract_y
_atom_site_fract_z
_atom_type_partial_charge
Ba1   Ba    Ba6+2 0.846250 0.544220 0.470860 1.647118
Ba2   Ba    Ba6+2 0.343570 0.455860 0.529140 1.668006
C1    C     C_3   0.618844 0.890580 0.310046 -0.364812
C2    C     C_3   0.603135 0.792738 0.332697 0.351699
C3    C     C_3   0.506554 0.326839 0.353292 0.275441
C4    C     C_3   0.460155 0.299091 0.290165 -0.374836
C5    C     C_3   0.024771 0.232254 0.687323 0.364370
C6    C     C_3   0.982755 0.183516 0.743463 -0.188963
C7    C     C_3   0.521073 0.217142 0.692455 0.345045
C8    C     C_3   0.470422 0.137693 0.730764 -0.345692
C9    C     C_R   0.336953 0.529227 0.331970 -0.291277
C10   C     C_R   0.086666 0.575853 0.937404 -0.036831
C11   C     C_R   0.041319 0.569938 0.877456 0.599089
C12   C     C_3   0.077144 0.742569 0.303916 0.320062
C13   C     C_R   0.003602 0.403215 0.880156 0.585067
C14   C     C_R   0.043439 0.407242 0.940404 -0.017271
C15   C     C_R   0.085572 0.494051 0.969125 -0.052122
C16   C     C_R   0.132166 0.661893 0.966576 -0.070948
C17   C     C_R   0.175820 0.666508 0.025785 -0.073410
C18   C     C_R   0.173857 0.585399 0.058114 -0.019026
C19   C     C_R   0.127662 0.498942 0.029727 -0.051352
C20   C     C_R   0.042556 0.326006 0.972582 -0.074293
C21   C     C_R   0.081709 0.330980 0.032165 -0.077045
C22   C     C_R   0.124742 0.417222 0.061551 -0.025123
C23   C     C_3   0.045524 0.767703 0.241344 -0.304644
C24   C     C_R   0.166014 0.423328 0.121821 0.589354
C25   C     C_R   0.217424 0.589020 0.118069 0.574994
C26   C     C_2   0.811969 0.429835 0.770536 -0.098901
C27   C     C_3   0.782041 0.403886 0.706261 -0.079574
C28   C     C_1   0.004271 0.515340 0.684533 0.028121
C29   C     C_2   0.050663 0.522020 0.740543 -0.046757
C30   C     C_2   0.948709 0.478647 0.787493 0.211601
C31   C     C_R   0.402530 0.556461 0.230593 -0.097956
C32   C     C_R   0.443061 0.563878 0.290141 -0.017845
C33   C     C_R   0.194336 0.481273 0.315167 0.014127
C34   C     C_3   0.174489 0.743525 0.589999 0.318711
C35   C     C_R   0.150452 0.475676 0.255229 -0.114087
C36   C     C_R   0.253560 0.514233 0.212149 0.212722
C37   C     C_2   0.877978 0.463620 0.665529 -0.276508
C38   C     C_R   0.695806 0.935611 0.528248 -0.022754
C39   C     C_R   0.510316 0.801737 0.497421 0.040179
C40   C     C_R   0.370518 0.769877 0.467562 -0.298330
C41   C     C_R   0.268426 0.832439 0.442589 0.018972
C42   C     C_R   0.313300 0.927002 0.441911 -0.144361
C43   C     C_R   0.458323 0.960092 0.468656 -0.007670
C44   C     C_R   0.556098 0.898439 0.498680 -0.029763
C45   C     C_3   0.176765 0.849357 0.602208 -0.377969
C46   C     C_R   0.645810 0.090838 0.494272 -0.019211
C47   C     C_R   0.744034 0.030162 0.524710 0.007658
C48   C     C_R   0.692321 0.186387 0.492990 0.009129
C49   C     C_R   0.836278 0.219512 0.519406 -0.264700
C50   C     C_R   0.937100 0.159472 0.547006 0.017945
C51   C     C_R   0.890224 0.064949 0.550687 -0.144409
C52   C     C_R   0.504005 0.054664 0.466478 -0.047451
C53   C     C_3   0.940480 0.252005 0.350031 0.341859
C54   C     C_3   0.918117 0.255951 0.283589 -0.354803
C55   C     C_3   0.676636 0.660687 0.641448 0.280843
C56   C     C_3   0.683877 0.682768 0.707622 -0.215620
H1    H     H_    0.664953 0.793767 0.375810 0.078468
H2    H     H_    0.262763 0.869635 0.638196 0.136348
H3    H     H_    0.215066 0.885346 0.562536 0.060617
H4    H     H_    0.053436 0.872566 0.615195 0.126261
H5    H     H_    0.837310 0.283341 0.374009 0.064260
H6    H     H_    0.869993 0.324674 0.273162 0.095718
H7    H     H_    0.829275 0.201195 0.267005 0.088314
H8    H     H_    0.035449 0.244882 0.260252 0.135496
H9    H     H_    0.798377 0.641948 0.624721 -0.024114
H10   H     H_    0.591957 0.600024 0.633015 0.082698
H11   H     H_    0.748892 0.911403 0.305613 0.140787
H12   H     H_    0.711636 0.617966 0.729779 0.027230
H13   H     H_    0.563715 0.706907 0.723908 0.091131
H14   H     H_    0.471885 0.775383 0.338312 -0.054858
H15   H     H_    0.559636 0.941749 0.341212 0.071842
H16   H     H_    0.400272 0.357741 0.376279 0.050647
H17   H     H_    0.607556 0.379694 0.353293 0.041523
H18   H     H_    0.347411 0.254827 0.289283 0.138044
H19   H     H_    0.440141 0.362205 0.265556 0.074801
H20   H     H_    0.558600 0.259036 0.267882 0.122993
H21   H     H_    0.559265 0.892064 0.266690 0.125941
H22   H     H_    0.038400 0.702765 0.212462 0.122993
H23   H     H_    0.077158 0.303090 0.699395 0.048400
H24   H     H_    0.910143 0.239750 0.662979 -0.092619
H25   H     H_    0.088795 0.187391 0.773267 0.145411
H26   H     H_    0.881177 0.220586 0.766083 0.124035
H27   H     H_    0.655313 0.219564 0.691666 -0.075295
H28   H     H_    0.475971 0.201223 0.647202 0.085621
H29   H     H_    0.519168 0.070647 0.711954 0.084775
H30   H     H_    0.336601 0.130543 0.733248 0.147784
H31   H     H_    0.000931 0.679871 0.312731 0.104730
H32   H     H_    0.519149 0.151617 0.775699 0.119670
H33   H     H_    0.078622 0.266724 0.055142 0.122240
H34   H     H_    0.010627 0.258043 0.951817 0.122083
H35   H     H_    0.210479 0.734226 0.046289 0.122688
H36   H     H_    0.487316 0.582856 0.198692 0.110795
H37   H     H_    0.134682 0.726173 0.943627 0.128396
H38   H     H_    0.164920 0.557194 0.752494 0.126546
H39   H     H_    0.733744 0.398427 0.802859 0.106637
H40   H     H_    0.037117 0.441748 0.241969 0.107518
H41   H     H_    0.370260 0.534786 0.377767 0.080791
H42   H     H_    0.207277 0.725624 0.308060 -0.041467
H43   H     H_    0.857766 0.449630 0.618935 0.082699
H44   H     H_    0.335133 0.696397 0.467116 0.069136
H45   H     H_    0.234302 0.974667 0.421222 0.076323
H46   H     H_    0.967202 0.019136 0.573633 0.070754
H47   H     H_    0.872008 0.292710 0.517535 0.073178
H48   H     H_    0.769920 0.891997 0.553653 0.111266
H49   H     H_    0.427495 0.099219 0.442530 0.101108
H50   H     H_    0.928352 0.803709 0.238528 0.146373
H51   H     H_    0.144485 0.814691 0.226018 0.125341
H52   H     H_    0.298651 0.720911 0.579144 -0.001931
H53   H     H_    0.092328 0.725523 0.552535 0.059889
N1    N     N_R   0.998858 0.484249 0.849238 -0.426781
N2    N     N_R   0.210030 0.508878 0.149956 -0.423243
O1    O     O_2   0.901900 0.448470 0.362340 -0.489052
O2    O     O_3   0.622035 0.739202 0.614137 -0.615047
O3    O     O_3   0.035897 0.818458 0.342395 -0.604277
O4    O     O_2   0.287790 0.551560 0.637690 -0.455976
O5    O     O_3   0.047460 0.550640 0.566640 -0.501349
O6    O     O_3   0.544140 0.380990 0.608030 -0.472416
O7    O     O_3   0.120593 0.701294 0.640473 -0.605924
O8    O     O_3   0.640350 0.387150 0.474440 -0.477638
O9    O     O_3   0.136890 0.332750 0.580830 -0.473525
O10   O     O_2   0.278454 0.167875 0.552490 -0.482940
O11   O     O_3   0.139323 0.180661 0.654079 -0.605011
O12   O     O_3   0.142240 0.449440 0.433360 -0.455852
O13   O     O_3   0.549340 0.612930 0.525560 -0.489511
O14   O     O_2   0.396530 0.270940 0.479440 -0.431468
O15   O     O_3   0.554955 0.246521 0.380017 -0.657505
O16   O     O_2   0.474924 0.483421 0.706788 -0.487642
O17   O     O_3   0.456733 0.301896 0.715603 -0.577469
O18   O     O_2   0.037800 0.641411 0.850730 -0.544760
O19   O     O_2   0.974712 0.326962 0.855082 -0.626540
O20   O     O_2   0.165501 0.352033 0.148916 -0.608333
O21   O     O_2   0.261899 0.663935 0.141824 -0.616004
O22   O     O_3   0.645560 0.619080 0.391970 -0.485864
O23   O     O_2   0.780364 0.556267 0.291161 -0.501697
O24   O     O_3   0.085591 0.297528 0.368532 -0.625322
O25   O     O_3   0.676480 0.728326 0.292521 -0.600360
O26   O     O_2   0.793170 0.729090 0.520590 -0.470170
O27   O     O_3   0.052800 0.667320 0.419180 -0.494408
O28   O     O_2   0.932584 0.834284 0.450307 -0.490226
P1    P     P_3+3 0.074990 0.420800 0.372080 0.988294
P2    P     P_3+3 0.618830 0.715330 0.538180 0.984822
P3    P     P_3+3 0.071951 0.788687 0.414237 0.939023
P4    P     P_3+3 0.114710 0.579280 0.627920 1.008556
P5    P     P_3+3 0.124127 0.209729 0.581225 0.978631
P6    P     P_3+3 0.637513 0.615224 0.315554 0.945001
P7    P     P_3+3 0.575191 0.271702 0.455489 0.938774
P8    P     P_3+3 0.563970 0.394272 0.684574 0.961217
C57   C     C_3   0.947369 0.149697 0.366180 -0.351123
H54   H     H_    0.975461 0.146288 0.413407 0.093701
H55   H     H_    0.828722 0.113003 0.357523 0.088121
H56   H     H_    0.043788 0.112634 0.340458 0.121448
C58   C     C_2   0.810549 0.757269 0.722746 0.908879
O29   O     O_2   0.926098 0.739611 0.753061 -0.562096
O30   O     O_R   0.795884 0.846683 0.702059 -0.744663
H57   H     H_    0.891479 0.889303 0.713755 0.297216
C59   C     C_3   0.930723 0.081225 0.730853 -0.404299
H58   H     H_    0.034932 0.040340 0.713230 0.149494
H59   H     H_    0.888174 0.050863 0.772086 0.141604
H60   H     H_    0.830436 0.075496 0.698559 0.127889

loop_
_geom_bond_atom_site_label_1
_geom_bond_atom_site_label_2
_ccdc_geom_bond_type
C26   H39   S    
O6    P8    S    
C53   C54   S    
C6    H25   S    
C39   C40   A    
C17   C18   A    
C5    O11   S    
O24   P1    S    
C6    C59   S    
C31   H36   S    
C45   H4    S    
Ba2   O5    S    
C5    C6    S    
C55   O2    S    
C43   C44   A    
C42   C43   A    
Ba2   P4    S    
C38   C44   A    
C8    H30   S    
C52   H49   S    
C53   C57   S    
O1    P1    D    
C9    H41   S    
O30   H57   S    
C1    H11   S    
C22   C24   A    
C39   P2    S    
C11   N1    Am   
C28   C29   D    
C12   O3    S    
C56   H13   S    
C4    H20   S    
C51   H46   S    
C13   C14   A    
C23   H22   S    
O13   P2    S    
C3    O15   S    
C34   C45   S    
O4    P4    D    
C16   C17   A    
C32   P6    S    
C3    H16   S    
Ba1   P1    S    
C56   C58   S    
C59   H60   S    
C7    H27   S    
C45   H2    S    
O3    P3    S    
O26   P2    D    
Ba2   O4    S    
C13   O19   D    
C14   C15   A    
C57   H56   S    
C53   H5    S    
C10   C15   A    
C14   C20   A    
C21   C22   A    
C54   H6    S    
C7    C8    S    
O12   P1    S    
C34   H53   S    
C58   O30   S    
Ba1   O26   S    
C23   H51   S    
O14   P7    D    
Ba2   O14   S    
C46   C48   A    
C1    H21   S    
O7    P4    S    
C59   H59   S    
C16   H37   S    
C41   P3    S    
C54   H8    S    
C55   H9    S    
C1    H15   S    
C40   H44   S    
C20   C21   A    
C35   H40   S    
C42   H45   S    
C37   H43   S    
Ba2   O9    S    
O2    P2    S    
C8    H29   S    
C49   C50   A    
C26   C30   D    
Ba1   O13   S    
O28   P3    D    
C36   N2    S    
O15   P7    S    
C4    H19   S    
C48   C49   A    
C7    O17   S    
O11   P5    S    
C15   C19   A    
C3    H17   S    
C46   C52   A    
C41   C42   A    
C12   H31   S    
O16   P8    D    
C35   C36   A    
Ba1   P2    S    
C7    H28   S    
C54   H7    S    
C29   C30   S    
O10   P5    D    
O25   P6    S    
C39   C44   A    
C27   C37   S    
O17   P8    S    
C31   C32   A    
C11   O18   D    
O8    P7    S    
C10   C11   A    
C4    H18   S    
C38   C47   A    
C58   O29   D    
Ba1   O27   S    
Ba2   O13   S    
C46   C47   A    
C5    H23   S    
C43   C52   A    
O22   P6    S    
C34   H52   S    
C59   H58   S    
C21   H33   S    
C40   C41   A    
C55   H10   S    
C1    C2    S    
C25   N2    Am   
C2    H14   S    
C50   C51   A    
C28   P4    S    
C38   H48   S    
Ba2   O8    S    
C48   P7    S    
C26   C27   S    
C50   P5    S    
C30   N1    S    
C33   C35   A    
C6    H26   S    
C25   O21   D    
C13   N1    Am   
O5    P4    S    
C9    C32   A    
C56   H12   S    
O27   P3    S    
Ba1   O12   S    
C17   H35   S    
C45   H3    S    
Ba2   O6    S    
C12   H42   S    
C18   C25   A    
C27   P8    S    
C31   C36   A    
C53   O24   S    
C9    C33   A    
C24   N2    Am   
C24   O20   D    
C55   C56   S    
C3    C4    S    
C47   C51   A    
Ba1   Ba2   S    
C2    H1    S    
C28   C37   D    
C57   H55   S    
Ba1   O5    S    
O9    P5    S    
C12   C23   S    
C34   O7    S    
Ba1   O8    S    
C49   H47   S    
O23   P6    D    
C33   P1    S    
C2    O25   S    
Ba2   O12   S    
C5    H24   S    
C18   C19   A    
C8    H32   S    
Ba1   O1    S    
C19   C22   A    
C10   C16   A    
C20   H34   S    
C57   H54   S    
Ba1   O22   S    
C29   H38   S    
C23   H50   S    
