data_mof_unit_36236.cif
_audit_creation_date              2012-12-10T17:25:18-0500
_audit_creation_method            fapswitch 2.2
_symmetry_space_group_name_H-M    P1
_symmetry_Int_Tables_number       1
_space_group_crystal_system       triclinic
_cell_length_a                    27.814244
_cell_length_b                    10.833864
_cell_length_c                    9.572964
_cell_angle_alpha                 90.818512
_cell_angle_beta                  90.037049
_cell_angle_gamma                 92.619605
_cell_volume                      2881.36516135

loop_
_atom_site_label
_atom_site_type_symbol
_atom_type_description
_atom_site_fract_x
_atom_site_fract_y
_atom_site_fract_z
_atom_type_partial_charge
C1    C     C_R   0.504750 0.263592 0.499475 0.865048
C2    C     C_R   0.278682 0.492430 0.373352 -0.101698
C3    C     C_R   0.253602 0.499645 0.499762 0.357410
C4    C     C_R   0.101818 0.498760 0.500454 -0.046447
C5    C     C_R   0.125599 0.391299 0.462639 -0.020208
C6    C     C_R   0.098602 0.284282 0.424674 -0.150073
C7    C     C_R   0.129293 0.606645 0.537631 -0.020477
C8    C     C_R   0.354518 0.499699 0.499857 -0.039745
C9    C     C_R   0.645441 0.501185 0.500375 -0.030457
C10   C     C_R   0.972415 0.385621 0.476890 0.000861
C11   C     C_R   0.976283 0.609758 0.527138 0.061659
C12   C     C_R   0.407492 0.499707 0.499937 0.801873
C13   C     C_R   0.949014 0.497318 0.502008 0.066322
C14   C     C_R   0.943888 0.274894 0.462853 -0.305770
C15   C     C_R   0.893455 0.273432 0.464653 0.455341
C16   C     C_R   0.870040 0.385320 0.482245 -0.071581
C17   C     C_R   0.897851 0.496851 0.502072 -0.119307
C18   C     C_R   0.874393 0.608485 0.522030 0.002567
C19   C     C_R   0.823999 0.607541 0.521380 0.534193
C20   C     C_R   0.819298 0.389523 0.482140 0.576822
C21   C     C_R   0.721067 0.494832 0.374393 -0.100582
C22   C     C_R   0.670945 0.495333 0.373839 -0.216251
C23   C     C_R   0.498025 0.738089 0.502012 0.783768
C24   C     C_R   0.671021 0.507477 0.627244 -0.197701
C25   C     C_R   0.721151 0.507504 0.627389 -0.100963
C26   C     C_R   0.746250 0.500808 0.501077 0.351054
C27   C     C_R   0.023517 0.387483 0.468474 0.067564
C28   C     C_R   0.050684 0.498353 0.501031 0.067296
C29   C     C_R   0.027320 0.608847 0.534041 0.039587
C30   C     C_R   0.048642 0.282272 0.426908 -0.204552
C31   C     C_R   0.105963 0.713504 0.575330 -0.142281
C32   C     C_R   0.951393 0.719958 0.543360 -0.208415
C33   C     C_R   0.901536 0.719026 0.541095 -0.137054
C34   C     C_R   0.592498 0.500538 0.500097 0.806081
C35   C     C_R   0.056051 0.714807 0.573870 -0.207638
C36   C     C_R   0.544337 0.126138 0.742483 0.436877
C37   C     C_R   0.540005 0.070915 0.874113 -0.243665
C38   C     C_R   0.514145 0.959142 0.888071 -0.195497
C39   C     C_R   0.497224 0.894711 0.769668 -0.171889
C40   C     C_R   0.505035 0.943052 0.634387 0.027503
C41   C     C_R   0.520789 0.068155 0.625155 0.061958
C42   C     C_R   0.511273 0.130487 0.499534 -0.091846
C43   C     C_R   0.500219 0.062774 0.377316 -0.222707
C44   C     C_R   0.495804 0.935407 0.380340 -0.200668
C45   C     C_R   0.176114 0.393636 0.462829 0.535270
C46   C     C_R   0.497606 0.873564 0.507659 -0.087107
C47   C     C_R   0.564744 0.663009 0.146694 -0.163597
C48   C     C_R   0.596662 0.741530 0.075415 -0.217323
C49   C     C_R   0.596722 0.741064 0.931523 -0.191128
C50   C     C_R   0.564705 0.662491 0.858098 -0.158985
C51   C     C_R   0.531816 0.579982 0.926357 0.192699
C52   C     C_R   0.531815 0.580062 0.076099 0.207356
C53   C     C_R   0.469891 0.423474 0.072678 -0.074767
C54   C     C_R   0.469906 0.423510 0.924607 -0.058963
C55   C     C_R   0.179743 0.604946 0.536819 0.535010
C56   C     C_R   0.278967 0.506899 0.626212 -0.102095
C57   C     C_R   0.329099 0.506757 0.626436 -0.216573
C58   C     C_R   0.328823 0.492617 0.373225 -0.214626
Cu1   Cu    Cu3+1 0.500000 0.499990 0.640660 0.947967
Cu2   Cu    Cu3+1 0.500000 0.500010 0.359340 0.934662
H1    H     H_    0.347394 0.486972 0.274099 0.157560
H2    H     H_    0.259753 0.512204 0.724305 0.140915
H3    H     H_    0.126241 0.797193 0.606409 0.189357
H4    H     H_    0.969357 0.809668 0.555006 0.135405
H5    H     H_    0.652374 0.512341 0.726320 0.163271
H6    H     H_    0.884305 0.806145 0.554239 0.189617
H7    H     H_    0.740543 0.512092 0.725581 0.139171
H8    H     H_    0.041135 0.800168 0.607721 0.140764
H9    H     H_    0.494345 0.108199 0.279059 0.164602
H10   H     H_    0.556146 0.115144 0.966003 0.138663
H11   H     H_    0.259255 0.487029 0.275228 0.140945
H12   H     H_    0.508739 0.919834 0.990558 0.162485
H13   H     H_    0.476439 0.810068 0.787731 0.182018
H14   H     H_    0.489505 0.885560 0.282621 0.164552
H15   H     H_    0.445241 0.360799 0.127059 0.137868
H16   H     H_    0.567654 0.671915 0.256847 0.202867
H17   H     H_    0.621387 0.803704 0.132593 0.168191
H18   H     H_    0.621345 0.803208 0.876040 0.170099
H19   H     H_    0.566989 0.671928 0.748184 0.201503
H20   H     H_    0.445269 0.360833 0.868070 0.139913
H21   H     H_    0.116013 0.201065 0.392550 0.188510
H22   H     H_    0.652233 0.490656 0.274518 0.163979
H23   H     H_    0.740403 0.489820 0.276484 0.139386
H24   H     H_    0.959904 0.186591 0.454055 0.130007
H25   H     H_    0.030835 0.197075 0.391807 0.142387
H26   H     H_    0.347885 0.512346 0.725608 0.158050
N1    N     N_R   0.202035 0.499420 0.499758 -0.468945
N2    N     N_R   0.797729 0.499295 0.501497 -0.485529
N3    N     N_R   0.500460 0.501210 0.147910 -0.197608
N4    N     N_R   0.500480 0.501290 0.852040 -0.197232
O1    O     O_R   0.500000 0.319640 0.618810 -0.544526
O2    O     O_2   0.791492 0.285288 0.463256 -0.449047
O3    O     O_2   0.206340 0.708131 0.571681 -0.533667
O4    O     O_2   0.801310 0.714071 0.539894 -0.522289
O5    O     O_R   0.500000 0.319660 0.381240 -0.594613
O6    O     O_R   0.430260 0.500010 0.618770 -0.587685
O7    O     O_R   0.430270 0.500030 0.381200 -0.580707
O8    O     O_R   0.500000 0.680340 0.618760 -0.614877
O9    O     O_R   0.500000 0.680360 0.381190 -0.600276
O10   O     O_R   0.569730 0.499970 0.618800 -0.578311
O11   O     O_R   0.569740 0.499990 0.381230 -0.606692
O12   O     O_2   0.199174 0.290784 0.427569 -0.534776
O13   O     O_3   0.574043 0.230519 0.724489 -0.717594
H27   H     H_    0.587460 0.258351 0.816269 0.319673
O14   O     O_3   0.866753 0.163043 0.450172 -0.657570
H28   H     H_    0.888560 0.093765 0.438402 0.316076

loop_
_geom_bond_atom_site_label_1
_geom_bond_atom_site_label_2
_ccdc_geom_bond_type
C10   C27   A    
C23   O9    A    
C21   C26   A    
C41   C42   A    
C25   H7    S    
C14   H24   S    
C55   O3    S    
Cu2   O9    S    
C50   H19   S    
C52   N3    A    
C53   C54   A    
C49   H18   S    
C40   C46   A    
C20   O2    S    
C28   C29   A    
C36   O13   S    
C22   H22   S    
C36   C37   A    
C45   N1    A    
C47   H16   S    
C54   N4    A    
C51   N4    A    
C5    C6    A    
C9    C22   A    
C15   C16   A    
C56   C57   A    
C18   C19   A    
C8    C58   A    
C21   H23   S    
C16   C17   A    
C57   H26   S    
C34   O10   A    
C7    C55   A    
C8    C12   S    
C16   C20   A    
C58   H1    S    
Cu1   Cu2   S    
C43   H9    S    
C23   C46   S    
C21   C22   A    
C27   C30   A    
Cu1   O10   S    
C36   C41   A    
C53   H15   S    
C4    C7    A    
C4    C28   A    
C44   C46   A    
C33   H6    S    
C17   C18   A    
C54   H20   S    
C38   H12   S    
C34   O11   A    
C7    C31   A    
C3    N1    S    
C51   C52   A    
C31   H3    S    
C24   C25   A    
C32   H4    S    
C19   N2    A    
C10   C14   A    
C39   C40   A    
C25   C26   A    
Cu2   N3    S    
C5    C45   A    
Cu1   N4    S    
C48   H17   S    
C43   C44   A    
C37   C38   A    
C8    C57   A    
C3    C56   A    
C47   C48   A    
C1    O5    A    
C50   C51   A    
Cu1   O1    S    
C30   H25   S    
C44   H14   S    
C12   O7    A    
C19   O4    S    
C24   H5    S    
C48   C49   A    
C6    C30   A    
C11   C32   A    
Cu2   O7    S    
C53   N3    A    
C9    C34   S    
C31   C35   A    
C42   C43   A    
C2    H11   S    
O13   H27   S    
C40   C41   A    
C4    C5    A    
C10   C13   A    
C2    C58   A    
C9    C24   A    
C47   C52   A    
O14   H28   S    
C29   C35   A    
C13   C17   A    
C32   C33   A    
C15   O14   S    
C2    C3    A    
C11   C13   A    
C38   C39   A    
C35   H8    S    
C20   N2    A    
C1    O1    A    
C56   H2    S    
C39   H13   S    
C55   N1    A    
C18   C33   A    
C45   O12   S    
Cu2   O5    S    
C1    C42   S    
C23   O8    A    
C11   C29   A    
C26   N2    S    
C49   C50   A    
Cu1   O6    S    
C27   C28   A    
C6    H21   S    
Cu1   O8    S    
C14   C15   A    
C12   O6    A    
C37   H10   S    
Cu2   O11   S    
