data_mof_unit_46432.cif
_audit_creation_date              2013-03-05T15:50:32-0500
_audit_creation_method            fapswitch 2.2
_symmetry_space_group_name_H-M    P1
_symmetry_Int_Tables_number       1
_space_group_crystal_system       triclinic
_cell_length_a                    19.175527
_cell_length_b                    7.148211
_cell_length_c                    17.702754
_cell_angle_alpha                 89.777534
_cell_angle_beta                  109.09078
_cell_angle_gamma                 90.24795
_cell_volume                      2293.04449884

loop_
_atom_site_label
_atom_site_type_symbol
_atom_site_description
_atom_site_fract_x
_atom_site_fract_y
_atom_site_fract_z
_atom_type_partial_charge
O1    O     O_R   0.562310 0.505770 0.439670 -0.587827
O2    O     O_R   0.437690 0.005770 0.560330 -0.543133
O3    O     O_R   0.411650 0.169150 0.405330 -0.575916
O4    O     O_R   0.588350 0.669150 0.594670 -0.591305
C1    C     C_R   0.384207 0.345457 0.383329 0.918675
C2    C     C_R   0.614698 0.846291 0.618085 0.930997
O5    O     O_R   0.560140 0.175610 0.430010 -0.544352
O6    O     O_R   0.439860 0.675610 0.569990 -0.563011
O7    O     O_R   0.587240 0.012100 0.585200 -0.567834
O8    O     O_R   0.412760 0.512100 0.414800 -0.597631
C3    C     C_R   0.580348 0.344727 0.414338 1.097403
C4    C     C_R   0.419662 0.844270 0.585820 1.058949
O9    O     O_3   0.508720 0.341420 0.550890 -0.249346
O10   O     O_3   0.491280 0.841420 0.449110 -0.282361
V1    V     V_3+5 0.498380 0.063930 0.490560 1.326454
V2    V     V_3+5 0.501620 0.563930 0.509440 1.295071
C5    C     C_R   0.182758 0.053078 0.871093 -0.218747
C6    C     C_R   0.795589 0.377385 0.097947 -0.297392
C7    C     C_R   0.128351 0.915740 0.863319 -0.294571
C8    C     C_R   0.870735 0.415411 0.134812 -0.263018
C9    C     C_R   0.122914 0.764452 0.810535 0.295070
C10   C     C_R   0.899313 0.434694 0.218381 0.305181
C11   C     C_R   0.171705 0.753159 0.765825 -0.015020
C12   C     C_R   0.851646 0.418150 0.264636 0.000061
C13   C     C_R   0.227256 0.891105 0.775034 0.029331
C14   C     C_R   0.775090 0.385023 0.226830 0.023696
C15   C     C_R   0.233376 0.042077 0.828548 0.093207
C16   C     C_R   0.746693 0.362905 0.142607 0.126178
C17   C     C_R   0.165125 0.607637 0.710785 -0.159676
C18   C     C_R   0.879002 0.433975 0.348168 -0.125282
C19   C     C_R   0.211762 0.598218 0.665265 -0.092695
C20   C     C_R   0.832364 0.418848 0.393763 -0.072226
C21   C     C_R   0.267148 0.733118 0.673374 -0.000577
C22   C     C_R   0.755663 0.395658 0.357720 -0.006667
C23   C     C_R   0.276069 0.878466 0.729707 -0.002908
C24   C     C_R   0.727144 0.373573 0.273589 -0.011577
C25   C     C_R   0.333179 0.011286 0.740287 -0.046924
C26   C     C_R   0.651124 0.338228 0.236243 -0.019395
C27   C     C_R   0.339936 0.157094 0.795429 -0.201496
C28   C     C_R   0.624261 0.311490 0.152939 -0.182634
C29   C     C_R   0.290160 0.177242 0.838071 0.190843
C30   C     C_R   0.670348 0.324863 0.105646 0.164297
C31   C     C_R   0.312642 0.725888 0.624984 0.312277
C32   C     C_R   0.707485 0.389941 0.404102 0.318335
C33   C     C_R   0.371820 0.853180 0.637320 -0.437479
C34   C     C_R   0.631351 0.352619 0.366460 -0.445478
C35   C     C_R   0.382905 0.994217 0.696302 0.337203
C36   C     C_R   0.603457 0.326388 0.282820 0.303949
H1    H     H_    0.186220 0.165382 0.912827 0.172066
H2    H     H_    0.776273 0.360223 0.033779 0.137812
H3    H     H_    0.123123 0.500569 0.701348 0.192666
H4    H     H_    0.937034 0.457627 0.379505 0.198344
H5    H     H_    0.204202 0.482970 0.623815 0.194411
H6    H     H_    0.858002 0.423198 0.457854 0.198116
H7    H     H_    0.384030 0.258505 0.805637 0.179754
H8    H     H_    0.566526 0.279619 0.123533 0.182808
C37   C     C_3   0.754710 0.787359 0.835698 -0.363317
C38   C     C_3   0.254050 0.389720 0.160560 -0.394248
H9    H     H_    0.779653 0.650473 0.860061 0.161437
H10   H     H_    0.245744 0.267769 0.119626 0.158110
H11   H     H_    0.738513 0.856843 0.883583 0.155070
H12   H     H_    0.259162 0.516022 0.125774 0.162688
C39   C     C_3   0.684748 0.750766 0.761958 -0.407138
C40   C     C_3   0.326747 0.362581 0.232113 -0.350761
H13   H     H_    0.634609 0.785810 0.777452 0.201181
H14   H     H_    0.366075 0.476653 0.231276 0.215630
H15   H     H_    0.681316 0.599329 0.746739 0.170752
H16   H     H_    0.352821 0.228080 0.225052 0.206989
H17   H     H_    0.846542 0.671323 0.758455 0.183636
H18   H     H_    0.172972 0.105573 0.201231 0.150294
H19   H     H_    0.747454 0.658475 0.646121 0.125213
H20   H     H_    0.281511 0.070407 0.298428 0.069135
C41   C     C_3   0.826996 0.816638 0.741066 -0.382114
C42   C     C_3   0.182829 0.231977 0.239870 -0.402728
C43   C     C_3   0.774894 0.103696 0.784665 -0.382608
C44   C     C_3   0.200085 0.580067 0.246825 -0.326122
C45   C     C_3   0.811729 0.912241 0.812806 0.044659
C46   C     C_3   0.186346 0.410567 0.189816 0.030532
H21   H     H_    0.811857 0.192270 0.762226 0.204580
H22   H     H_    0.153947 0.593514 0.271462 0.238186
H23   H     H_    0.765969 0.178879 0.835672 0.146936
H24   H     H_    0.202103 0.711536 0.213692 0.149958
C47   C     C_3   0.686890 0.868410 0.688779 -0.095386
C48   C     C_3   0.311656 0.364675 0.313104 -0.127260
C49   C     C_3   0.755440 0.806999 0.665741 0.228557
C50   C     C_3   0.256161 0.202336 0.310462 0.228493
C51   C     C_3   0.699940 0.077193 0.717623 -0.267739
C52   C     C_3   0.273621 0.556938 0.316316 -0.254733
H25   H     H_    0.654725 0.122388 0.739865 0.194763
H26   H     H_    0.310823 0.674035 0.312507 0.164975
H27   H     H_    0.698811 0.172384 0.667519 0.219014
H28   H     H_    0.263969 0.573294 0.374158 0.245617
H29   H     H_    0.873531 0.888748 0.728870 0.220564
H30   H     H_    0.134880 0.242423 0.261688 0.234898
O11   O     O_R   0.087220 0.271820 0.085230 -0.606014
O12   O     O_R   0.912780 0.771820 0.914770 -0.592525
O13   O     O_R   0.939860 0.595540 0.069990 -0.568822
O14   O     O_R   0.060140 0.095540 0.930010 -0.566555
C53   C     C_R   0.919381 0.426239 0.085080 0.985277
C54   C     C_R   0.080132 0.926608 0.914036 0.988385
O15   O     O_R   0.088340 0.601930 0.094680 -0.586811
O16   O     O_R   0.911660 0.101930 0.905320 -0.593672
O17   O     O_R   0.062310 0.765410 0.939660 -0.566633
O18   O     O_R   0.937690 0.265410 0.060340 -0.594557
C55   C     C_R   0.115352 0.431488 0.118518 0.911254
C56   C     C_R   0.883457 0.931890 0.883080 0.888831
O19   O     O_3   0.991270 0.429630 0.949130 -0.244171
O20   O     O_3   0.008730 0.929630 0.050870 -0.278031
V3    V     V_3+5 0.001620 0.707150 0.009440 1.226255
V4    V     V_3+5 0.998380 0.207150 0.990560 1.215430
N1    N     N_R   0.066433 0.625309 0.800487 0.238302
O21   O     O_R   0.084014 0.454337 0.824394 -0.412438
O22   O     O_R   0.997259 0.671053 0.769995 -0.406549
N2    N     N_R   0.976870 0.466729 0.256049 0.209697
O23   O     O_R   0.017760 0.339342 0.302158 -0.383038
O24   O     O_R   0.007106 0.620557 0.242161 -0.401494
N3    N     N_R   0.762004 0.919903 0.598324 0.269047
O25   O     O_R   0.816654 0.035605 0.606863 -0.336343
O26   O     O_R   0.712340 0.904231 0.528009 -0.349745
N4    N     N_R   0.242218 0.178660 0.386698 0.249845
O27   O     O_R   0.200870 0.295784 0.408729 -0.295667
O28   O     O_R   0.266020 0.029784 0.429784 -0.372881
N5    N     N_R   0.292914 0.604214 0.557101 0.229278
O29   O     O_R   0.322929 0.439742 0.562685 -0.336678
O30   O     O_R   0.233313 0.639770 0.497714 -0.343336
N6    N     N_R   0.735274 0.426899 0.488752 0.239802
O31   O     O_R   0.713364 0.327735 0.538516 -0.397760
O32   O     O_R   0.778181 0.569828 0.515845 -0.376360
N7    N     N_R   0.446173 0.115123 0.713248 0.233068
O33   O     O_R   0.438024 0.293126 0.697464 -0.370626
O34   O     O_R   0.512209 0.044388 0.738125 -0.479660
N8    N     N_R   0.525989 0.293618 0.245029 0.207174
O35   O     O_R   0.496011 0.139089 0.258626 -0.426355
O36   O     O_R   0.485741 0.416439 0.195509 -0.451473
C57   C     C_3   0.299859 0.345297 0.892806 -0.412722
C58   C     C_3   0.340026 0.292326 0.979884 -0.815655
H31   H     H_    0.309453 0.182521 0.000721 0.242342
H32   H     H_    0.396211 0.239982 0.986576 0.266773
H33   H     H_    0.345303 0.417483 0.018350 0.263863
H34   H     H_    0.332608 0.456318 0.875516 0.201029
H35   H     H_    0.245845 0.410837 0.886382 0.210594
C59   C     C_3   0.635602 0.296300 0.016137 -0.362858
C60   C     C_3   0.622198 0.482830 0.971301 -0.850252
H36   H     H_    0.674483 0.561555 0.981683 0.245921
H37   H     H_    0.597231 0.456894 0.906151 0.264291
H38   H     H_    0.583586 0.569690 0.991207 0.266317
H39   H     H_    0.670130 0.203166 0.993009 0.184670
H40   H     H_    0.581513 0.223486 0.002362 0.197839

loop_
_geom_bond_atom_site_label_1
_geom_bond_atom_site_label_2
_geom_bond_distance
_ccdc_geom_bond_type
C38   H12   1.112812 S    
C60   H38   1.110953 S    
C47   C51   1.571550 S    
C39   H13   1.112424 S    
N6    O31   1.299894 A    
O14   V4    2.008284 S    
C51   H27   1.110451 S    
C42   H30   1.110520 S    
N1    O21   1.301010 A    
O1    C3    1.324706 A    
C41   H29   1.108937 S    
O2    C4    1.323023 A    
C2    O7    1.349241 A    
N2    O23   1.300768 A    
N5    O29   1.300380 A    
C27   C29   1.405350 A    
O5    C3    1.323707 A    
C8    C53   1.478940 S    
C32   N6    1.441836 S    
C35   N7    1.436534 S    
C46   C55   1.531345 S    
C11   C17   1.404865 A    
C45   C56   1.529561 S    
C23   C25   1.412087 A    
C12   C14   1.419358 A    
N3    O26   1.301400 A    
C37   H9    1.112678 S    
O15   V3    1.992131 S    
C60   H36   1.109525 S    
O20   V3    1.739952 S    
C6    C8    1.399655 A    
C43   C45   1.546915 S    
C40   C48   1.552817 S    
C18   H4    1.081640 S    
O11   C55   1.316391 A    
C48   C50   1.561527 S    
O13   C53   1.323682 A    
H19   C49   1.112617 S    
C27   H7    1.081116 S    
C52   H28   1.105235 S    
C32   C34   1.417122 A    
N8    O35   1.300574 A    
C28   H8    1.081804 S    
C30   C59   1.518933 S    
C19   C21   1.403890 A    
H17   C41   1.113390 S    
C25   C35   1.420498 A    
C44   C52   1.547510 S    
C26   C36   1.419253 A    
C28   C30   1.404885 A    
C53   O18   1.320882 A    
O6    V2    2.008480 S    
C26   C28   1.407514 A    
C38   C40   1.559079 S    
C58   H33   1.110503 S    
C20   H6    1.079455 S    
C9    N1    1.435259 S    
N4    O28   1.301073 A    
C37   C39   1.557663 S    
C34   C36   1.413094 A    
C33   C35   1.418784 A    
O15   C55   1.337631 A    
C57   H34   1.112377 S    
C39   H15   1.113008 S    
C44   C46   1.545561 S    
C5    C15   1.412399 A    
C37   C45   1.560498 S    
C57   C58   1.527823 S    
C6    C16   1.413619 A    
C58   H32   1.111054 S    
C44   H24   1.113083 S    
C1    C48   1.539085 S    
C43   H23   1.113152 S    
O5    V1    2.001089 S    
C20   C22   1.408057 A    
C54   O17   1.320698 A    
C19   H5    1.082682 S    
C39   C47   1.553436 S    
C21   C31   1.409642 A    
O4    V2    1.991148 S    
H18   C42   1.113015 S    
C59   H40   1.112212 S    
O13   V3    2.000887 S    
C15   C29   1.421138 A    
N2    O24   1.300512 A    
C57   H35   1.109912 S    
O6    C4    1.326547 A    
C22   C32   1.423001 A    
N1    O22   1.300686 A    
O1    V2    2.000284 S    
C42   C50   1.560433 S    
C49   N3    1.476979 S    
O2    V1    1.996187 S    
C31   C33   1.412034 A    
C41   C49   1.571185 S    
C13   C23   1.421522 A    
N8    O36   1.300876 A    
C43   C51   1.547182 S    
C47   C49   1.563324 S    
C52   H26   1.113515 S    
O14   C54   1.327665 A    
C9    C11   1.412043 A    
O19   V4    1.735820 S    
C10   C12   1.416977 A    
O18   V4    2.000575 S    
O16   V4    1.991121 S    
O4    C2    1.375500 A    
C31   N5    1.432343 S    
C5    H1    1.080159 S    
C24   C26   1.411954 A    
C40   H16   1.111742 S    
C29   C57   1.518476 S    
O3    V1    1.992157 S    
N4    O27   1.300868 A    
C6    H2    1.080780 S    
N7    O33   1.300733 A    
C17   H3    1.081670 S    
C14   C24   1.426118 A    
C60   H37   1.110603 S    
O12   C56   1.316951 A    
N6    O32   1.299701 A    
C2    C47   1.540761 S    
C7    C9    1.413039 A    
C59   C60   1.528142 S    
C59   H39   1.110162 S    
C44   H22   1.111618 S    
C8    C10   1.406614 A    
C4    C33   1.491616 S    
O3    C1    1.372875 A    
O11   V4    2.013988 S    
H20   C50   1.115471 S    
C7    C54   1.487036 S    
C37   H11   1.112911 S    
C13   C15   1.417744 A    
O12   V3    2.014384 S    
C14   C16   1.419332 A    
O17   V3    1.996480 S    
C51   H25   1.112588 S    
O7    V1    1.995207 S    
C1    O8    1.352441 A    
C25   C27   1.407123 A    
O8    V2    1.994884 S    
N3    O25   1.301893 A    
C18   C20   1.390561 A    
C48   C52   1.568560 S    
C43   H21   1.113275 S    
C16   C30   1.420062 A    
C21   C23   1.413554 A    
O16   C56   1.335522 A    
C22   C24   1.417896 A    
C11   C13   1.418509 A    
C12   C18   1.402872 A    
N5    O30   1.300201 A    
C38   C46   1.554992 S    
C5    C7    1.403360 A    
C10   N2    1.434713 S    
C17   C19   1.387805 A    
C42   C46   1.564924 S    
O9    V2    1.736166 S    
C41   C45   1.554765 S    
O10   V1    1.740302 S    
C36   N8    1.434300 S    
C3    C34   1.489768 S    
C50   N4    1.468127 S    
C38   H10   1.112928 S    
C58   H31   1.109519 S    
C40   H14   1.111639 S    
N7    O34   1.300813 A    
