data_mof_unit_50867.cif
_audit_creation_date              2012-12-11T17:41:21-0500
_audit_creation_method            fapswitch 2.2
_symmetry_space_group_name_H-M    P1
_symmetry_Int_Tables_number       1
_space_group_crystal_system       triclinic
_cell_length_a                    15.431224
_cell_length_b                    15.025301
_cell_length_c                    15.063857
_cell_angle_alpha                 109.856879
_cell_angle_beta                  121.093417
_cell_angle_gamma                 58.844372
_cell_volume                      2546.93937909

loop_
_atom_site_label
_atom_site_type_symbol
_atom_type_description
_atom_site_fract_x
_atom_site_fract_y
_atom_site_fract_z
_atom_type_partial_charge
C1    C     C_R   0.756284 0.992282 0.790571 -0.119012
C2    C     C_R   0.197362 0.061191 0.226808 -0.121604
C3    C     C_R   0.201809 0.299642 0.559711 0.087765
C4    C     C_R   0.861477 0.722117 0.513053 0.085484
C5    C     C_R   0.502084 0.294325 0.426581 0.076569
C6    C     C_R   0.495061 0.675342 0.462375 0.037625
C7    C     C_R   0.494835 0.930196 0.792414 0.018961
C8    C     C_R   0.497957 0.971798 0.173871 0.006160
C9    C     C_R   0.638902 0.598390 0.760237 -0.116160
C10   C     C_R   0.362339 0.319808 0.131769 -0.111005
C11   C     C_R   0.574196 0.694964 0.798089 -0.129718
C12   C     C_R   0.419563 0.214204 0.104236 -0.137995
C13   C     C_R   0.621732 0.738144 0.900566 0.126271
C14   C     C_R   0.362689 0.150253 0.048986 0.143763
C15   C     C_R   0.734688 0.681836 0.964745 -0.170926
C16   C     C_R   0.247325 0.193464 0.019655 -0.181696
C17   C     C_R   0.799011 0.585063 0.926609 -0.107496
C18   C     C_R   0.190774 0.298614 0.049557 -0.117010
C19   C     C_R   0.751265 0.543542 0.824398 -0.096464
C20   C     C_R   0.248288 0.361789 0.105620 -0.099103
C21   C     C_R   0.555653 0.857892 0.036956 -0.233702
C22   C     C_R   0.419855 0.025825 0.916215 -0.230611
C23   C     C_R   0.237340 0.290085 0.487139 -0.163986
C24   C     C_R   0.799441 0.723230 0.555107 -0.168987
C25   C     C_R   0.491485 0.956833 0.072600 0.086507
C26   C     C_R   0.486718 0.928995 0.881626 0.080576
C27   C     C_R   0.421971 0.041366 0.011602 -0.002442
C28   C     C_R   0.553943 0.842525 0.939747 0.008857
C29   C     C_2   0.132535 0.398093 0.602252 0.276832
C30   C     C_2   0.975356 0.644655 0.525779 0.258748
C31   C     C_2   0.135413 0.487109 0.605071 -0.157446
C32   C     C_2   0.042119 0.588306 0.608289 -0.156329
C33   C     C_2   0.848801 0.116246 0.898673 -0.216865
C34   C     C_2   0.016617 0.044134 0.154896 -0.217909
C35   C     C_R   0.174520 0.774208 0.487641 -0.130116
C36   C     C_R   0.816711 0.129520 0.361506 -0.128660
C37   C     C_R   0.275931 0.695284 0.485907 -0.145861
C38   C     C_R   0.712886 0.213341 0.350205 -0.136065
C39   C     C_R   0.283537 0.649414 0.390363 0.110813
C40   C     C_R   0.704365 0.295467 0.429914 0.115496
C41   C     C_R   0.187628 0.681039 0.296842 -0.177462
C42   C     C_R   0.801348 0.292115 0.521410 -0.176824
C43   C     C_R   0.086351 0.759814 0.299031 -0.116023
C44   C     C_R   0.904625 0.207252 0.533116 -0.105184
C45   C     C_R   0.593666 0.214415 0.486019 -0.148666
C46   C     C_R   0.404862 0.771346 0.445668 -0.118970
C47   C     C_R   0.079865 0.806528 0.394316 -0.105153
C48   C     C_R   0.912409 0.126252 0.453044 -0.089058
C49   C     C_R   0.395294 0.465467 0.365169 -0.253213
C50   C     C_R   0.588113 0.485424 0.427863 -0.242942
C51   C     C_R   0.498504 0.378301 0.394546 0.053251
C52   C     C_R   0.489466 0.574715 0.423552 0.064863
C53   C     C_R   0.595232 0.386280 0.416505 0.017980
C54   C     C_R   0.390166 0.564140 0.388120 0.023021
C55   C     C_2   0.863409 0.102488 0.989552 -0.108533
C56   C     C_2   0.958001 0.112553 0.084280 -0.106658
C57   C     C_R   0.404824 0.981710 0.708888 0.313740
C58   C     C_R   0.592229 0.961205 0.267053 0.347642
C59   C     C_R   0.409211 0.285102 0.407641 -0.122209
C60   C     C_R   0.590658 0.693218 0.528325 -0.118231
C61   C     C_R   0.589607 0.912999 0.789101 -0.205522
C62   C     C_R   0.405942 0.025296 0.194634 -0.184121
C63   C     C_R   0.237928 0.199368 0.579366 -0.134513
C64   C     C_R   0.802068 0.814069 0.467459 -0.125004
C65   C     C_R   0.757084 0.084460 0.700750 -0.151009
C66   C     C_R   0.195263 0.971303 0.315939 -0.169871
C67   C     C_R   0.787672 0.067992 0.800485 0.146203
C68   C     C_R   0.133075 0.023399 0.227637 0.156089
H1    H     H_    0.769304 0.958655 0.851713 0.090565
H2    H     H_    0.169971 0.117374 0.177917 0.082534
H3    H     H_    0.983279 0.994036 0.151594 0.127989
H4    H     H_    0.893275 0.152543 0.897064 0.128179
H5    H     H_    0.801302 0.468825 0.794947 0.097240
H6    H     H_    0.204212 0.443522 0.127495 0.098679
H7    H     H_    0.601882 0.566096 0.681130 0.115566
H8    H     H_    0.406175 0.369318 0.172027 0.124488
H9    H     H_    0.487052 0.735992 0.747419 0.106783
H10   H     H_    0.507195 0.182625 0.122613 0.100655
H11   H     H_    0.773492 0.713542 0.043631 0.110535
H12   H     H_    0.201633 0.145670 0.974072 0.107298
H13   H     H_    0.886118 0.542461 0.976193 0.102715
H14   H     H_    0.102132 0.331467 0.028008 0.101892
H15   H     H_    0.606650 0.793649 0.085049 0.137650
H16   H     H_    0.372183 0.092923 0.872175 0.136479
H17   H     H_    0.016071 0.606184 0.669230 0.120638
H18   H     H_    0.194787 0.484664 0.584833 0.122739
H19   H     H_    0.001302 0.867207 0.395803 0.108394
H20   H     H_    0.992600 0.061109 0.461876 0.104774
H21   H     H_    0.221545 0.352011 0.452168 0.099708
H22   H     H_    0.826897 0.670353 0.607559 0.092935
H23   H     H_    0.169076 0.809851 0.561301 0.117713
H24   H     H_    0.823100 0.067064 0.299288 0.114141
H25   H     H_    0.348632 0.670401 0.558635 0.109533
H26   H     H_    0.639536 0.215058 0.279172 0.107839
H27   H     H_    0.191688 0.645139 0.222605 0.111535
H28   H     H_    0.796687 0.354596 0.583967 0.110098
H29   H     H_    0.012813 0.784517 0.226854 0.105726
H30   H     H_    0.978708 0.204319 0.604195 0.105117
H31   H     H_    0.318396 0.460716 0.340276 0.130322
H32   H     H_    0.662058 0.492707 0.446215 0.132594
H33   H     H_    0.680668 0.189960 0.508282 0.117747
H34   H     H_    0.318837 0.790192 0.393574 0.126907
H35   H     H_    0.324143 0.322603 0.351757 0.094608
H36   H     H_    0.676443 0.636159 0.559450 0.094598
H37   H     H_    0.675160 0.866982 0.839006 0.122008
H38   H     H_    0.319429 0.049999 0.139645 0.123429
H39   H     H_    0.225205 0.178795 0.632259 0.124015
H40   H     H_    0.837764 0.845424 0.447312 0.119272
H41   H     H_    0.769989 0.137883 0.680687 0.103148
H42   H     H_    0.163136 0.946543 0.347742 0.109118
H43   H     H_    0.990283 0.162767 0.086305 0.124715
H44   H     H_    0.819877 0.065937 0.992158 0.126565
N1    N     N_R   0.705410 0.966550 0.689210 -0.043927
N2    N     N_R   0.294590 0.033450 0.310790 -0.041726
N3    N     N_R   0.294590 0.188320 0.465660 -0.036211
N4    N     N_R   0.705410 0.811680 0.534340 -0.036495
N5    N     N_R   0.556610 0.157790 0.497330 -0.041673
N6    N     N_R   0.443390 0.842210 0.502670 -0.039917
N7    N     N_R   0.443390 0.997080 0.657540 -0.055625
N8    N     N_R   0.556610 0.002920 0.342460 -0.057486
N9    N     N_R   0.443390 0.203250 0.451380 -0.040386
N10   N     N_R   0.556610 0.796750 0.548620 -0.036671
N11   N     N_R   0.556610 0.951620 0.703500 -0.053151
N12   N     N_R   0.443390 0.048380 0.296500 -0.053950
N13   N     N_R   0.294590 0.131500 0.522480 -0.041109
N14   N     N_R   0.705410 0.868500 0.477520 -0.041599
N15   N     N_R   0.705410 0.023370 0.632390 -0.044024
N16   N     N_R   0.294590 0.976630 0.367610 -0.043229
Ni1   Ni    Ni4+2 0.629830 0.882720 0.617850 0.211549
Ni2   Ni    Ni4+2 0.370170 0.117280 0.382150 0.212922
Ni3   Ni    Ni4+2 0.629830 0.013030 0.487540 0.210811
Ni4   Ni    Ni4+2 0.370170 0.986970 0.512460 0.210457
C69   C     C_3   0.010070 0.622366 0.440251 -0.985202
H45   H     H_    0.944211 0.674820 0.377555 0.243160
H46   H     H_    0.087157 0.633610 0.473132 0.256261
H47   H     H_    0.026167 0.540720 0.404153 0.248711
C70   C     C_3   0.050702 0.399221 0.630246 -1.003482
H48   H     H_    0.056006 0.320147 0.619260 0.240890
H49   H     H_    0.068387 0.430134 0.713072 0.245158
H50   H     H_    0.963642 0.449007 0.579778 0.252087
C71   C     C_3   0.291754 0.982368 0.661499 -1.085251
H51   H     H_    0.301162 0.905727 0.666909 0.254976
H52   H     H_    0.241204 0.044641 0.703198 0.245594
H53   H     H_    0.246903 0.995716 0.577913 0.256711
C72   C     C_3   0.701977 0.944136 0.278845 -1.107031
H54   H     H_    0.754440 0.859274 0.268962 0.251667
H55   H     H_    0.688197 0.982348 0.218405 0.254915
H56   H     H_    0.744791 0.980530 0.355714 0.256209

loop_
_geom_bond_atom_site_label_1
_geom_bond_atom_site_label_2
_ccdc_geom_bond_type
C33   C55   D    
C66   C68   A    
C55   C56   S    
C34   C56   D    
C55   H44   S    
N8    Ni3   S    
C41   C43   A    
C3    C23   A    
N9    Ni2   S    
C20   H6    S    
C35   C47   A    
N7    N11   A    
C62   N12   A    
C72   H54   S    
C58   C72   S    
C39   C41   A    
C60   H36   S    
C70   H49   S    
C7    C26   S    
C42   C44   A    
C42   H28   S    
C65   N15   A    
C35   C37   A    
C2    C68   A    
C71   H52   S    
C4    C24   A    
C39   C54   S    
C49   C54   A    
C6    C52   S    
C46   N6    A    
N6    N10   A    
C3    C29   S    
N5    N9    A    
C7    C61   A    
C11   H9    S    
C33   H4    S    
C8    C58   A    
C10   H8    S    
C9    C19   A    
C15   H11   S    
N4    Ni1   S    
C21   H15   S    
C10   C20   A    
C49   C51   A    
C12   H10   S    
C69   H47   S    
C50   C52   A    
C48   H20   S    
C13   C28   S    
C14   C27   S    
C61   H37   S    
C56   H43   S    
C18   C20   A    
C57   N7    A    
C36   H24   S    
C40   C42   A    
C31   H18   S    
N4    N14   A    
N11   Ni1   S    
C8    C25   S    
N2    Ni2   S    
C1    N1    A    
N16   Ni4   S    
C72   H55   S    
C52   C54   A    
C64   H40   S    
C10   C12   A    
N10   Ni1   S    
C70   H50   S    
C50   C53   A    
C5    C59   A    
N12   Ni2   S    
C6    C60   A    
C19   H5    S    
C71   H53   S    
C34   C68   S    
C65   C67   A    
C5    C45   A    
C1    H1    S    
C1    C67   A    
C51   C53   A    
C22   H16   S    
C49   H31   S    
N2    N16   A    
C31   C32   S    
C30   C69   S    
C38   H26   S    
C58   N8    A    
N7    Ni4   S    
C37   H25   S    
C66   H42   S    
C60   N10   A    
C9    C11   A    
C65   H41   S    
C63   N13   A    
C2    N2    A    
C45   H33   S    
C62   H38   S    
C16   C18   A    
C21   C28   A    
C12   C14   A    
C24   N4    A    
C18   H14   S    
C64   N14   A    
C22   C27   A    
C13   C15   A    
C69   H45   S    
C14   C16   A    
C63   H39   S    
C72   H56   S    
C33   C67   S    
C45   N5    A    
C15   C17   A    
C21   C25   A    
C6    C46   A    
C26   C28   A    
C43   H29   S    
C24   H22   S    
C23   H21   S    
N1    N15   A    
C3    C63   A    
C25   C27   A    
C29   C70   S    
C70   H48   S    
C4    C64   A    
C50   H32   S    
N3    N13   A    
C57   C71   S    
C61   N11   A    
C59   H35   S    
C36   C38   A    
C29   C31   D    
C2    H2    S    
C71   H51   S    
C30   C32   D    
C11   C13   A    
N13   Ni4   S    
C41   H27   S    
C38   C40   A    
N14   Ni3   S    
C32   H17   S    
C17   C19   A    
C23   N3    A    
C66   N16   A    
C36   C48   A    
C17   H13   S    
N5    Ni3   S    
N15   Ni3   S    
N6    Ni4   S    
C44   H30   S    
C59   N9    A    
C44   C48   A    
C37   C39   A    
C40   C53   S    
C22   C26   A    
C8    C62   A    
C69   H46   S    
C5    C51   S    
C9    H7    S    
C16   H12   S    
N1    Ni1   S    
C43   C47   A    
C34   H3    S    
C7    C57   A    
C4    C30   S    
N8    N12   A    
C47   H19   S    
C46   H34   S    
N3    Ni2   S    
C35   H23   S    
