data_mof_unit_46363.cif
_audit_creation_date              2013-03-05T16:03:41-0500
_audit_creation_method            fapswitch 2.2
_symmetry_space_group_name_H-M    P1
_symmetry_Int_Tables_number       1
_space_group_crystal_system       triclinic
_cell_length_a                    8.815684
_cell_length_b                    10.796181
_cell_length_c                    9.655181
_cell_angle_alpha                 89.250622
_cell_angle_beta                  97.709656
_cell_angle_gamma                 93.579021
_cell_volume                      908.845823688

loop_
_atom_site_label
_atom_site_type_symbol
_atom_site_description
_atom_site_fract_x
_atom_site_fract_y
_atom_site_fract_z
_atom_type_partial_charge
O1    O     O_R   0.499990 0.319660 0.618740 -0.609228
O2    O     O_R   0.500010 0.680340 0.381260 -0.609228
O3    O     O_R   0.499990 0.319630 0.381170 -0.530071
O4    O     O_R   0.500010 0.680370 0.618830 -0.530069
C1    C     C_R   0.499631 0.262539 0.500520 0.788123
C2    C     C_R   0.500369 0.737461 0.499480 0.788124
O5    O     O_R   0.274840 0.500010 0.591370 -0.579624
O6    O     O_R   0.725160 0.499990 0.408630 -0.579623
O7    O     O_R   0.274830 0.499980 0.353800 -0.510667
O8    O     O_R   0.725170 0.500020 0.646200 -0.510662
C3    C     C_R   0.204748 0.499864 0.464428 0.811768
C4    C     C_R   0.795252 0.500136 0.535572 0.811768
Cu1   Cu    Cu3+1 0.500000 0.500020 0.640660 1.061524
Cu2   Cu    Cu3+1 0.500000 0.499980 0.359340 1.061522
N1    N     N_R   0.500040 0.500030 0.852080 -0.244397
N2    N     N_R   0.499960 0.499970 0.147920 -0.244398
C5    C     C_2   0.039243 0.488134 0.446092 0.015919
C6    C     C_2   0.960757 0.511867 0.553908 0.015919
C7    C     C_R   0.575064 0.069590 0.403551 -0.069716
C8    C     C_R   0.424935 0.930410 0.596449 -0.069714
H1    H     H_    0.635148 0.122735 0.329475 0.198499
H2    H     H_    0.364850 0.877265 0.670525 0.198501
C9    C     C_R   0.574796 0.941278 0.402736 -0.158940
C10   C     C_R   0.425204 0.058722 0.597263 -0.158940
H3    H     H_    0.636195 0.897157 0.329531 0.147433
H4    H     H_    0.363804 0.102843 0.670469 0.147433
C11   C     C_R   0.499557 0.871442 0.498917 -0.019313
C12   C     C_R   0.500442 0.128558 0.501082 -0.019312
C13   C     C_R   0.415621 0.411152 0.066276 0.430961
C14   C     C_R   0.584377 0.588849 0.933724 0.430963
C15   C     C_R   0.412477 0.412176 0.917984 0.123225
C16   C     C_R   0.587522 0.587825 0.082015 0.123225
N3    N     N_R   0.964576 0.437047 0.315854 0.157429
O9    O     O_R   0.974839 0.497265 0.199590 -0.284803
O10   O     O_R   0.900983 0.324842 0.312091 -0.331693
N4    N     N_R   0.035424 0.562955 0.684146 0.157428
O11   O     O_R   0.025155 0.502740 0.800411 -0.284800
O12   O     O_R   0.099020 0.675159 0.687908 -0.331695
N5    N     N_R   0.332082 0.313353 0.130346 0.134230
O13   O     O_R   0.381427 0.202090 0.134726 -0.368953
O14   O     O_R   0.190443 0.326784 0.147506 -0.266652
N6    N     N_R   0.667909 0.686653 0.869655 0.134227
O15   O     O_R   0.618562 0.797915 0.865284 -0.368957
O16   O     O_R   0.809541 0.673223 0.852472 -0.266652
C17   C     C_3   0.308486 0.313089 0.839013 -0.606212
H5    H     H_    0.285919 0.326560 0.726376 0.240739
H6    H     H_    0.357764 0.221847 0.861000 0.215650
H7    H     H_    0.193562 0.309492 0.874205 0.254761
C18   C     C_3   0.691512 0.686912 0.160987 -0.606208
H8    H     H_    0.714081 0.673440 0.273624 0.240740
H9    H     H_    0.806435 0.690512 0.125791 0.254758
H10   H     H_    0.642231 0.778153 0.139002 0.215652

loop_
_geom_bond_atom_site_label_1
_geom_bond_atom_site_label_2
_geom_bond_distance
_ccdc_geom_bond_type
C7    C9    1.385255 A    
O7    Cu2   1.978563 S    
N1    C15   1.387446 A    
C8    C11   1.399646 A    
C9    C11   1.398316 A    
C14   C16   1.428235 A    
C1    C12   1.446884 S    
C2    C11   1.446885 S    
O6    C4    1.296442 A    
C18   H10   1.107861 S    
C13   N5    1.431062 S    
N4    O12   1.301526 A    
N3    O9    1.300685 A    
O3    C1    1.299994 A    
C13   C15   1.428236 A    
C17   H5    1.088524 S    
O5    C3    1.296441 A    
C7    C12   1.399645 A    
O7    C3    1.303662 A    
O2    C2    1.303987 A    
O3    Cu2   1.955719 S    
N6    O16   1.298589 A    
O1    C1    1.303986 A    
O8    C4    1.303664 A    
C5    N3    1.438554 S    
N4    O11   1.300688 A    
C7    H1    1.083639 S    
C8    H2    1.083640 S    
C5    C6    1.360293 D    
Cu1   N1    2.041253 S    
O2    Cu2   1.961411 S    
Cu2   N2    2.041252 S    
C16   C18   1.509149 S    
O1    Cu1   1.961410 S    
N6    O15   1.301114 A    
C8    C10   1.385257 A    
O5    Cu1   1.978129 S    
C9    H3    1.078477 S    
C17   H6    1.107857 S    
N5    O14   1.298592 A    
N1    C14   1.366452 A    
O4    C2    1.299994 A    
C18   H8    1.088529 S    
C15   C17   1.509149 S    
C17   H7    1.109288 S    
C4    C6    1.443744 S    
N5    O13   1.301115 A    
N2    C16   1.387444 A    
C3    C5    1.443743 S    
O6    Cu2   1.978127 S    
N3    O10   1.301525 A    
N2    C13   1.366451 A    
Cu1   Cu2   2.716201 S    
C6    N4    1.438555 S    
C14   N6    1.431062 S    
C10   C12   1.398316 A    
O4    Cu1   1.955720 S    
C10   H4    1.078476 S    
C18   H9    1.109292 S    
O8    Cu1   1.978561 S    
