data_mof_unit_13408.cif
_audit_creation_date              2012-12-10T18:20:32-0500
_audit_creation_method            fapswitch 2.2
_symmetry_space_group_name_H-M    P1
_symmetry_Int_Tables_number       1
_space_group_crystal_system       triclinic
_cell_length_a                    14.206876
_cell_length_b                    13.636377
_cell_length_c                    14.875619
_cell_angle_alpha                 87.638326
_cell_angle_beta                  89.156346
_cell_angle_gamma                 83.630189
_cell_volume                      2861.48501854

loop_
_atom_site_label
_atom_site_type_symbol
_atom_type_description
_atom_site_fract_x
_atom_site_fract_y
_atom_site_fract_z
_atom_type_partial_charge
C1    C     C_R   0.500520 0.500685 0.327256 0.863077
C2    C     C_R   0.574148 0.329448 0.959198 0.450442
C3    C     C_R   0.804603 0.433941 0.555146 0.512474
C4    C     C_R   0.195278 0.568721 0.447480 0.500833
C5    C     C_R   0.793447 0.564438 0.442138 0.188070
C6    C     C_R   0.207137 0.429857 0.551668 0.186969
C7    C     C_R   0.893995 0.564736 0.440541 0.019703
C8    C     C_R   0.107272 0.425745 0.548630 0.022296
C9    C     C_R   0.950071 0.496390 0.495610 0.027252
C10   C     C_R   0.051018 0.496052 0.495563 0.029936
C11   C     C_R   0.905748 0.427276 0.549607 -0.103104
C12   C     C_R   0.499188 0.500111 0.672771 0.861036
C13   C     C_R   0.095398 0.565298 0.441752 -0.101937
C14   C     C_R   0.940557 0.629599 0.382832 -0.189153
C15   C     C_R   0.061988 0.351858 0.596258 -0.192413
C16   C     C_R   0.516617 0.314754 0.500281 0.888825
C17   C     C_R   0.483417 0.685190 0.500650 0.883664
C18   C     C_R   0.038963 0.628489 0.382397 -0.180309
C19   C     C_R   0.963727 0.352095 0.595684 -0.179576
C20   C     C_1   0.471150 0.788070 0.505516 -0.224739
C21   C     C_1   0.529053 0.211492 0.500911 -0.193744
C22   C     C_2   0.459572 0.979030 0.513674 0.200557
C23   C     C_R   0.496060 0.499178 0.953409 -0.004787
C24   C     C_2   0.541317 0.019815 0.502912 0.192252
C25   C     C_1   0.537935 0.123993 0.501704 0.011865
C26   C     C_1   0.462457 0.875208 0.509856 0.004007
C27   C     C_R   0.534993 0.415215 0.815966 -0.265374
C28   C     C_R   0.457779 0.583665 0.184581 -0.215760
C29   C     C_R   0.496898 0.499578 0.768162 -0.065410
C30   C     C_R   0.501469 0.501414 0.231958 -0.063731
C31   C     C_R   0.455303 0.582630 0.810716 -0.216353
C32   C     C_R   0.543341 0.418710 0.189202 -0.216148
C33   C     C_R   0.454881 0.583323 0.903817 0.084316
C34   C     C_R   0.497581 0.500238 0.046924 -0.010356
C35   C     C_R   0.540279 0.416696 0.096359 0.082639
C36   C     C_3   0.636150 0.959997 0.489099 -0.920000
C37   C     C_3   0.364596 0.038814 0.526668 -0.943885
C38   C     C_3   0.438307 0.822675 0.083115 0.079001
C39   C     C_3   0.397522 0.908315 0.139260 -0.818748
C40   C     C_3   0.545061 0.177741 0.917265 0.085450
C41   C     C_3   0.582776 0.090084 0.862184 -0.829488
C42   C     C_3   0.772095 0.388601 0.702417 0.052585
C43   C     C_3   0.769264 0.293637 0.759469 -0.771972
C44   C     C_3   0.221332 0.731372 0.434330 0.101111
C45   C     C_R   0.535482 0.413926 0.909277 0.026865
C46   C     C_3   0.264150 0.807490 0.373380 -0.797553
C47   C     C_3   0.737169 0.636035 0.377565 -0.816383
C48   C     C_3   0.263439 0.356696 0.614803 -0.818442
C49   C     C_R   0.456717 0.584833 0.091210 0.018225
C50   C     C_R   0.414690 0.666829 0.947733 -0.330646
C51   C     C_R   0.578390 0.332323 0.052600 -0.322881
C52   C     C_R   0.416337 0.668654 0.041428 0.466718
H1    H     H_    0.563245 0.351012 0.779816 0.176445
H2    H     H_    0.933618 0.292722 0.632106 0.175857
H3    H     H_    0.694148 0.008372 0.483787 0.248747
H4    H     H_    0.651382 0.906662 0.546864 0.245746
H5    H     H_    0.635589 0.919059 0.426135 0.239159
H6    H     H_    0.307405 0.990033 0.537255 0.240619
H7    H     H_    0.366293 0.084570 0.586559 0.241625
H8    H     H_    0.347322 0.087660 0.466236 0.248890
H9    H     H_    0.449609 0.851551 0.013114 0.141234
H10   H     H_    0.507818 0.792210 0.112420 0.132007
H11   H     H_    0.387297 0.882047 0.210020 0.253937
H12   H     H_    0.425998 0.646555 0.220975 0.185344
H13   H     H_    0.446920 0.966040 0.137961 0.202285
H14   H     H_    0.328296 0.940991 0.111703 0.260526
H15   H     H_    0.477230 0.211473 0.886703 0.137556
H16   H     H_    0.531206 0.150243 0.987226 0.143904
H17   H     H_    0.650230 0.054158 0.891052 0.260909
H18   H     H_    0.530362 0.035383 0.862915 0.203786
H19   H     H_    0.595520 0.115103 0.791480 0.252845
H20   H     H_    0.714038 0.443224 0.724885 0.186632
H21   H     H_    0.839315 0.419465 0.717171 0.118640
H22   H     H_    0.832656 0.241061 0.745764 0.228535
H23   H     H_    0.424931 0.646743 0.771148 0.130985
H24   H     H_    0.768198 0.310407 0.831901 0.243058
H25   H     H_    0.705301 0.257926 0.743840 0.274718
H26   H     H_    0.252630 0.730804 0.502366 0.159536
H27   H     H_    0.144595 0.756093 0.441871 0.112651
H28   H     H_    0.256274 0.880275 0.405132 0.205872
H29   H     H_    0.340483 0.784234 0.361287 0.255823
H30   H     H_    0.227383 0.814961 0.307675 0.255724
H31   H     H_    0.761709 0.622084 0.307552 0.208239
H32   H     H_    0.661618 0.631726 0.376824 0.287692
H33   H     H_    0.746856 0.712985 0.393971 0.207824
H34   H     H_    0.575882 0.355440 0.228550 0.135761
H35   H     H_    0.231412 0.360105 0.683316 0.202080
H36   H     H_    0.263843 0.280903 0.590073 0.217021
H37   H     H_    0.336353 0.370021 0.624411 0.287719
H38   H     H_    0.382238 0.730848 0.909515 0.161199
H39   H     H_    0.610824 0.268237 0.090746 0.163613
H40   H     H_    0.902144 0.682407 0.336869 0.151952
H41   H     H_    0.101468 0.292266 0.634446 0.151426
H42   H     H_    0.070380 0.678191 0.335121 0.177674
N1    N     N_R   0.750030 0.500040 0.500070 -0.141036
N2    N     N_R   0.249970 0.499960 0.499930 -0.142228
O1    O     O_R   0.580280 0.500020 0.367860 -0.635807
O2    O     O_3   0.612901 0.245950 0.916630 -0.624300
O3    O     O_3   0.760174 0.368619 0.610573 -0.583168
O4    O     O_3   0.239224 0.637568 0.395997 -0.579467
O5    O     O_R   0.419720 0.499980 0.632140 -0.636045
O6    O     O_R   0.419730 0.500030 0.367840 -0.563088
O7    O     O_R   0.580270 0.499970 0.632160 -0.603395
O8    O     O_R   0.591830 0.359650 0.500030 -0.560271
O9    O     O_R   0.408170 0.640350 0.499970 -0.593324
O10   O     O_R   0.431280 0.359660 0.500010 -0.624714
O11   O     O_R   0.568720 0.640340 0.499990 -0.623680
O12   O     O_3   0.374234 0.750527 0.084438 -0.603846
Zn1   Zn    Zn3+2 0.607200 0.499990 0.500020 0.976161
Zn2   Zn    Zn3+2 0.392800 0.500010 0.499980 0.975142

loop_
_geom_bond_atom_site_label_1
_geom_bond_atom_site_label_2
_ccdc_geom_bond_type
C46   H28   S    
O9    Zn2   S    
C16   C21   S    
C23   C45   A    
C12   C29   S    
C27   C29   A    
C39   H13   S    
C14   C18   A    
C15   C19   A    
C5    C47   S    
C11   C19   A    
C24   C36   S    
C6    C48   S    
C13   C18   A    
C47   H33   S    
C17   O11   A    
C40   O2    S    
C38   C39   S    
C17   C20   S    
C34   C35   A    
C4    C13   A    
C51   H39   S    
C46   H30   S    
C50   H38   S    
C7    C14   A    
C44   C46   S    
C23   C33   A    
C40   H15   S    
C50   C52   A    
C48   H36   S    
C47   H31   S    
C9    C10   A    
C37   H6    S    
C16   O10   A    
C41   H19   S    
C38   H9    S    
C49   C52   A    
C43   H22   S    
C4    N2    A    
O11   Zn1   S    
C5    N1    A    
C16   O8    A    
C2    C45   A    
C31   C33   A    
C32   C35   A    
C24   C25   S    
C12   O7    A    
C36   H5    S    
N1    Zn1   S    
C1    O1    A    
C5    C7    A    
C6    C8    A    
O5    Zn2   S    
C22   C37   S    
N2    Zn2   S    
C36   H4    S    
C17   O9    A    
C46   H29   S    
O1    Zn1   S    
C28   C49   A    
C31   H23   S    
C23   C34   A    
C32   H34   S    
C42   H20   S    
C48   H35   S    
C47   H32   S    
C9    C11   A    
C14   H40   S    
C37   H7    S    
C28   H12   S    
C19   H2    S    
C40   C41   S    
C8    C15   A    
C6    N2    A    
C48   H37   S    
C4    O4    S    
C35   C51   A    
C18   H42   S    
C39   H14   S    
C22   C24   D    
O6    Zn2   S    
C42   C43   S    
C41   H17   S    
O10   Zn2   S    
C43   H24   S    
C7    C9    A    
C21   C25   T    
C42   H21   S    
C44   H27   S    
C10   C13   A    
C15   H41   S    
C27   H1    S    
C43   H25   S    
C39   H11   S    
O7    Zn1   S    
C44   H26   S    
C33   C50   A    
C12   O5    A    
C29   C31   A    
C36   H3    S    
C42   O3    S    
C30   C32   A    
C44   O4    S    
C27   C45   A    
O8    Zn1   S    
C20   C26   T    
C28   C30   A    
C1    C30   S    
C38   O12   S    
C37   H8    S    
C3    C11   A    
C2    C51   A    
C22   C26   S    
C3    O3    S    
C2    O2    S    
C34   C49   A    
C8    C10   A    
C40   H16   S    
C52   O12   S    
C3    N1    A    
C1    O6    A    
C41   H18   S    
C38   H10   S    
