data_mof_unit_42863.cif
_audit_creation_date              2012-12-10T17:04:35-0500
_audit_creation_method            fapswitch 2.2
_symmetry_space_group_name_H-M    P1
_symmetry_Int_Tables_number       1
_space_group_crystal_system       triclinic
_cell_length_a                    14.921806
_cell_length_b                    10.786707
_cell_length_c                    10.119611
_cell_angle_alpha                 89.693806
_cell_angle_beta                  90.372679
_cell_angle_gamma                 91.479524
_cell_volume                      1628.22444175

loop_
_atom_site_label
_atom_site_type_symbol
_atom_type_description
_atom_site_fract_x
_atom_site_fract_y
_atom_site_fract_z
_atom_type_partial_charge
C1    C     C_R   0.502167 0.262876 0.499898 0.941446
C2    C     C_R   0.186153 0.380298 0.483625 -0.113134
C3    C     C_R   0.231740 0.494801 0.501016 -0.203989
C4    C     C_R   0.327475 0.500465 0.499850 1.002833
C5    C     C_R   0.187369 0.604521 0.524836 0.424484
C6    C     C_2   0.504040 0.935026 0.387327 0.505096
C7    C     C_2   0.488014 0.867178 0.496328 -0.365128
C8    C     C_2   0.482416 0.064420 0.394931 -0.191384
C9    C     C_2   0.517556 0.131713 0.495947 0.280857
C10   C     C_2   0.565557 0.546702 0.926634 -0.023295
C11   C     C_2   0.572018 0.523574 0.075603 0.680788
C12   C     C_R   0.907932 0.599402 0.533219 0.125836
C13   C     C_R   0.498860 0.736761 0.499210 0.952611
C14   C     C_R   0.672398 0.498942 0.500294 0.900545
C15   C     C_R   0.815575 0.600630 0.527781 -0.315411
C16   C     C_R   0.767377 0.492053 0.501135 -0.063760
C17   C     C_R   0.808976 0.378055 0.483354 -0.060993
C18   C     C_R   0.902898 0.375145 0.492878 -0.003333
C19   C     C_R   0.952481 0.486796 0.514404 0.102723
C20   C     C_2   0.412302 0.105729 0.301353 0.437327
C21   C     C_3   0.571348 0.098691 0.708986 -0.223815
C22   C     C_2   0.637440 0.621935 0.864091 0.430760
C23   C     C_R   0.948082 0.263510 0.483025 -0.195249
C24   C     C_2   0.461091 0.383761 0.887289 0.552685
C25   C     C_3   0.686948 0.637365 0.168447 -0.302053
C26   C     C_3   0.351467 0.475451 0.119627 -0.086449
C27   C     C_2   0.754322 0.263259 0.457579 0.375403
C28   C     C_2   0.080138 0.135944 0.512811 0.345731
C29   C     C_2   0.237476 0.271746 0.441479 0.310581
C30   C     C_3   0.248815 0.775671 0.424426 -0.328103
C31   C     C_3   0.600951 0.951485 0.211939 -0.208583
C32   C     C_R   0.041099 0.260155 0.492702 0.012488
C33   C     C_R   0.092014 0.373905 0.497015 -0.052835
C34   C     C_R   0.046446 0.486908 0.514890 -0.013542
C35   C     C_R   0.094381 0.601069 0.532716 0.005484
C36   C     C_R   0.048591 0.710489 0.557309 -0.143574
C37   C     C_R   0.955979 0.709654 0.556953 -0.208192
H1    H     H_    0.780646 0.686495 0.542892 0.157222
H2    H     H_    0.706767 0.596015 0.876573 0.066675
H3    H     H_    0.396941 0.356843 0.843843 0.070495
H4    H     H_    0.706941 0.694639 0.082050 0.124721
H5    H     H_    0.747789 0.628887 0.231083 0.207040
H6    H     H_    0.636527 0.686656 0.227256 0.211184
H7    H     H_    0.300735 0.528223 0.173859 0.158135
H8    H     H_    0.366482 0.387661 0.172642 0.201798
H9    H     H_    0.318913 0.450816 0.024335 0.104576
H10   H     H_    0.763836 0.180784 0.517294 0.086213
H11   H     H_    0.137591 0.124874 0.577524 0.112584
H12   H     H_    0.463753 0.909170 0.586336 0.150399
H13   H     H_    0.216745 0.220270 0.354174 0.081877
H14   H     H_    0.291694 0.721692 0.357576 0.179986
H15   H     H_    0.283865 0.865865 0.443148 0.192453
H16   H     H_    0.184014 0.795625 0.374618 0.183925
H17   H     H_    0.657725 0.963691 0.283148 0.168763
H18   H     H_    0.578933 0.042862 0.174692 0.235230
H19   H     H_    0.625985 0.900249 0.125518 0.163636
H20   H     H_    0.911071 0.176463 0.473674 0.172312
H21   H     H_    0.084069 0.797765 0.574838 0.219226
H22   H     H_    0.921886 0.795727 0.573415 0.173435
H23   H     H_    0.343591 0.073190 0.314549 0.056078
H24   H     H_    0.498942 0.095693 0.735703 0.174795
H25   H     H_    0.604259 0.186695 0.742271 0.201651
H26   H     H_    0.603510 0.022223 0.763816 0.209246
N1    N     N_2   0.500970 0.501330 0.852150 -0.174643
N2    N     N_2   0.500990 0.501360 0.147810 0.066563
O1    O     O_R   0.499990 0.319060 0.613040 -0.662800
O2    O     O_3   0.586022 0.081648 0.572685 -0.643628
O3    O     O_2   0.620404 0.715877 0.802415 -0.556006
O4    O     O_2   0.500638 0.308168 0.955005 -0.597990
O5    O     O_3   0.656478 0.516906 0.132248 -0.607663
O6    O     O_3   0.427038 0.553319 0.095307 -0.584961
O7    O     O_2   0.699793 0.259400 0.367203 -0.519201
O8    O     O_2   0.046958 0.043952 0.459995 -0.595954
O9    O     O_2   0.300564 0.236281 0.507619 -0.637264
O10   O     O_3   0.235834 0.714156 0.546578 -0.613546
O11   O     O_3   0.529211 0.882113 0.268369 -0.596195
O12   O     O_R   0.500010 0.319100 0.386900 -0.562073
O13   O     O_R   0.367830 0.499950 0.613080 -0.608433
O14   O     O_R   0.367860 0.499990 0.386940 -0.665121
O15   O     O_R   0.499990 0.680900 0.613100 -0.558689
O16   O     O_R   0.500010 0.680940 0.386960 -0.584922
O17   O     O_R   0.632140 0.500010 0.613060 -0.641745
O18   O     O_R   0.632170 0.500050 0.386920 -0.554571
O19   O     O_2   0.431931 0.167710 0.204106 -0.531284
Zn1   Zn    Zn3+2 0.499980 0.499970 0.650990 1.005971
Zn2   Zn    Zn3+2 0.500020 0.500030 0.349010 1.075641

loop_
_geom_bond_atom_site_label_1
_geom_bond_atom_site_label_2
_ccdc_geom_bond_type
C30   H14   S    
C1    O12   A    
C35   C36   A    
C25   H6    S    
O1    Zn1   S    
C11   O5    S    
C26   H7    S    
N2    Zn2   S    
C10   C22   S    
C8    C20   S    
C2    C29   S    
C36   C37   A    
C18   C19   A    
C36   H21   S    
C15   C16   A    
C13   O16   A    
C34   C35   A    
C12   C37   A    
C26   H8    S    
C8    C9    D    
C31   H19   S    
C20   H23   S    
C21   H24   S    
O16   Zn2   S    
C13   O15   A    
C24   N1    S    
C21   O2    S    
C26   O6    S    
C14   O18   A    
C28   O8    D    
C24   O4    D    
C33   C34   A    
C29   H13   S    
C30   H16   S    
C18   C23   A    
C17   C27   S    
C28   C32   S    
C1    C9    S    
C7    H12   S    
C4    O14   A    
C25   H4    S    
C16   C17   A    
C6    C8    S    
C29   O9    D    
N2    O6    S    
C1    O1    A    
C5    O10   S    
C9    O2    S    
C15   H1    S    
C4    O13   A    
O15   Zn1   S    
C12   C15   A    
C17   C18   A    
C22   O3    D    
C21   H25   S    
C37   H22   S    
O13   Zn1   S    
O12   Zn2   S    
C20   O19   D    
C14   C16   S    
C14   O17   A    
C3    C4    S    
N1    Zn1   S    
C2    C33   A    
C27   H10   S    
C23   H20   S    
C30   H15   S    
C28   H11   S    
C10   N1    D    
C3    C5    A    
C19   C34   A    
C25   H5    S    
C6    O11   S    
C6    C7    D    
O17   Zn1   S    
C32   C33   A    
C2    C3    A    
C23   C32   A    
C30   O10   S    
C31   O11   S    
C22   H2    S    
C5    C35   A    
C12   C19   A    
C24   H3    S    
C31   H17   S    
C21   H26   S    
C10   C11   S    
C26   H9    S    
C7    C13   S    
O18   Zn2   S    
C25   O5    S    
C31   H18   S    
O14   Zn2   S    
C27   O7    D    
C11   N2    D    
