data_mof_unit_27387.cif
_audit_creation_date              2013-03-05T15:57:37-0500
_audit_creation_method            fapswitch 2.2
_symmetry_space_group_name_H-M    P1
_symmetry_Int_Tables_number       1
_space_group_crystal_system       triclinic
_cell_length_a                    14.978557
_cell_length_b                    13.707294
_cell_length_c                    11.743521
_cell_angle_alpha                 89.953944
_cell_angle_beta                  90.865172
_cell_angle_gamma                 90.161305
_cell_volume                      2410.84157192

loop_
_atom_site_label
_atom_site_type_symbol
_atom_site_description
_atom_site_fract_x
_atom_site_fract_y
_atom_site_fract_z
_atom_type_partial_charge
O1    O     O_R   0.370260 0.582280 0.500020 -0.579260
O2    O     O_R   0.629740 0.417720 0.499980 -0.570699
O3    O     O_R   0.629740 0.582280 0.499980 -0.580548
O4    O     O_R   0.370260 0.417720 0.500020 -0.571405
C1    C     C_R   0.328841 0.499927 0.497815 0.805275
C2    C     C_R   0.671174 0.500129 0.501632 0.801591
O5    O     O_R   0.500010 0.582270 0.337200 -0.562085
O6    O     O_R   0.499990 0.417730 0.662800 -0.580323
O7    O     O_R   0.499990 0.582270 0.662800 -0.561365
O8    O     O_R   0.500010 0.417730 0.337200 -0.579009
C3    C     C_R   0.500034 0.500039 0.283786 0.820878
C4    C     C_R   0.499945 0.499977 0.716213 0.822405
Cu1   Cu    Cu3+1 0.500000 0.597420 0.500000 1.003685
Cu2   Cu    Cu3+1 0.500000 0.402580 0.500000 0.995175
C5    C     C_1   0.500040 0.500124 0.162174 -0.114418
C6    C     C_1   0.499896 0.499972 0.837823 -0.112722
C7    C     C_1   0.499994 0.500126 0.059847 0.069617
C8    C     C_1   0.499918 0.500049 0.940149 0.070710
C9    C     C_R   0.811345 0.513645 0.399893 -0.104385
C10   C     C_R   0.188582 0.494786 0.600158 -0.095677
C11   C     C_R   0.767547 0.501151 0.501994 -0.060230
C12   C     C_R   0.232497 0.500537 0.497397 -0.063210
C13   C     C_R   0.814723 0.495440 0.604523 -0.177149
C14   C     C_R   0.185469 0.513509 0.395637 -0.177864
C15   C     C_R   0.908448 0.500004 0.606379 0.096175
C16   C     C_R   0.091736 0.517571 0.394650 0.086159
C17   C     C_R   0.953296 0.512421 0.501580 -0.018080
C18   C     C_R   0.046837 0.512242 0.500104 -0.015013
C19   C     C_R   0.904282 0.523862 0.398123 -0.020964
C20   C     C_R   0.095852 0.505647 0.604042 -0.004291
C21   C     C_R   0.957752 0.495370 0.710388 -0.007023
C22   C     C_R   0.042514 0.529359 0.291468 -0.014040
C23   C     C_R   0.051364 0.509021 0.709128 0.353015
C24   C     C_R   0.949087 0.543367 0.295389 0.411000
H1    H     H_    0.771694 0.512410 0.322227 0.187929
H2    H     H_    0.227928 0.480512 0.676318 0.190495
H3    H     H_    0.776928 0.488834 0.681979 0.136087
H4    H     H_    0.223311 0.521049 0.318316 0.136820
C25   C     C_R   0.438765 0.792818 0.562207 0.135156
C26   C     C_R   0.562779 0.207196 0.440410 0.136447
C27   C     C_R   0.561564 0.793288 0.438274 0.132897
C28   C     C_R   0.437284 0.206719 0.559810 0.135583
N1    N     N_R   0.500000 0.743810 0.500000 -0.228851
N2    N     N_R   0.500000 0.256190 0.500000 -0.227335
C29   C     C_R   0.562637 0.896772 0.434073 -0.140433
C30   C     C_R   0.433386 0.103293 0.559137 -0.138729
C31   C     C_R   0.437899 0.896240 0.566621 -0.140810
C32   C     C_R   0.566934 0.103854 0.441611 -0.139155
C33   C     C_R   0.500185 0.948325 0.500263 -0.012068
C34   C     C_R   0.500155 0.051708 0.500313 -0.015718
C35   C     C_R   0.625523 0.949475 0.368173 0.310445
C36   C     C_R   0.366018 0.050779 0.617391 0.323583
C37   C     C_R   0.375569 0.948302 0.633405 0.313747
C38   C     C_R   0.634817 0.052002 0.384281 0.324446
H5    H     H_    0.389624 0.750002 0.606258 0.197838
H6    H     H_    0.608282 0.249887 0.390240 0.192448
H7    H     H_    0.610920 0.750754 0.394769 0.198245
H8    H     H_    0.391694 0.249095 0.609820 0.191919
C39   C     C_3   0.910586 0.473386 0.820927 -0.645984
H9    H     H_    0.867358 0.408004 0.810205 0.217830
H10   H     H_    0.957040 0.454861 0.891816 0.296090
H11   H     H_    0.869339 0.536788 0.846026 0.245994
C40   C     C_3   0.089275 0.522776 0.178177 -0.559024
H12   H     H_    0.133365 0.457816 0.177040 0.205224
H13   H     H_    0.042178 0.511689 0.105928 0.307273
H14   H     H_    0.129440 0.589679 0.163472 0.258647
S1    S     S_3+6 0.109976 0.545552 0.835852 0.005199
O9    O     O_2   0.138646 0.456340 0.901045 -0.266789
O10   O     O_2   0.190894 0.606332 0.809776 -0.249008
O11   O     O_3   0.042841 0.613185 0.917072 -0.498184
H15   H     H_    0.026062 0.669721 0.868791 0.364320
S2    S     S_3+6 0.891314 0.597418 0.176837 0.015730
O12   O     O_2   0.863325 0.518760 0.094615 -0.307632
O13   O     O_2   0.810201 0.652474 0.214129 -0.244776
O14   O     O_3   0.959037 0.677087 0.111558 -0.479160
H16   H     H_    0.920462 0.710494 0.054526 0.388868
S3    S     S_3+6 0.684954 0.888726 0.258216 0.079479
O15   O     O_2   0.765235 0.839506 0.310408 -0.215309
O16   O     O_2   0.626193 0.813160 0.202019 -0.281405
O17   O     O_3   0.717815 0.966909 0.156593 -0.434831
H17   H     H_    0.757758 0.928439 0.107482 0.386527
S4    S     S_3+6 0.265383 0.111489 0.655861 0.059670
O18   O     O_2   0.280028 0.162751 0.767729 -0.244388
O19   O     O_2   0.240636 0.185585 0.566370 -0.303583
O20   O     O_3   0.179548 0.032834 0.666540 -0.433764
H18   H     H_    0.129015 0.072651 0.693545 0.387149
S5    S     S_3+6 0.318623 0.886951 0.745584 0.076680
O21   O     O_2   0.238562 0.834612 0.696487 -0.233891
O22   O     O_2   0.379817 0.813694 0.801238 -0.281502
O23   O     O_3   0.285856 0.965098 0.846940 -0.430858
H19   H     H_    0.248501 0.925620 0.898552 0.390302
S6    S     S_3+6 0.735653 0.113817 0.347223 0.057089
O24   O     O_2   0.721869 0.164605 0.234853 -0.251815
O25   O     O_2   0.759121 0.188471 0.436645 -0.303051
O26   O     O_3   0.822127 0.036355 0.338453 -0.431994
H20   H     H_    0.871803 0.076001 0.308119 0.387960

loop_
_geom_bond_atom_site_label_1
_geom_bond_atom_site_label_2
_geom_bond_distance
_ccdc_geom_bond_type
C15   C21   1.419235 A    
O5    Cu1   1.923259 S    
S5    O21   1.503367 D    
C40   H13   1.105516 S    
C16   C22   1.418211 A    
C17   C19   1.418829 A    
O26   H20   0.990593 S    
O3    C2    1.287296 A    
C28   H8    1.078665 S    
C31   C33   1.415877 A    
C10   C20   1.398770 A    
S3    O15   1.502823 D    
C32   C38   1.420489 A    
O1    C1    1.286649 A    
Cu2   N2    2.006611 S    
C9    C11   1.385689 A    
C14   C16   1.405118 A    
O20   H18   0.990576 S    
C29   C35   1.423148 A    
C30   C36   1.421379 A    
C26   C32   1.418133 A    
C28   C30   1.418753 A    
C21   C39   1.516873 S    
O7    Cu1   1.922927 S    
C3    C5    1.428154 S    
C25   H5    1.078161 S    
C1    C12   1.443073 S    
C4    C6    1.428144 S    
C26   H6    1.078629 S    
C14   H4    1.082372 S    
C21   C23   1.414373 A    
O11   H15   0.990604 S    
O3    Cu1   1.954950 S    
C31   C37   1.422241 A    
C32   C34   1.415150 A    
C40   H14   1.110193 S    
C39   H9    1.110282 S    
Cu1   Cu2   2.670728 S    
C27   N1    1.360752 A    
O2    C2    1.287352 A    
C28   N2    1.360587 A    
S2    O14   1.680816 S    
S3    O16   1.503838 D    
C39   H10   1.106729 S    
S1    O9    1.502478 D    
S2    O13   1.503064 D    
O8    Cu2   1.922927 S    
O17   H17   0.990613 S    
C25   N1    1.360410 A    
C13   H3    1.082221 S    
C2    C11   1.443502 S    
C19   C24   1.414334 A    
S6    O26   1.681575 S    
S1    O10   1.503995 D    
C22   C24   1.414490 A    
O5    C3    1.290389 A    
O14   H16   0.990683 S    
C35   S3    1.787139 S    
C38   S6    1.789021 S    
C29   C33   1.416031 A    
O6    C4    1.290586 A    
S6    O25   1.504008 D    
C7    C8    1.405657 S    
C37   S5    1.788401 S    
C36   S4    1.788019 S    
C10   C12   1.385186 A    
S4    O18   1.503212 D    
S4    O19   1.504010 D    
C11   C13   1.389116 A    
C12   C14   1.389542 A    
O1    Cu1   1.953790 S    
C9    C19   1.399157 A    
C24   S2    1.789305 S    
Cu1   N1    2.006611 S    
C36   C37   1.424385 A    
C23   S1    1.787594 S    
C25   C31   1.418722 A    
S3    O17   1.681580 S    
C5    C7    1.201666 T    
C39   H11   1.110321 S    
O6    Cu2   1.923259 S    
C20   C23   1.412166 A    
C22   C40   1.515735 S    
S2    O12   1.502495 D    
C15   C17   1.420861 A    
S4    O20   1.681658 S    
C30   C34   1.415283 A    
C16   C18   1.419853 A    
C35   C38   1.424346 A    
S1    O11   1.678107 S    
C18   C20   1.417806 A    
C27   H7    1.077859 S    
C9    H1    1.080983 S    
O23   H19   0.990594 S    
O4    C1    1.287916 A    
S6    O24   1.503252 D    
C13   C15   1.404931 A    
O4    Cu2   1.954952 S    
O2    Cu2   1.953788 S    
O7    C4    1.290242 A    
O8    C3    1.290449 A    
C40   H12   1.110296 S    
C10   H2    1.081659 S    
C26   N2    1.359831 A    
C6    C8    1.201662 T    
C33   C34   1.417109 A    
S5    O23   1.681590 S    
C17   C18   1.401496 A    
S5    O22   1.503889 D    
C27   C29   1.419364 A    
