data_mof_unit_60836.cif
_audit_creation_date              2012-10-26T17:54:12-0400
_audit_creation_method            fapswitch 2.2
_symmetry_space_group_name_H-M    P1
_symmetry_Int_Tables_number       1
_space_group_crystal_system       triclinic
_cell_length_a                    23.481138
_cell_length_b                    23.481165
_cell_length_c                    55.952094
_cell_angle_alpha                 89.999864
_cell_angle_beta                  89.99993
_cell_angle_gamma                 90.000157
_cell_volume                      30849.9969761

loop_
_atom_site_label
_atom_site_type_symbol
_atom_type_description
_atom_site_fract_x
_atom_site_fract_y
_atom_site_fract_z
_atom_type_partial_charge
C1    C     C_R   1.000000 0.892928 0.000000 0.557895
C2    C     C_R   0.095321 0.459217 0.776174 -0.138811
C3    C     C_R   0.038050 0.535371 0.914089 0.198737
C4    C     C_R   0.464578 0.961996 0.085908 0.196400
C5    C     C_R   0.961979 0.535402 0.085908 0.196390
C6    C     C_R   0.535420 0.038003 0.085908 0.196402
C7    C     C_R   0.038021 0.464598 0.085908 0.196389
C8    C     C_R   0.964586 0.538010 0.414091 0.198720
C9    C     C_R   0.461969 0.964609 0.414090 0.198731
C10   C     C_R   0.035413 0.461990 0.414091 0.198720
C11   C     C_R   0.538032 0.035391 0.414090 0.198730
C12   C     C_R   0.964554 0.462019 0.585907 0.196410
C13   C     C_R   0.540624 0.095388 0.776174 -0.138816
C14   C     C_R   0.461999 0.035424 0.585908 0.196400
C15   C     C_R   0.035446 0.537980 0.585907 0.196409
C16   C     C_R   0.538000 0.964576 0.585908 0.196399
C17   C     C_R   0.500000 0.000000 0.926794 0.015539
C18   C     C_R   0.000000 0.499999 0.926793 0.015527
C19   C     C_R   0.500000 1.000000 0.073205 0.016362
C20   C     C_R   1.000000 0.500000 0.073205 0.016339
C21   C     C_R   1.000000 0.500000 0.426794 0.015553
C22   C     C_R   0.500000 1.000000 0.426794 0.015536
C23   C     C_R   0.000000 0.500000 0.573204 0.016383
C24   C     C_R   0.904681 0.540782 0.776174 -0.138811
C25   C     C_R   0.500000 1.000000 0.573205 0.016354
C26   C     C_R   0.500000 0.000000 0.876466 0.144963
C27   C     C_R   0.000000 0.499999 0.876465 0.144994
C28   C     C_R   0.499999 0.999999 0.123525 0.148900
C29   C     C_R   1.000000 0.500000 0.123525 0.148855
C30   C     C_R   0.999999 0.500000 0.376467 0.144936
C31   C     C_R   0.500000 1.000000 0.376466 0.144968
C32   C     C_R   0.000000 0.499999 0.623524 0.148934
C33   C     C_R   0.500000 1.000000 0.623525 0.148886
C34   C     C_1   0.831979 0.000000 0.000000 -0.021917
C35   C     C_R   0.401621 0.032726 0.223802 -0.138769
C36   C     C_1   1.000000 0.831979 0.000000 -0.021915
C37   C     C_1   0.168021 1.000000 0.000000 -0.021917
C38   C     C_1   0.000000 0.168021 0.000000 -0.021915
C39   C     C_1   0.331979 0.500000 0.500000 -0.021920
C40   C     C_1   0.500000 0.331979 0.500000 -0.021917
C41   C     C_1   0.668021 0.500000 0.500000 -0.021920
C42   C     C_1   0.500000 0.668021 0.500000 -0.021917
C43   C     C_1   0.780736 0.000000 0.000001 -0.040821
C44   C     C_1   1.000000 0.780736 0.000001 -0.040814
C45   C     C_1   0.219264 1.000000 0.000001 -0.040822
C46   C     C_R   0.032538 0.598441 0.223803 -0.138772
C47   C     C_1   0.000000 0.219264 0.000001 -0.040815
C48   C     C_1   0.280736 0.500000 0.500001 -0.040828
C49   C     C_1   0.500000 0.280736 0.500001 -0.040821
C50   C     C_1   0.719264 0.500000 0.500001 -0.040828
C51   C     C_1   0.500000 0.719264 0.500001 -0.040821
C52   C     C_1   0.720777 0.000001 0.000001 -0.047722
C53   C     C_1   1.000000 0.720777 0.000001 -0.047705
C54   C     C_1   0.279223 0.999999 0.000001 -0.047723
C55   C     C_1   0.000000 0.279223 0.000001 -0.047706
C56   C     C_1   0.220777 0.500001 0.500001 -0.047739
C57   C     C_R   0.598378 0.967273 0.223802 -0.138769
C58   C     C_1   0.500000 0.220777 0.500001 -0.047721
C59   C     C_1   0.779223 0.499999 0.500001 -0.047739
C60   C     C_1   0.500000 0.779223 0.500001 -0.047722
C61   C     C_1   0.669548 0.000000 0.000001 -0.032043
C62   C     C_1   0.000000 0.669548 0.000001 -0.032024
C63   C     C_1   0.330452 1.000000 0.000001 -0.032043
C64   C     C_1   1.000000 0.330452 0.000001 -0.032024
C65   C     C_1   0.169548 0.500000 0.500001 -0.032062
C66   C     C_1   0.500000 0.169548 0.500001 -0.032041
C67   C     C_1   0.830452 0.500000 0.500001 -0.032062
C68   C     C_R   0.967459 0.401560 0.223803 -0.138772
C69   C     C_1   0.500000 0.830452 0.500001 -0.032042
C70   C     C_R   0.500000 0.000000 0.953137 0.573082
C71   C     C_R   0.000000 0.500000 0.953137 0.573066
C72   C     C_R   0.500000 1.000000 0.046863 0.573830
C73   C     C_R   1.000000 0.500000 0.046863 0.573808
C74   C     C_R   1.000000 0.500000 0.453137 0.573102
C75   C     C_R   0.500000 0.000000 0.453137 0.573076
C76   C     C_R   0.000000 0.500000 0.546863 0.573846
C77   C     C_R   0.500000 0.000000 0.546863 0.573816
C78   C     C_R   0.608631 0.000000 0.000001 0.525126
C79   C     C_R   0.959521 0.404550 0.276175 -0.138817
C80   C     C_R   0.000000 0.608631 0.000001 0.525126
C81   C     C_R   0.391369 1.000000 0.000001 0.525124
C82   C     C_R   0.000000 0.391369 0.000001 0.525121
C83   C     C_R   0.108631 0.500000 0.500001 0.525126
C84   C     C_R   0.500000 0.108631 0.500001 0.525123
C85   C     C_R   0.891369 0.500000 0.500001 0.525127
C86   C     C_R   0.500000 0.891369 0.500000 0.525122
C87   C     C_R   0.480470 0.951142 0.762712 0.018227
C88   C     C_R   0.048824 0.480385 0.762711 0.018228
C89   C     C_R   0.519529 0.048858 0.762712 0.018227
C90   C     C_R   0.595378 0.959354 0.276174 -0.138815
C91   C     C_R   0.951177 0.519614 0.762711 0.018228
C92   C     C_R   0.450455 0.017714 0.237265 0.018352
C93   C     C_R   0.017621 0.549578 0.237266 0.018353
C94   C     C_R   0.549544 0.982284 0.237265 0.018352
C95   C     C_R   0.982376 0.450423 0.237266 0.018353
C96   C     C_R   0.980546 0.451112 0.262712 0.018228
C97   C     C_R   0.548853 0.980459 0.262712 0.018227
C98   C     C_R   0.019452 0.548889 0.262712 0.018227
C99   C     C_R   0.451146 0.019540 0.262712 0.018227
C100  C     C_R   0.950485 0.517796 0.737264 0.018353
C101  C     C_R   0.040477 0.595450 0.276175 -0.138817
C102  C     C_R   0.517703 0.049549 0.737265 0.018352
C103  C     C_R   0.049516 0.482203 0.737264 0.018353
C104  C     C_R   0.482296 0.950451 0.737265 0.018352
C105  C     C_R   0.500000 0.000000 0.775286 0.034559
C106  C     C_R   0.000000 0.499999 0.775285 0.034559
C107  C     C_R   0.499999 0.999999 0.224691 0.034537
C108  C     C_R   0.999999 0.500000 0.224691 0.034535
C109  C     C_R   0.999999 0.500000 0.275287 0.034559
C110  C     C_R   0.500000 0.999999 0.275286 0.034560
C111  C     C_R   0.000000 0.499999 0.724690 0.034536
C112  C     C_R   0.107072 1.000000 0.000000 0.557895
C113  C     C_R   0.404621 0.040645 0.276174 -0.138815
C114  C     C_R   0.500000 0.000000 0.724691 0.034536
C115  C     C_3   0.376240 0.050361 0.929569 -0.004871
C116  C     C_3   0.338293 0.090730 0.943644 -0.348234
C117  C     C_3   0.949576 0.376268 0.929569 -0.004856
C118  C     C_3   0.909192 0.338345 0.943648 -0.348230
C119  C     C_3   0.623759 0.949640 0.929569 -0.004870
C120  C     C_3   0.661706 0.909271 0.943644 -0.348233
C121  C     C_3   0.050431 0.623734 0.929564 -0.004862
C122  C     C_3   0.090811 0.661655 0.943646 -0.348233
C123  C     C_3   0.376145 0.949636 0.070514 -0.002257
C124  C     C_R   0.901678 0.532897 0.723801 -0.138765
C125  C     C_3   0.338165 0.909313 0.056431 -0.350589
C126  C     C_3   0.949581 0.623830 0.070514 -0.002244
C127  C     C_3   0.909245 0.661790 0.056429 -0.350584
C128  C     C_3   0.623856 0.050368 0.070517 -0.002260
C129  C     C_3   0.661834 0.090690 0.056432 -0.350590
C130  C     C_3   0.050417 0.376171 0.070514 -0.002243
C131  C     C_3   0.090753 0.338210 0.056428 -0.350583
C132  C     C_3   0.876214 0.550304 0.429569 -0.004885
C133  C     C_3   0.838247 0.590660 0.443642 -0.348236
C134  C     C_3   0.449631 0.876244 0.429569 -0.004869
C135  C     C_R   0.532702 0.098387 0.723802 -0.138770
C136  C     C_3   0.409260 0.838300 0.443645 -0.348233
C137  C     C_3   0.123785 0.449698 0.429570 -0.004884
C138  C     C_3   0.161753 0.409341 0.443642 -0.348236
C139  C     C_3   0.550369 0.123756 0.429568 -0.004869
C140  C     C_3   0.590741 0.161700 0.443644 -0.348233
C141  C     C_3   0.876114 0.449707 0.570513 -0.002273
C142  C     C_3   0.838109 0.409399 0.556435 -0.350592
C143  C     C_3   0.449649 0.123856 0.570512 -0.002256
C144  C     C_3   0.409325 0.161842 0.556432 -0.350586
C145  C     C_3   0.123886 0.550293 0.570514 -0.002274
C146  C     C_R   0.098323 0.467102 0.723801 -0.138766
C147  C     C_3   0.161891 0.590600 0.556435 -0.350593
C148  C     C_3   0.550349 0.876145 0.570511 -0.002255
C149  C     C_3   0.590673 0.838158 0.556432 -0.350585
C150  C     C_R   0.467297 0.901613 0.723802 -0.138770
C151  C     C_R   0.459074 0.905391 0.801012 -0.111424
C152  C     C_R   0.094544 0.458923 0.801011 -0.111425
C153  C     C_R   0.540924 0.094609 0.801012 -0.111424
C154  C     C_R   0.905457 0.541076 0.801012 -0.111425
C155  C     C_R   0.402012 0.032010 0.198965 -0.111367
C156  C     C_R   1.000000 0.107072 0.000000 0.557895
C157  C     C_R   0.031823 0.598049 0.198965 -0.111365
C158  C     C_R   0.597987 0.967989 0.198964 -0.111367
C159  C     C_R   0.968175 0.401952 0.198966 -0.111364
C160  C     C_R   0.959216 0.405330 0.301012 -0.111423
C161  C     C_R   0.594600 0.959054 0.301012 -0.111424
C162  C     C_R   0.040782 0.594671 0.301012 -0.111423
C163  C     C_R   0.405400 0.040945 0.301012 -0.111423
C164  C     C_R   0.902069 0.532182 0.698963 -0.111368
C165  C     C_R   0.531987 0.097996 0.698964 -0.111366
C166  C     C_R   0.097932 0.467817 0.698963 -0.111368
C167  C     C_R   0.892928 0.000000 0.000000 0.557895
C168  C     C_R   0.468013 0.902004 0.698965 -0.111366
C169  C     C_R   0.479587 0.952543 0.813534 0.023495
C170  C     C_R   0.047425 0.479512 0.813533 0.023491
C171  C     C_R   0.520412 0.047457 0.813534 0.023495
C172  C     C_R   0.952576 0.520487 0.813533 0.023491
C173  C     C_R   0.450915 0.016120 0.186443 0.025072
C174  C     C_R   0.016028 0.549115 0.186444 0.025081
C175  C     C_R   0.549083 0.983878 0.186443 0.025072
C176  C     C_R   0.983971 0.450886 0.186445 0.025081
C177  C     C_R   0.979656 0.452514 0.313534 0.023498
C178  C     C_R   0.500000 0.392928 0.500000 0.557896
C179  C     C_R   0.547452 0.979577 0.313534 0.023494
C180  C     C_R   0.020342 0.547487 0.313534 0.023498
C181  C     C_R   0.452548 0.020422 0.313534 0.023495
C182  C     C_R   0.950944 0.516205 0.686442 0.025064
C183  C     C_R   0.516109 0.049088 0.686443 0.025074
C184  C     C_R   0.049056 0.483793 0.686442 0.025065
C185  C     C_R   0.483890 0.950912 0.686444 0.025074
C186  C     C_R   0.499999 0.000000 0.800760 -0.027338
C187  C     C_R   0.000000 0.499999 0.800759 -0.027337
C188  C     C_R   0.499999 0.999999 0.199217 -0.027263
C189  C     C_R   0.607072 0.500000 0.500000 0.557896
C190  C     C_R   0.999999 0.500000 0.199218 -0.027264
C191  C     C_R   0.999999 0.500000 0.300761 -0.027338
C192  C     C_R   0.500000 1.000000 0.300760 -0.027338
C193  C     C_R   0.000000 0.499999 0.699216 -0.027263
C194  C     C_R   0.500000 0.000000 0.699217 -0.027263
C195  C     C_R   0.479742 0.953479 0.838674 0.401678
C196  C     C_R   0.046491 0.479671 0.838673 0.401683
C197  C     C_R   0.520257 0.046522 0.838673 0.401678
C198  C     C_R   0.953510 0.520327 0.838673 0.401684
C199  C     C_R   0.451800 0.015861 0.161304 0.403718
C200  C     C_R   0.500000 0.607072 0.500000 0.557896
C201  C     C_R   0.015773 0.548229 0.161305 0.403715
C202  C     C_R   0.548199 0.984137 0.161304 0.403717
C203  C     C_R   0.984226 0.451772 0.161305 0.403715
C204  C     C_R   0.979807 0.453450 0.338674 0.401672
C205  C     C_R   0.546517 0.979733 0.338673 0.401678
C206  C     C_R   0.020191 0.546550 0.338674 0.401672
C207  C     C_R   0.453483 0.020267 0.338674 0.401679
C208  C     C_R   0.951828 0.515943 0.661303 0.403719
C209  C     C_R   0.515852 0.048203 0.661304 0.403718
C210  C     C_R   0.048172 0.484055 0.661303 0.403720
C211  C     C_R   0.392928 0.500000 0.500000 0.557896
C212  C     C_R   0.484148 0.951797 0.661304 0.403718
C213  C     C_R   0.465534 0.038337 0.889060 -0.056197
C214  C     C_R   0.961642 0.465557 0.889059 -0.056197
C215  C     C_R   0.534465 0.961663 0.889060 -0.056196
C216  C     C_R   0.038359 0.534441 0.889059 -0.056204
C217  C     C_R   0.465531 0.961665 0.110937 -0.057086
C218  C     C_R   0.961646 0.534446 0.110937 -0.057089
C219  C     C_R   0.534467 0.038334 0.110937 -0.057091
C220  C     C_R   0.038354 0.465554 0.110937 -0.057087
C221  C     C_R   0.965512 0.538318 0.389061 -0.056195
C222  C     C_R   0.459375 0.904613 0.776175 -0.138815
C223  C     C_R   0.461660 0.965537 0.389060 -0.056196
C224  C     C_R   0.034487 0.461682 0.389061 -0.056194
C225  C     C_R   0.538340 0.034463 0.389060 -0.056197
C226  C     C_R   0.965506 0.461688 0.610937 -0.057083
C227  C     C_R   0.461667 0.034470 0.610937 -0.057083
C228  C     C_R   0.034495 0.538310 0.610937 -0.057085
C229  C     C_R   0.538332 0.965530 0.610937 -0.057080
C230  C     C_R   0.464606 0.038029 0.914090 0.198729
C231  C     C_R   0.961951 0.464627 0.914089 0.198735
C232  C     C_R   0.535394 0.961972 0.914090 0.198728
Cu1   Cu    Cu3+1 0.000000 0.000000 0.023160 0.954198
Cu2   Cu    Cu3+1 0.442500 0.000000 0.500000 1.002781
Cu3   Cu    Cu3+1 1.000000 0.442500 0.500000 1.002815
Cu4   Cu    Cu3+1 0.557500 0.000000 0.500000 1.002780
Cu5   Cu    Cu3+1 0.000000 0.000000 0.976840 0.950824
Cu6   Cu    Cu3+1 0.500000 0.500000 0.523160 0.954188
Cu7   Cu    Cu3+1 0.500000 0.500000 0.476840 0.950814
Cu8   Cu    Cu3+1 0.500000 0.057500 0.000000 1.002778
Cu9   Cu    Cu3+1 0.942500 0.500000 0.000000 1.002747
Cu10  Cu    Cu3+1 0.500000 0.942500 0.000000 1.002776
Cu11  Cu    Cu3+1 0.057500 0.500000 0.000000 1.002749
Cu12  Cu    Cu3+1 0.000000 0.557500 0.500000 1.002815
H1    H     H_    0.441797 0.866893 0.768129 0.112465
H2    H     H_    0.633095 0.941768 0.268129 0.112464
H3    H     H_    0.144753 0.458802 0.412117 0.131569
H4    H     H_    0.167973 0.369157 0.433504 0.166048
H5    H     H_    0.203888 0.429488 0.446777 0.102304
H6    H     H_    0.141922 0.399410 0.461170 0.181377
H7    H     H_    0.510039 0.119762 0.439951 0.128809
H8    H     H_    0.541285 0.144731 0.412115 0.131582
H9    H     H_    0.630934 0.167899 0.433511 0.166044
H10   H     H_    0.570616 0.203846 0.446779 0.102296
H11   H     H_    0.600651 0.141861 0.461174 0.181386
H12   H     H_    0.880024 0.490103 0.560169 0.129355
H13   H     H_    0.057996 0.633198 0.268129 0.112466
H14   H     H_    0.855241 0.458674 0.588000 0.145115
H15   H     H_    0.831995 0.369141 0.566532 0.165702
H16   H     H_    0.795932 0.429518 0.553368 0.103782
H17   H     H_    0.857846 0.399609 0.538874 0.181193
H18   H     H_    0.490046 0.119962 0.560168 0.129341
H19   H     H_    0.458608 0.144737 0.587998 0.145140
H20   H     H_    0.369065 0.167942 0.566529 0.165699
H21   H     H_    0.429427 0.204026 0.553363 0.103775
H22   H     H_    0.399541 0.142096 0.538872 0.181204
H23   H     H_    0.119977 0.509896 0.560170 0.129355
H24   H     H_    0.366905 0.058231 0.268129 0.112464
H25   H     H_    0.144759 0.541326 0.588000 0.145115
H26   H     H_    0.168004 0.630859 0.566532 0.165702
H27   H     H_    0.204069 0.570482 0.553368 0.103782
H28   H     H_    0.142154 0.600390 0.538874 0.181193
H29   H     H_    0.509954 0.880042 0.560165 0.129341
H30   H     H_    0.541385 0.855263 0.587996 0.145139
H31   H     H_    0.630931 0.832055 0.566530 0.165697
H32   H     H_    0.570570 0.795976 0.553361 0.103776
H33   H     H_    0.600462 0.857905 0.538872 0.181204
H34   H     H_    0.861796 0.544780 0.731846 0.112018
H35   H     H_    0.544503 0.138294 0.731847 0.112020
H36   H     H_    0.138205 0.455219 0.731845 0.112018
H37   H     H_    0.455497 0.861707 0.731848 0.112020
H38   H     H_    0.442514 0.868571 0.810389 0.167676
H39   H     H_    0.131338 0.442305 0.810388 0.167673
H40   H     H_    0.557485 0.131429 0.810388 0.167676
H41   H     H_    0.133014 0.441580 0.768130 0.112461
H42   H     H_    0.868663 0.557693 0.810389 0.167673
H43   H     H_    0.363462 0.043999 0.189587 0.166180
H44   H     H_    0.043738 0.636622 0.189588 0.166180
H45   H     H_    0.636537 0.955999 0.189586 0.166180
H46   H     H_    0.956260 0.363378 0.189588 0.166180
H47   H     H_    0.942710 0.368485 0.310389 0.167679
H48   H     H_    0.631416 0.942486 0.310389 0.167676
H49   H     H_    0.057287 0.631516 0.310389 0.167679
H50   H     H_    0.368583 0.057513 0.310389 0.167676
H51   H     H_    0.863541 0.544241 0.689585 0.166181
H52   H     H_    0.558202 0.133108 0.768129 0.112465
H53   H     H_    0.543967 0.136549 0.689587 0.166181
H54   H     H_    0.136460 0.455758 0.689585 0.166181
H55   H     H_    0.456032 0.863451 0.689587 0.166181
H56   H     H_    0.438710 0.067951 0.879388 0.155959
H57   H     H_    0.932011 0.438752 0.879386 0.155924
H58   H     H_    0.561289 0.932049 0.879387 0.155960
H59   H     H_    0.067990 0.561245 0.879386 0.155918
H60   H     H_    0.439004 0.931792 0.120613 0.154975
H61   H     H_    0.931758 0.560957 0.120613 0.155033
H62   H     H_    0.560995 0.068207 0.120613 0.154970
H63   H     H_    0.866987 0.558420 0.768130 0.112461
H64   H     H_    0.068242 0.439043 0.120613 0.155035
H65   H     H_    0.938672 0.567917 0.379389 0.155994
H66   H     H_    0.432044 0.938716 0.379388 0.155954
H67   H     H_    0.061327 0.432083 0.379389 0.155995
H68   H     H_    0.567956 0.061284 0.379387 0.155954
H69   H     H_    0.938957 0.431834 0.620613 0.154928
H70   H     H_    0.431796 0.061000 0.620613 0.154991
H71   H     H_    0.061043 0.568164 0.620613 0.154928
H72   H     H_    0.568204 0.939000 0.620613 0.154993
H73   H     H_    0.380236 0.010031 0.939951 0.128809
H74   H     H_    0.361717 0.044536 0.231847 0.112019
H75   H     H_    0.355265 0.041275 0.912115 0.131580
H76   H     H_    0.332092 0.130923 0.933510 0.166046
H77   H     H_    0.296148 0.070603 0.946778 0.102299
H78   H     H_    0.358131 0.100642 0.961173 0.181384
H79   H     H_    0.989911 0.380247 0.939949 0.128800
H80   H     H_    0.958647 0.355286 0.912115 0.131592
H81   H     H_    0.868993 0.332161 0.933517 0.166040
H82   H     H_    0.929299 0.296191 0.946783 0.102291
H83   H     H_    0.899295 0.358191 0.961177 0.181392
H84   H     H_    0.619762 0.989969 0.939952 0.128809
H85   H     H_    0.044270 0.638368 0.231849 0.112019
H86   H     H_    0.644734 0.958729 0.912116 0.131580
H87   H     H_    0.667909 0.869079 0.933510 0.166045
H88   H     H_    0.703851 0.929398 0.946779 0.102298
H89   H     H_    0.641868 0.899356 0.961173 0.181383
H90   H     H_    0.010088 0.619764 0.939940 0.128798
H91   H     H_    0.041374 0.644714 0.912108 0.131595
H92   H     H_    0.131019 0.667828 0.933520 0.166047
H93   H     H_    0.070709 0.703814 0.946775 0.102291
H94   H     H_    0.100690 0.641812 0.961178 0.181388
H95   H     H_    0.380034 0.990038 0.060172 0.129339
H96   H     H_    0.638282 0.955462 0.231847 0.112019
H97   H     H_    0.355264 0.958585 0.088000 0.145136
H98   H     H_    0.332073 0.869047 0.066525 0.165699
H99   H     H_    0.295978 0.929408 0.053364 0.103775
H100  H     H_    0.357911 0.899540 0.038870 0.181202
H101  H     H_    0.989988 0.619959 0.060176 0.129326
H102  H     H_    0.958515 0.644717 0.088001 0.145162
H103  H     H_    0.868973 0.667864 0.066520 0.165699
H104  H     H_    0.929323 0.703987 0.053363 0.103768
H105  H     H_    0.899489 0.642038 0.038867 0.181209
H106  H     H_    0.619974 0.009961 0.060179 0.129340
H107  H     H_    0.955727 0.361633 0.231849 0.112019
H108  H     H_    0.644736 0.041430 0.088005 0.145138
H109  H     H_    0.667918 0.130962 0.066522 0.165703
H110  H     H_    0.704025 0.070598 0.053369 0.103774
H111  H     H_    0.642090 0.100450 0.038869 0.181199
H112  H     H_    0.010011 0.380044 0.060174 0.129326
H113  H     H_    0.041481 0.355283 0.088000 0.145162
H114  H     H_    0.131025 0.332134 0.066521 0.165699
H115  H     H_    0.070675 0.296014 0.053362 0.103768
H116  H     H_    0.100513 0.357963 0.038867 0.181210
H117  H     H_    0.880228 0.509979 0.439954 0.128818
H118  H     H_    0.942001 0.366803 0.268130 0.112466
H119  H     H_    0.855247 0.541202 0.412116 0.131569
H120  H     H_    0.832028 0.630846 0.433505 0.166049
H121  H     H_    0.796110 0.570515 0.446775 0.102304
H122  H     H_    0.858077 0.600588 0.461170 0.181377
H123  H     H_    0.489961 0.880239 0.439952 0.128809
H124  H     H_    0.458717 0.855268 0.412116 0.131581
H125  H     H_    0.369067 0.832100 0.433511 0.166044
H126  H     H_    0.429385 0.796154 0.446780 0.102297
H127  H     H_    0.399348 0.858139 0.461174 0.181386
H128  H     H_    0.119769 0.490021 0.439956 0.128818
N1    N     N_R   0.499999 0.000000 0.850732 -0.392091
N2    N     N_R   0.000000 0.499999 0.850731 -0.392096
N3    N     N_R   0.499999 0.999999 0.149252 -0.389138
N4    N     N_R   1.000000 0.500000 0.149253 -0.389124
N5    N     N_R   0.999999 0.500000 0.350732 -0.392087
N6    N     N_R   0.500000 1.000000 0.350731 -0.392092
N7    N     N_R   0.000000 0.499999 0.649251 -0.389151
N8    N     N_R   0.500000 1.000000 0.649252 -0.389136
O1    O     O_R   0.000610 0.920310 0.019440 -0.494057
O2    O     O_R   0.579690 0.500610 0.519440 -0.494059
O3    O     O_R   0.499390 0.579690 0.519440 -0.494059
O4    O     O_R   0.420310 0.499390 0.519440 -0.494059
O5    O     O_R   0.500610 0.579690 0.480560 -0.494760
O6    O     O_R   0.579690 0.499390 0.480560 -0.494761
O7    O     O_R   0.499390 0.420310 0.480560 -0.494760
O8    O     O_R   0.420310 0.500610 0.480560 -0.494761
O9    O     O_R   0.500970 0.048820 0.964370 -0.477444
O10   O     O_R   0.951180 0.500970 0.964370 -0.477426
O11   O     O_R   0.499030 0.951180 0.964370 -0.477445
O12   O     O_R   0.079690 0.000610 0.019440 -0.494058
O13   O     O_R   0.048820 0.499030 0.964370 -0.477424
O14   O     O_R   0.500970 0.951180 0.035630 -0.478187
O15   O     O_R   0.951180 0.499030 0.035630 -0.478173
O16   O     O_R   0.499030 0.048820 0.035630 -0.478185
O17   O     O_R   0.048820 0.500970 0.035630 -0.478173
O18   O     O_R   0.000970 0.548820 0.464370 -0.477460
O19   O     O_R   0.451180 0.000970 0.464370 -0.477440
O20   O     O_R   0.999030 0.451180 0.464370 -0.477460
O21   O     O_R   0.548820 0.999030 0.464370 -0.477440
O22   O     O_R   0.000970 0.451180 0.535630 -0.478205
O23   O     O_R   0.999390 0.079690 0.019440 -0.494058
O24   O     O_R   0.451180 0.999030 0.535630 -0.478191
O25   O     O_R   0.999030 0.548820 0.535630 -0.478205
O26   O     O_R   0.548820 0.000970 0.535630 -0.478191
O27   O     O_R   0.582140 0.048820 0.999240 -0.512864
O28   O     O_R   0.951180 0.582140 0.999240 -0.512868
O29   O     O_R   0.417860 0.951180 0.999240 -0.512863
O30   O     O_R   0.048820 0.417860 0.999240 -0.512870
O31   O     O_R   0.582140 0.951180 0.000760 -0.513039
O32   O     O_R   0.951180 0.417860 0.000760 -0.513056
O33   O     O_R   0.417860 0.048820 0.000760 -0.513041
O34   O     O_R   0.920310 0.999390 0.019440 -0.494058
O35   O     O_R   0.048820 0.582140 0.000760 -0.513056
O36   O     O_R   0.082140 0.548820 0.499240 -0.512849
O37   O     O_R   0.451180 0.082140 0.499240 -0.512856
O38   O     O_R   0.917860 0.451180 0.499240 -0.512849
O39   O     O_R   0.548820 0.917860 0.499240 -0.512856
O40   O     O_R   0.082140 0.451180 0.500760 -0.513030
O41   O     O_R   0.451180 0.917860 0.500760 -0.513045
O42   O     O_R   0.917860 0.548820 0.500760 -0.513029
O43   O     O_R   0.548820 0.082140 0.500760 -0.513045
O44   O     O_2   0.459365 0.908417 0.850965 -0.495156
O45   O     O_R   0.000610 0.079690 0.980560 -0.494759
O46   O     O_2   0.091523 0.459230 0.850965 -0.495146
O47   O     O_2   0.540633 0.091583 0.850965 -0.495155
O48   O     O_2   0.908478 0.540768 0.850965 -0.495147
O49   O     O_2   0.405008 0.031838 0.149005 -0.506349
O50   O     O_2   0.031668 0.595050 0.149007 -0.506395
O51   O     O_2   0.594991 0.968160 0.149005 -0.506350
O52   O     O_2   0.968332 0.404950 0.149007 -0.506394
O53   O     O_2   0.959491 0.408361 0.350965 -0.495162
O54   O     O_2   0.591574 0.959347 0.350965 -0.495151
O55   O     O_2   0.040507 0.591640 0.350965 -0.495162
O56   O     O_R   0.079690 0.999390 0.980560 -0.494760
O57   O     O_2   0.408426 0.040653 0.350965 -0.495152
O58   O     O_2   0.905063 0.531997 0.649004 -0.506311
O59   O     O_2   0.531819 0.094998 0.649005 -0.506357
O60   O     O_2   0.094938 0.468000 0.649003 -0.506311
O61   O     O_2   0.468181 0.905001 0.649005 -0.506356
O62   O     O_3   0.429933 0.076107 0.926052 -0.533366
O63   O     O_3   0.923855 0.429973 0.926051 -0.533363
O64   O     O_3   0.570067 0.923893 0.926052 -0.533366
O65   O     O_3   0.076146 0.570025 0.926051 -0.533362
O66   O     O_3   0.429892 0.923937 0.073943 -0.537909
O67   O     O_R   0.999390 0.920310 0.980560 -0.494760
O68   O     O_3   0.923905 0.570071 0.073944 -0.537904
O69   O     O_3   0.570106 0.076063 0.073943 -0.537908
O70   O     O_3   0.076095 0.429928 0.073944 -0.537903
O71   O     O_3   0.929896 0.576073 0.426053 -0.533367
O72   O     O_3   0.423888 0.929938 0.426052 -0.533365
O73   O     O_3   0.070103 0.423928 0.426053 -0.533367
O74   O     O_3   0.576112 0.070062 0.426052 -0.533365
O75   O     O_3   0.929848 0.423979 0.573943 -0.537915
O76   O     O_3   0.423943 0.070113 0.573943 -0.537908
O77   O     O_3   0.070152 0.576020 0.573943 -0.537914
O78   O     O_R   0.920310 0.000610 0.980560 -0.494760
O79   O     O_3   0.576057 0.929887 0.573944 -0.537908
O80   O     O_R   0.500610 0.420310 0.519440 -0.494058

loop_
_geom_bond_atom_site_label_1
_geom_bond_atom_site_label_2
_ccdc_geom_bond_type
Cu10  O11   S    
C173  C188  A    
C126  C127  S    
C177  C191  A    
C212  N8    A    
Cu10  O29   S    
C144  H21   S    
C199  N3    A    
C138  H5    S    
C123  O66   S    
C77   O24   A    
C216  H59   S    
C8    O71   S    
C50   C59   S    
C1    O67   A    
Cu12  O25   S    
C181  C207  A    
C52   C61   T    
C70   O11   A    
C33   C229  A    
C54   C63   T    
C143  C144  S    
C18   C71   S    
C27   N2    S    
C104  C150  A    
C215  H58   S    
Cu3   O22   S    
Cu1   Cu5   S    
C175  C188  A    
C44   C53   S    
C199  O49   S    
C130  O70   S    
C208  N7    A    
C101  H13   S    
C170  C187  A    
C141  H14   S    
Cu1   O1    S    
C91   C100  A    
C35   H74   S    
C130  H113  S    
C152  H39   S    
C10   C224  A    
C211  O4    A    
C129  H111  S    
C84   O43   A    
C176  C203  A    
Cu2   Cu4   S    
Cu1   O12   S    
Cu4   O26   S    
C214  C231  A    
C24   C154  A    
C123  H97   S    
C167  O34   A    
C2    C152  A    
C67   C85   S    
C68   C95   A    
C133  H122  S    
C209  O59   S    
C165  C183  A    
C72   O16   A    
C161  H48   S    
C166  C184  A    
C79   C160  A    
C124  H34   S    
Cu9   O32   S    
C94   C97   A    
C99   C110  A    
C46   H85   S    
C26   C215  A    
C100  C124  A    
C122  H94   S    
C147  H28   S    
C102  C114  A    
C152  C170  A    
C12   C23   A    
C136  H126  S    
C17   C230  A    
C150  C168  A    
C71   O10   A    
C177  C204  A    
C73   O17   A    
C75   O21   A    
C143  O76   S    
C133  H121  S    
C85   O42   A    
C1    O1    A    
C226  H69   S    
C27   C216  A    
C148  H30   S    
C36   C44   T    
C127  H105  S    
C200  O3    A    
C37   C45   T    
C34   C167  S    
C156  O45   A    
C163  H50   S    
C125  H98   S    
C16   C25   A    
C120  H87   S    
C13   H52   S    
C114  C194  A    
C83   O36   A    
C33   C227  A    
C195  O44   S    
C106  C187  A    
C70   O9    A    
C30   C224  A    
C139  C140  S    
C16   O79   S    
C96   C109  A    
C151  C222  A    
C41   C189  S    
C128  H108  S    
C130  C131  S    
C79   C96   A    
C232  O64   S    
C20   C73   S    
Cu12  O36   S    
C182  C208  A    
C29   N4    S    
C122  H93   S    
C81   O33   A    
C95   C108  A    
C160  H47   S    
C200  O5    A    
C100  C111  A    
C117  O63   S    
C201  O50   S    
C140  H9    S    
C217  H60   S    
C137  H128  S    
C14   O76   S    
C164  H51   S    
C184  C193  A    
C123  H95   S    
C179  C205  A    
C163  C181  A    
C30   N5    S    
C23   C76   S    
C128  C129  S    
C57   H96   S    
C169  C195  A    
C5    C20   A    
C109  C191  A    
C6    C19   A    
C198  N2    A    
C26   C213  A    
C62   C80   S    
C35   C155  A    
C127  H104  S    
C147  H26   S    
C165  H53   S    
C222  H1    S    
C43   C52   S    
C128  H106  S    
C119  H84   S    
C16   C229  A    
C183  C194  A    
C74   O20   A    
C102  C135  A    
C220  H64   S    
C59   C67   T    
C221  H65   S    
C31   N6    S    
Cu6   O4    S    
C28   N3    S    
C27   C214  A    
C26   N1    S    
C172  C198  A    
C142  H17   S    
C149  H33   S    
C161  C179  A    
C229  H72   S    
C134  H123  S    
C61   C78   S    
C162  C180  A    
Cu1   O34   S    
C157  C174  A    
C214  H57   S    
Cu8   O27   S    
C108  C190  A    
C76   O25   A    
C146  H36   S    
C116  H77   S    
C17   C232  A    
C157  H44   S    
Cu11  O30   S    
Cu3   Cu12  S    
C125  H100  S    
C94   C107  A    
C185  C212  A    
C154  C172  A    
C215  C232  A    
C149  H32   S    
C211  O8    A    
Cu4   O21   S    
C143  H18   S    
C206  N5    A    
C196  N2    A    
C107  C188  A    
C6    O69   S    
C148  O79   S    
C150  H37   S    
C105  C186  A    
C77   O26   A    
C189  O2    A    
C178  O80   A    
C113  C163  A    
C12   C226  A    
C205  O54   S    
C87   C105  A    
C126  H101  S    
C202  O51   S    
C140  H11   S    
Cu5   O67   S    
C2    H41   S    
C7    C220  A    
C29   C218  A    
C32   C226  A    
C57   C94   A    
C3    O65   S    
C207  N6    A    
C31   C223  A    
C78   O31   A    
C118  H83   S    
C224  H67   S    
C219  H62   S    
Cu7   O8    S    
C119  O64   S    
C90   C97   A    
Cu3   O20   S    
C141  H12   S    
C144  H22   S    
C34   C43   T    
C175  C202  A    
C138  H6    S    
C180  C191  A    
Cu8   O16   S    
C151  C169  A    
C159  C176  A    
C82   O32   A    
C24   H63   S    
C74   O18   A    
C159  H46   S    
C76   O22   A    
C117  C118  S    
C170  C196  A    
C85   O38   A    
C230  O62   S    
C86   O41   A    
C60   C69   T    
Cu6   O2    S    
C154  H42   S    
C142  H15   S    
C68   H107  S    
C121  H91   S    
C158  C175  A    
Cu6   O80   S    
Cu2   O37   S    
C89   C105  A    
C98   C109  A    
C51   C60   S    
C203  N4    A    
C1    C36   S    
C129  H110  S    
C57   C158  A    
Cu9   O15   S    
C28   C217  A    
C208  O58   S    
C173  C199  A    
C139  H8    S    
C185  C194  A    
C115  H75   S    
C116  H76   S    
C117  H80   S    
C126  O68   S    
C212  O61   S    
C119  H86   S    
C75   O19   A    
C135  H35   S    
C101  C162  A    
C169  C186  A    
C18   C231  A    
C93   C108  A    
C137  H3    S    
C123  C125  S    
C172  C187  A    
C206  O55   S    
C231  O63   S    
C103  C111  A    
C204  O53   S    
C80   O28   A    
C147  H27   S    
C118  H81   S    
Cu4   O43   S    
C29   C220  A    
C32   C228  A    
C5    O68   S    
C133  H120  S    
C131  H116  S    
C223  H66   S    
C162  H49   S    
Cu7   O6    S    
C35   C92   A    
C10   C21   A    
C153  H40   S    
C145  O77   S    
Cu2   O24   S    
C145  C147  S    
C12   O75   S    
C166  H54   S    
C30   C221  A    
C120  H88   S    
C82   O30   A    
C151  H38   S    
C156  O23   A    
C86   O39   A    
C141  O75   S    
C203  O52   S    
C189  O6    A    
C227  H70   S    
C84   O37   A    
C33   N8    S    
C176  C190  A    
C5    C218  A    
C11   C225  A    
C135  C165  A    
C130  H112  S    
C71   O13   A    
C201  N4    A    
C13   C153  A    
C121  C122  S    
C111  C193  A    
C28   C219  A    
Cu10  O14   S    
C140  H10   S    
C178  O7    A    
C209  N8    A    
C115  H73   S    
C122  H92   S    
C41   C50   T    
Cu3   O40   S    
C225  H68   S    
Cu6   Cu7   S    
C171  C186  A    
C7    O70   S    
C137  O73   S    
C99   C113  A    
C119  C120  S    
Cu11  O17   S    
C184  C210  A    
C98   C101  A    
C15   C228  A    
C134  O72   S    
C3    C216  A    
C113  H24   S    
C127  H103  S    
Cu2   O19   S    
C195  N1    A    
C40   C49   T    
C136  H125  S    
C120  H89   S    
C90   H2    S    
C131  H114  S    
C42   C200  S    
Cu5   O78   S    
Cu4   O39   S    
C78   O27   A    
C168  H55   S    
C14   C25   A    
C160  C177  A    
C164  C182  A    
C87   C104  A    
C210  N7    A    
C128  O69   S    
C7    C20   A    
C115  O62   S    
C148  H29   S    
C80   O35   A    
C158  H45   S    
C134  H124  S    
C213  C230  A    
C115  C116  S    
C39   C48   T    
C124  C164  A    
C10   O73   S    
C89   C102  A    
C132  H117  S    
C95   C96   A    
C38   C156  S    
C116  H78   S    
C125  H99   S    
Cu9   O28   S    
Cu12  O42   S    
C63   C81   S    
C25   C77   S    
C149  H31   S    
C197  N1    A    
Cu5   O45   S    
C9    C22   A    
C65   C83   S    
Cu8   O33   S    
C56   C65   T    
Cu2   O41   S    
C3    C18   A    
C145  H25   S    
C37   C112  S    
C4    C19   A    
C58   C66   T    
C179  C192  A    
C207  O57   S    
C132  C133  S    
C2    C88   A    
C68   C159  A    
Cu3   O38   S    
C42   C51   T    
C155  C173  A    
C15   C23   A    
C146  C166  A    
C11   O74   S    
C17   C70   S    
C202  N3    A    
C91   C106  A    
C19   C72   S    
C22   C75   S    
Cu12  O18   S    
C204  N5    A    
Cu7   O7    S    
Cu9   O10   S    
C9    O72   S    
C90   C161  A    
C213  H56   S    
C87   C222  A    
C126  H102  S    
Cu10  O31   S    
C228  H71   S    
C148  C149  S    
C145  H23   S    
Cu11  O35   S    
C182  C193  A    
C134  C136  S    
C205  N6    A    
C136  H127  S    
C46   C157  A    
C21   C74   S    
C49   C58   S    
Cu9   Cu11  S    
C118  H82   S    
C83   O40   A    
C210  O60   S    
C88   C106  A    
C53   C62   T    
C9    C223  A    
C92   C107  A    
Cu6   O3    S    
C55   C64   T    
C153  C171  A    
Cu8   Cu10  S    
C8    C21   A    
C139  O74   S    
C39   C211  S    
C142  H16   S    
C180  C206  A    
Cu5   O56   S    
C64   C82   S    
C38   C47   T    
C104  C114  A    
C121  H90   S    
C40   C178  S    
C174  C190  A    
C45   C54   S    
C31   C225  A    
C121  O65   S    
C132  H119  S    
C79   H118  S    
C155  H43   S    
C24   C91   A    
C88   C103  A    
C81   O29   A    
C47   C55   S    
C167  O78   A    
C129  H109  S    
C48   C56   S    
C168  C185  A    
C13   C89   A    
C139  H7    S    
C132  O71   S    
C117  H79   S    
C183  C209  A    
C137  C138  S    
C11   C22   A    
Cu8   O9    S    
C112  O56   A    
C72   O14   A    
C218  H61   S    
C14   C227  A    
C171  C197  A    
C141  C142  S    
C97   C110  A    
C32   N7    S    
C46   C93   A    
C112  O12   A    
C110  C192  A    
C15   O77   S    
C181  C192  A    
C138  H4    S    
C8    C221  A    
C66   C84   S    
C6    C219  A    
Cu1   O23   S    
C4    O66   S    
C143  H19   S    
C92   C99   A    
C4    C217  A    
C197  O47   S    
C131  H115  S    
C198  O48   S    
C174  C201  A    
C73   O15   A    
C196  O46   S    
C93   C98   A    
Cu7   O5    S    
C69   C86   S    
Cu11  O13   S    
C103  C146  A    
C144  H20   S    
