data_mof_unit_50034.cif
_audit_creation_date              2012-10-26T19:05:08-0400
_audit_creation_method            fapswitch 2.2
_symmetry_space_group_name_H-M    P1
_symmetry_Int_Tables_number       1
_space_group_crystal_system       triclinic
_cell_length_a                    15.880465
_cell_length_b                    10.865206
_cell_length_c                    9.606882
_cell_angle_alpha                 89.977076
_cell_angle_beta                  89.426884
_cell_angle_gamma                 93.194509
_cell_volume                      1654.9555676

loop_
_atom_site_label
_atom_site_type_symbol
_atom_type_description
_atom_site_fract_x
_atom_site_fract_y
_atom_site_fract_z
_atom_type_partial_charge
C1    C     C_R   0.506352 0.263166 0.500586 0.543297
C2    C     C_R   0.540365 0.061588 0.883025 -0.137152
C3    C     C_R   0.498307 0.946300 0.889477 -0.128203
C4    C     C_R   0.340315 0.499682 0.500659 0.549484
C5    C     C_R   0.475469 0.885080 0.766910 -0.098630
C6    C     C_R   0.495432 0.938364 0.634785 0.023309
C7    C     C_R   0.520864 0.064584 0.630945 0.022388
C8    C     C_R   0.513580 0.129368 0.503576 -0.010703
C9    C     C_R   0.501918 0.063807 0.379180 -0.165603
C10   C     C_R   0.494859 0.936484 0.380258 -0.168461
C11   C     C_R   0.491513 0.871967 0.506558 -0.010304
C12   C     C_3   0.946586 0.401045 0.594780 -0.219934
C13   C     C_R   0.612209 0.665141 0.141994 -0.089604
C14   C     C_R   0.666570 0.746795 0.068940 -0.179948
C15   C     C_R   0.666463 0.747074 0.925454 -0.167672
C16   C     C_R   0.495275 0.737400 0.501292 0.534852
C17   C     C_R   0.612224 0.665481 0.854083 -0.083476
C18   C     C_R   0.555141 0.581321 0.924139 0.138076
C19   C     C_R   0.555090 0.581243 0.073665 0.146192
C20   C     C_R   0.447908 0.422852 0.076869 0.012086
C21   C     C_R   0.446984 0.421893 0.929591 0.102834
C22   C     C_R   0.659645 0.500555 0.499404 0.536821
C23   C     C_3   0.917241 0.507309 0.500589 0.108143
C24   C     C_3   0.043944 0.401679 0.598189 -0.224758
C25   C     C_3   0.049217 0.484136 0.352651 -0.220566
C26   C     C_3   0.951351 0.475968 0.352864 -0.223626
C27   C     C_1   0.749311 0.502137 0.498517 -0.050901
C28   C     C_3   0.082977 0.504739 0.502647 0.053641
C29   C     C_3   0.940338 0.737625 0.433050 -0.411898
C30   C     C_3   0.383642 0.329887 0.867398 -0.353156
C31   C     C_3   0.918628 0.693092 0.684227 -0.237677
C32   C     C_3   0.919959 0.615652 0.818271 -0.300149
C33   C     C_3   0.911664 0.695852 0.947745 -0.462377
C34   C     C_3   0.956977 0.639187 0.546779 0.068052
C35   C     C_3   0.055101 0.630357 0.558500 -0.171877
C36   C     C_1   0.824890 0.504125 0.499026 -0.078715
C37   C     C_1   0.175120 0.502555 0.502606 -0.083272
C38   C     C_1   0.250642 0.500988 0.502012 -0.042001
C39   C     C_R   0.551522 0.120891 0.755069 -0.100817
Cu1   Cu    Cu3+1 0.499990 0.499990 0.640660 0.895217
Cu2   Cu    Cu3+1 0.500010 0.500010 0.359340 0.913255
H1    H     H_    0.922035 0.310728 0.552489 0.106318
H2    H     H_    0.405526 0.360128 0.135299 0.119806
H3    H     H_    0.064788 0.310451 0.563217 0.113801
H4    H     H_    0.617808 0.671784 0.251765 0.183835
H5    H     H_    0.709262 0.810182 0.124359 0.111737
H6    H     H_    0.708748 0.811053 0.868596 0.113350
H7    H     H_    0.617622 0.673223 0.744216 0.185874
H8    H     H_    0.073164 0.560994 0.283869 0.113277
H9    H     H_    0.072667 0.397504 0.308721 0.113304
H10   H     H_    0.928624 0.381034 0.322449 0.109277
H11   H     H_    0.926984 0.536755 0.271470 0.108162
H12   H     H_    0.066023 0.415608 0.706906 0.106118
H13   H     H_    0.076166 0.641990 0.667917 0.106679
H14   H     H_    0.089666 0.706441 0.500208 0.104985
H15   H     H_    0.960545 0.831842 0.469015 0.107554
H16   H     H_    0.976375 0.723441 0.335478 0.121790
H17   H     H_    0.872222 0.737441 0.407766 0.126224
H18   H     H_    0.381617 0.327433 0.754124 0.206697
H19   H     H_    0.397166 0.235759 0.902813 0.101724
H20   H     H_    0.319408 0.350215 0.904439 0.087438
H21   H     H_    0.967562 0.761349 0.957216 0.141973
H22   H     H_    0.853857 0.748460 0.942439 0.155728
H23   H     H_    0.920278 0.402119 0.701226 0.103513
H24   H     H_    0.907535 0.636562 0.041930 0.137227
H25   H     H_    0.865110 0.547647 0.818802 0.163551
H26   H     H_    0.979305 0.567288 0.826806 0.155164
H27   H     H_    0.953339 0.783003 0.705094 0.134589
H28   H     H_    0.851936 0.714878 0.666123 0.138025
H29   H     H_    0.498362 0.110850 0.280122 0.133431
H30   H     H_    0.585930 0.209498 0.754890 0.150439
H31   H     H_    0.562012 0.106830 0.977551 0.110326
H32   H     H_    0.484960 0.902918 0.989373 0.114187
H33   H     H_    0.439705 0.798325 0.778756 0.151907
H34   H     H_    0.490680 0.888624 0.281432 0.135654
N1    N     N_R   0.500800 0.501210 0.147910 -0.254869
N2    N     N_R   0.500820 0.501290 0.852040 -0.237897
O1    O     O_R   0.499990 0.319640 0.618810 -0.522739
O2    O     O_R   0.500000 0.319660 0.381240 -0.503070
O3    O     O_R   0.379430 0.499990 0.618840 -0.508134
O4    O     O_R   0.379440 0.500020 0.381260 -0.491596
O5    O     O_R   0.500000 0.680340 0.618760 -0.532869
O6    O     O_R   0.500010 0.680360 0.381190 -0.521310
O7    O     O_R   0.620560 0.499980 0.618740 -0.517133
O8    O     O_R   0.620570 0.500010 0.381160 -0.510214

loop_
_geom_bond_atom_site_label_1
_geom_bond_atom_site_label_2
_ccdc_geom_bond_type
C1    C8    S    
Cu1   O7    S    
C17   H7    S    
C15   H6    S    
C33   H24   S    
C7    C8    A    
C14   H5    S    
C25   C28   S    
C12   C23   S    
C19   N1    A    
C4    O3    A    
C5    C6    A    
C12   H23   S    
C22   O8    A    
Cu2   O6    S    
C20   N1    A    
C34   C35   S    
C11   C16   S    
C23   C26   S    
C5    H33   S    
C25   H9    S    
C12   H1    S    
C2    C39   A    
C4    O4    A    
C28   C35   S    
C8    C9    A    
C30   H19   S    
Cu1   O3    S    
C9    C10   A    
C13   C14   A    
C35   H13   S    
C1    O1    A    
C2    H31   S    
C31   H27   S    
C13   C19   A    
C35   H14   S    
Cu1   O5    S    
C9    H29   S    
C6    C11   A    
C18   C19   A    
C25   C26   S    
C33   H21   S    
C29   C34   S    
C16   O6    A    
C22   O7    A    
C37   C38   T    
C26   H11   S    
C10   H34   S    
C31   C32   S    
C33   H22   S    
C23   C34   S    
Cu2   O4    S    
C30   H18   S    
C16   O5    A    
C17   C18   A    
C31   C34   S    
C29   H17   S    
C32   H26   S    
Cu1   Cu2   S    
C29   H16   S    
C22   C27   S    
C24   H3    S    
Cu1   O1    S    
C20   H2    S    
C32   H25   S    
C15   C17   A    
C39   H30   S    
C14   C15   A    
C24   C28   S    
C4    C38   S    
C3    C5    A    
Cu2   O2    S    
C6    C7    A    
C29   H15   S    
C27   C36   T    
Cu2   O8    S    
C21   C30   S    
C12   C24   S    
C32   C33   S    
C2    C3    A    
C24   H12   S    
C26   H10   S    
Cu2   N1    S    
C13   H4    S    
C28   C37   S    
C18   N2    A    
C1    O2    A    
C3    H32   S    
C25   H8    S    
C10   C11   A    
C31   H28   S    
C20   C21   A    
C23   C36   S    
C30   H20   S    
C21   N2    A    
C7    C39   A    
Cu1   N2    S    
