data_mof_unit_11679.cif
_audit_creation_date              2012-12-11T15:32:34-0500
_audit_creation_method            fapswitch 2.2
_symmetry_space_group_name_H-M    P1
_symmetry_Int_Tables_number       1
_space_group_crystal_system       triclinic
_cell_length_a                    6.988134
_cell_length_b                    20.458115
_cell_length_c                    24.346143
_cell_angle_alpha                 89.726999
_cell_angle_beta                  89.423641
_cell_angle_gamma                 90.183176
_cell_volume                      3480.38924467

loop_
_atom_site_label
_atom_site_type_symbol
_atom_type_description
_atom_site_fract_x
_atom_site_fract_y
_atom_site_fract_z
_atom_type_partial_charge
O1    O     O_R   0.507320 0.423560 0.460500 -0.537116
O2    O     O_R   0.170760 0.556250 0.437010 -0.538027
O3    O     O_R   0.004030 0.576440 0.539500 -0.526183
C1    C     C_R   0.340402 0.576272 0.421266 0.715187
O4    O     O_R   0.177370 0.422820 0.454110 -0.542212
O5    O     O_R   0.010680 0.442050 0.556720 -0.520236
C2    C     C_R   0.346251 0.398763 0.443885 0.700111
O6    O     O_R   0.500680 0.557950 0.443280 -0.540896
O7    O     O_3   0.340380 0.506470 0.533650 -0.356225
V1    V     V_3+5 0.064130 0.498800 0.493760 1.505196
O8    O     O_R   0.681160 0.443750 0.562990 -0.530323
C3    C     C_R   0.848149 0.423650 0.578849 0.717246
O9    O     O_R   0.674560 0.577180 0.545890 -0.537621
C4    C     C_R   0.842334 0.601188 0.556600 0.729554
V2    V     V_3+5 0.564560 0.501200 0.506240 1.518351
O10   O     O_3   0.838180 0.493530 0.466350 -0.381533
C5    C     C_R   0.977246 0.839479 0.908341 -0.265304
C6    C     C_R   0.842993 0.663501 0.587151 -0.151155
C7    C     C_R   0.081071 0.726131 0.897462 0.474775
C8    C     C_R   0.031961 0.779154 0.931856 0.213452
C9    C     C_R   0.946194 0.843783 0.850704 0.295871
C10   C     C_R   0.970156 0.787269 0.816949 -0.075908
C11   C     C_R   0.061923 0.731753 0.839621 -0.137192
C12   C     C_R   0.910024 0.784298 0.760764 0.083765
C13   C     C_R   0.978551 0.733549 0.725518 -0.058785
C14   C     C_R   0.122503 0.691701 0.746220 0.278807
C15   C     C_R   0.141443 0.684377 0.803701 0.395699
C16   C     C_R   0.774328 0.828301 0.739782 -0.060676
C17   C     C_R   0.719684 0.826904 0.685248 -0.074678
C18   C     C_R   0.779568 0.776725 0.650192 0.017296
C19   C     C_R   0.899804 0.726693 0.671379 0.129658
C20   C     C_R   0.709876 0.772647 0.595703 0.495157
C21   C     C_R   0.743177 0.716198 0.565121 -0.177128
C22   C     C_R   0.920229 0.668650 0.639972 -0.064721
H1    H     H_    0.983233 0.625484 0.657600 0.175753
H2    H     H_    0.683599 0.711774 0.524400 0.171267
H3    H     H_    0.618091 0.863381 0.672294 0.201560
H4    H     H_    0.700514 0.863033 0.765480 0.172311
C23   C     C_3   0.859190 0.305867 0.770779 0.362808
C24   C     C_3   0.055069 0.276040 0.783794 0.260664
C25   C     C_1   0.974731 0.122179 0.875314 -0.170825
C26   C     C_1   0.852183 0.378041 0.624707 -0.057865
C27   C     C_3   0.763974 0.237272 0.777582 -0.235033
C28   C     C_3   0.962413 0.207965 0.790801 -0.068765
C29   C     C_3   0.805668 0.224062 0.716037 0.411518
C30   C     C_3   0.892354 0.292734 0.708783 -0.138128
C31   C     C_3   0.001012 0.193933 0.728945 -0.284647
C32   C     C_3   0.089061 0.263399 0.721975 0.292020
C33   C     C_1   0.974916 0.160806 0.837165 0.107492
C34   C     C_1   0.862130 0.339515 0.662758 0.269447
H5    H     H_    0.058523 0.147988 0.711306 0.196990
H6    H     H_    0.627298 0.226204 0.799424 0.206258
C35   C     C_3   0.511427 0.723044 0.209656 0.418903
C36   C     C_3   0.318050 0.696625 0.232214 -0.198285
H7    H     H_    0.242644 0.652474 0.217133 0.182859
H8    H     H_    0.093924 0.782783 0.217473 0.221764
C37   C     C_1   0.353449 0.621780 0.375467 -0.169292
C38   C     C_1   0.470721 0.878624 0.124746 -0.093038
C39   C     C_3   0.587403 0.732363 0.268638 -0.346634
C40   C     C_3   0.392299 0.707159 0.291289 0.002809
C41   C     C_3   0.505841 0.802683 0.267773 0.354126
C42   C     C_3   0.432768 0.793171 0.208894 -0.095752
C43   C     C_3   0.314221 0.777067 0.290421 0.326164
C44   C     C_3   0.237770 0.767774 0.231667 -0.243530
C45   C     C_1   0.369206 0.660172 0.337448 0.080476
C46   C     C_1   0.455103 0.840320 0.162800 0.179197
H9    H     H_    0.731380 0.717986 0.283224 0.175622
C47   C     C_R   0.467117 0.161646 0.088735 -0.100427
C48   C     C_R   0.353285 0.338049 0.411798 -0.057853
C49   C     C_R   0.447204 0.280200 0.089952 0.396328
C50   C     C_R   0.448371 0.221037 0.061088 -0.335054
C51   C     C_R   0.479652 0.160249 0.146373 0.273388
C52   C     C_R   0.447980 0.218910 0.177221 -0.074679
C53   C     C_R   0.448102 0.279213 0.147936 0.054431
C54   C     C_R   0.412575 0.220126 0.235498 0.059338
C55   C     C_R   0.416341 0.280878 0.264599 0.071006
C56   C     C_R   0.439298 0.338983 0.233884 -0.207553
C57   C     C_R   0.447990 0.338138 0.176911 -0.094661
C58   C     C_R   0.355682 0.163421 0.264592 -0.169513
C59   C     C_R   0.322714 0.164369 0.320884 -0.163214
C60   C     C_R   0.338945 0.222277 0.350438 0.110485
C61   C     C_R   0.386087 0.281679 0.323025 0.089670
C62   C     C_R   0.300832 0.221427 0.407156 -0.125584
C63   C     C_R   0.305925 0.278937 0.437400 -0.140215
C64   C     C_R   0.395754 0.339468 0.355266 -0.211315
H10   H     H_    0.454664 0.384637 0.155478 0.197265
H11   H     H_    0.433464 0.386341 0.337851 0.097221
H12   H     H_    0.271781 0.277424 0.480907 0.152939
H13   H     H_    0.279872 0.119378 0.341338 0.166640
H14   H     H_    0.441842 0.221325 0.016615 0.139253
H15   H     H_    0.439856 0.386646 0.252437 0.132753
H16   H     H_    0.325594 0.117970 0.244064 0.196483
H17   H     H_    0.263261 0.176195 0.428036 0.151240
O11   O     O_R   0.323550 0.942140 0.056770 -0.534680
O12   O     O_R   0.647080 0.077200 0.045890 -0.532936
O13   O     O_R   0.813610 0.057920 0.943260 -0.541431
C65   C     C_R   0.477978 0.101142 0.056303 0.787876
O14   O     O_R   0.653470 0.943760 0.063000 -0.527945
O15   O     O_R   0.820050 0.923540 0.960490 -0.543590
C66   C     C_R   0.483796 0.923918 0.078843 0.748179
O16   O     O_R   0.317110 0.076520 0.039540 -0.542603
O17   O     O_3   0.483830 0.993580 0.966380 -0.378191
V3    V     V_3+5 0.760140 0.001190 0.006240 1.500314
O18   O     O_R   0.149510 0.922740 0.954070 -0.527288
C67   C     C_R   0.981459 0.899148 0.942968 0.708295
O19   O     O_R   0.143120 0.056170 0.936970 -0.538809
C68   C     C_R   0.976311 0.076386 0.921147 0.705457
V4    V     V_3+5 0.259690 0.998700 0.993700 1.497485
O20   O     O_3   0.986130 0.006420 0.033620 -0.363748
O21   O     O_3   0.253779 0.635104 0.825069 -0.549533
H18   H     H_    0.260878 0.598819 0.798350 0.369235
S1    S     S_3+6 0.572992 0.835503 0.564765 0.056901
O22   O     O_2   0.380498 0.838861 0.592724 -0.297743
O23   O     O_2   0.674591 0.899880 0.571007 -0.302525
O24   O     O_3   0.542123 0.820503 0.497541 -0.493437
H19   H     H_    0.458163 0.856126 0.484429 0.387669
O25   O     O_3   0.190229 0.301634 0.819758 -0.573271
H20   H     H_    0.223504 0.345278 0.804662 0.350069
S2    S     S_3+6 0.772835 0.379671 0.801462 0.059713
O26   O     O_2   0.924116 0.409002 0.837266 -0.281494
O27   O     O_2   0.720979 0.428081 0.757487 -0.333733
O28   O     O_3   0.578899 0.362365 0.840249 -0.477151
H21   H     H_    0.532037 0.405310 0.853212 0.392035
S3    S     S_3+6 0.291293 0.281705 0.679588 0.038665
O29   O     O_2   0.344476 0.221295 0.648367 -0.264785
O30   O     O_2   0.252326 0.335206 0.638791 -0.354537
O31   O     O_3   0.468200 0.306458 0.719963 -0.482325
H22   H     H_    0.440522 0.353121 0.726868 0.375284
O32   O     O_3   0.682446 0.193940 0.679379 -0.541481
H23   H     H_    0.645139 0.151983 0.697071 0.323705
S4    S     S_3+6 0.645647 0.686399 0.155472 0.076917
O33   O     O_2   0.523534 0.682183 0.105172 -0.257700
O34   O     O_2   0.819945 0.727144 0.142708 -0.320505
O35   O     O_3   0.712800 0.610806 0.174339 -0.461946
H24   H     H_    0.795148 0.617359 0.206750 0.323466
O36   O     O_3   0.210810 0.805091 0.333709 -0.598183
H25   H     H_    0.171934 0.848813 0.320218 0.360050
S5    S     S_3+6 0.630674 0.872715 0.292044 0.065391
O37   O     O_2   0.808085 0.883011 0.257682 -0.305013
O38   O     O_2   0.505205 0.931992 0.287694 -0.311572
O39   O     O_3   0.693141 0.861000 0.357840 -0.442430
H26   H     H_    0.571260 0.852005 0.377590 0.363662
O40   O     O_3   0.440641 0.339380 0.062348 -0.616651
H27   H     H_    0.440793 0.331342 0.022204 0.327990
O41   O     O_3   0.538394 0.102510 0.170211 -0.642095
H28   H     H_    0.620640 0.113773 0.201760 0.311718
O42   O     O_3   0.145219 0.667677 0.919463 -0.559446
H29   H     H_    0.154699 0.670418 0.959891 0.375476
O43   O     O_3   0.050216 0.771445 0.988111 -0.611425
H30   H     H_    0.978311 0.806086 0.007561 0.313657
O44   O     O_3   0.918311 0.903733 0.825435 -0.644442
H31   H     H_    0.879675 0.937048 0.852601 0.278459
S6    S     S_3+6 0.316673 0.664944 0.703680 -0.020322
O45   O     O_2   0.323003 0.702565 0.650500 -0.325450
O46   O     O_2   0.501452 0.675970 0.733401 -0.323969
O47   O     O_3   0.294831 0.584596 0.690621 -0.514055
H32   H     H_    0.403432 0.574316 0.665687 0.369976

loop_
_geom_bond_atom_site_label_1
_geom_bond_atom_site_label_2
_ccdc_geom_bond_type
C28   C33   S    
C13   C19   A    
O15   V3    S    
C29   O32   S    
C52   C53   A    
C4    C6    S    
O2    C1    A    
C7    C8    A    
C1    O6    A    
S4    O35   S    
C21   H2    S    
S1    O23   D    
O41   H28   S    
C35   C39   S    
C36   C40   S    
C56   C57   A    
V4    O20   S    
O11   V4    S    
C49   O40   S    
O19   V4    S    
C40   C43   S    
C16   C17   A    
O40   H27   S    
O5    C3    A    
C18   C19   A    
C59   C60   A    
C27   H6    S    
O19   C68   A    
V2    O10   S    
C62   H17   S    
C5    C8    A    
C8    O43   S    
C22   H1    S    
C59   H13   S    
C41   C43   S    
O21   H18   S    
O18   C67   A    
C42   C44   S    
C39   H9    S    
C51   O41   S    
C47   C65   S    
O8    V2    S    
C38   C46   T    
C56   H15   S    
O42   H29   S    
C15   O21   S    
O14   V3    S    
C49   C53   A    
C3    C26   S    
O44   H31   S    
H8    C44   S    
O17   V4    S    
C49   C50   A    
C35   S4    S    
C11   C15   A    
S6    O46   D    
C25   C68   S    
O7    V1    S    
C28   C31   S    
C57   H10   S    
O16   V4    S    
C29   C31   S    
C24   O25   S    
C39   C40   S    
S6    O45   D    
C9    C10   A    
C52   C54   A    
C41   C42   S    
O39   H26   S    
C25   C33   T    
S1    O22   D    
C60   C62   A    
O12   V3    S    
C60   C61   A    
S2    O27   D    
O15   C67   A    
C30   C32   S    
C39   C41   S    
C42   C46   S    
C64   H11   S    
C12   C16   A    
C38   C66   S    
C55   C56   A    
C55   C61   A    
C23   C24   S    
O4    C2    A    
O36   H25   S    
C31   H5    S    
C13   C14   A    
C35   C36   S    
C7    O42   S    
C58   C59   A    
C1    C37   S    
C7    C11   A    
C54   C55   A    
O5    V1    S    
C17   C18   A    
C5    C67   S    
C27   C29   S    
C35   C42   S    
C31   C32   S    
C16   H4    S    
C47   C51   A    
C14   C15   A    
C19   C22   A    
C12   C13   A    
S6    O47   S    
C6    C22   A    
C58   H16   S    
O35   H24   S    
O3    C4    A    
S5    O38   D    
C26   C34   T    
S3    O31   S    
O1    V2    S    
O13   C68   A    
C40   C45   S    
O6    V2    S    
O14   C66   A    
C23   C30   S    
C27   C28   S    
C10   C12   A    
C62   C63   A    
S4    O33   D    
O2    V1    S    
O18   V4    S    
C48   C64   A    
S3    O30   D    
O32   H23   S    
S2    O28   S    
C24   C32   S    
C36   H7    S    
O47   H32   S    
C20   S1    S    
O1    C2    A    
C63   H12   S    
C37   C45   T    
C51   C52   A    
S4    O34   D    
S5    O39   S    
C32   S3    S    
C23   C27   S    
O8    C3    A    
O12   C65   A    
O31   H22   S    
C61   C64   A    
C30   C34   S    
O25   H20   S    
V3    O20   S    
C43   O36   S    
O9    V2    S    
C2    C48   S    
O7    V2    S    
O4    V1    S    
O3    V1    S    
V1    O10   S    
O43   H30   S    
C20   C21   A    
C18   C20   A    
C50   H14   S    
C36   C44   S    
C47   C50   A    
C23   S2    S    
C9    O44   S    
O11   C66   A    
O17   V3    S    
C41   S5    S    
C6    C21   A    
C5    C9    A    
S5    O37   D    
C43   C44   S    
C29   C30   S    
C24   C28   S    
S2    O26   D    
C53   C57   A    
O13   V3    S    
C17   H3    S    
C48   C63   A    
C10   C11   A    
C14   S6    S    
O28   H21   S    
O9    C4    A    
C54   C58   A    
S1    O24   S    
C65   O16   A    
O24   H19   S    
S3    O29   D    
