data_mof_unit_47104.cif
_audit_creation_date              2012-12-10T17:02:54-0500
_audit_creation_method            fapswitch 2.2
_symmetry_space_group_name_H-M    P1
_symmetry_Int_Tables_number       1
_space_group_crystal_system       triclinic
_cell_length_a                    19.115063
_cell_length_b                    19.000696
_cell_length_c                    18.517371
_cell_angle_alpha                 108.269241
_cell_angle_beta                  109.171565
_cell_angle_gamma                 109.838545
_cell_volume                      5247.77091625

loop_
_atom_site_label
_atom_site_type_symbol
_atom_type_description
_atom_site_fract_x
_atom_site_fract_y
_atom_site_fract_z
_atom_type_partial_charge
C1    C     C_R   0.380604 0.381719 0.499790 0.853800
C2    C     C_3   0.811716 0.504393 0.811468 0.025811
C3    C     C_3   0.851435 0.563341 0.775443 -0.168857
C4    C     C_3   0.761312 0.537558 0.851953 0.650559
C5    C     C_R   0.404959 0.354021 0.653469 0.095408
C6    C     C_R   0.411372 0.364142 0.734058 0.138246
C7    C     C_R   0.338345 0.327380 0.739835 0.070149
C8    C     C_R   0.259142 0.271988 0.663102 0.390844
C9    C     C_R   0.253726 0.256727 0.579858 -0.046064
C10   C     C_R   0.324134 0.309919 0.577285 -0.070030
C11   C     C_R   0.181500 0.188971 0.499336 -0.116483
C12   C     C_R   0.620781 0.502355 0.619988 0.885333
C13   C     C_R   0.172110 0.187025 0.418875 -0.025066
C14   C     C_R   0.233491 0.254867 0.419245 -0.003662
C15   C     C_R   0.311938 0.314699 0.498767 -0.107383
C16   C     C_R   0.102166 0.118774 0.337545 -0.224224
C17   C     C_R   0.087271 0.120219 0.259435 0.127470
C18   C     C_R   0.141642 0.191643 0.260427 0.108105
C19   C     C_R   0.214791 0.259034 0.339404 0.382722
C20   C     C_R   0.228495 0.475738 0.382594 -0.143865
C21   C     C_R   0.159044 0.473437 0.392759 -0.164076
C22   C     C_R   0.100000 0.484830 0.336815 0.215405
C23   C     C_R   0.620397 0.618099 0.500933 0.920500
C24   C     C_R   0.109241 0.494192 0.268226 -0.182561
C25   C     C_R   0.177185 0.491915 0.253386 0.003959
C26   C     C_R   0.241289 0.488922 0.315315 0.066515
C27   C     C_R   0.182673 0.493790 0.179376 -0.134278
C28   C     C_R   0.254262 0.496184 0.168541 -0.071525
C29   C     C_R   0.324421 0.504451 0.236321 -0.098088
C30   C     C_R   0.316293 0.499229 0.309480 -0.104868
C31   C     C_R   0.257068 0.489191 0.090461 0.345989
C32   C     C_R   0.334950 0.516462 0.089888 -0.024051
C33   C     C_R   0.405570 0.527722 0.157246 0.325574
C34   C     C_R   0.384012 0.502315 0.379782 0.929396
C35   C     C_R   0.399111 0.516194 0.226924 0.336296
C36   C     C_R   0.603117 0.762569 0.489940 0.368187
C37   C     C_R   0.604619 0.840204 0.516584 0.324717
C38   C     C_R   0.675497 0.913062 0.536699 0.185075
C39   C     C_R   0.746525 0.907596 0.533900 0.344021
C40   C     C_R   0.748162 0.828563 0.513444 -0.079475
C41   C     C_R   0.678629 0.757364 0.499776 -0.195327
C42   C     C_R   0.816018 0.817804 0.504669 -0.078949
C43   C     C_R   0.818547 0.741108 0.491542 -0.047159
C44   C     C_R   0.758709 0.676964 0.496431 0.024067
C45   C     C_3   0.673128 0.413030 0.667058 -0.637478
C46   C     C_R   0.686557 0.684236 0.498062 -0.101352
C47   C     C_R   0.880192 0.727231 0.472240 -0.258500
C48   C     C_R   0.889900 0.656817 0.466855 0.147831
C49   C     C_R   0.839574 0.599003 0.484533 0.113780
C50   C     C_R   0.773536 0.607847 0.498147 0.357454
C51   C     C_R   0.999616 0.381615 0.880494 0.952641
C52   C     C_R   0.878943 0.501032 0.878133 0.920535
C53   C     C_R   0.996171 0.617761 0.115794 0.856826
C54   C     C_R   0.115997 0.498412 0.115700 0.904614
C55   C     C_R   0.997670 0.879161 0.381173 0.811570
C56   C     C_3   0.748577 0.412831 0.730837 0.109495
C57   C     C_R   0.117517 0.118928 0.499192 0.867741
C58   C     C_R   0.000343 0.119035 0.618582 0.993886
C59   C     C_R   0.882156 0.883909 0.503046 0.907460
C60   C     C_R   0.990283 0.386037 0.721466 0.099135
C61   C     C_R   0.014167 0.408248 0.664831 0.293922
C62   C     C_R   0.032885 0.356027 0.611821 0.286505
C63   C     C_R   0.030979 0.283968 0.618600 0.091642
C64   C     C_R   0.012548 0.263399 0.681497 -0.047280
C65   C     C_R   0.001319 0.321664 0.739965 -0.056163
C66   C     C_R   0.002226 0.186661 0.686616 -0.108041
C67   C     C_3   0.778592 0.555686 0.697725 -0.039572
C68   C     C_R   0.994537 0.175259 0.757624 -0.052418
C69   C     C_R   0.004990 0.244626 0.827166 -0.011846
C70   C     C_R   0.002118 0.314956 0.815049 -0.090532
C71   C     C_R   0.979075 0.097888 0.763700 0.091682
C72   C     C_R   0.985505 0.094273 0.839764 0.348629
C73   C     C_R   0.002055 0.164395 0.910303 0.071199
C74   C     C_R   0.016492 0.240177 0.906167 0.093325
C75   C     C_R   0.151436 0.748184 0.284632 0.065616
C76   C     C_R   0.228958 0.823563 0.348031 0.124391
C77   C     C_R   0.228761 0.899476 0.383583 0.208826
C78   C     C_3   0.693570 0.544020 0.781492 0.140164
C79   C     C_R   0.151333 0.899285 0.364410 0.075930
C80   C     C_R   0.072459 0.820761 0.312497 -0.043609
C81   C     C_R   0.072847 0.749087 0.259991 0.026668
C82   C     C_R   0.994485 0.811245 0.311394 -0.121634
C83   C     C_R   0.914917 0.735320 0.244748 0.001395
C84   C     C_R   0.916009 0.674638 0.177390 -0.023104
C85   C     C_R   0.995104 0.681364 0.185395 -0.090464
C86   C     C_R   0.833631 0.717412 0.240416 0.082379
C87   C     C_R   0.757238 0.646987 0.168279 0.404460
C88   C     C_R   0.759475 0.589365 0.101407 0.080831
C89   C     C_3   0.690676 0.505897 0.690982 -0.035362
C90   C     C_R   0.837512 0.606032 0.104464 -0.226914
Cu1   Cu    Cu3+1 0.500360 0.438220 0.438540 1.006857
Cu2   Cu    Cu3+1 0.499640 0.561780 0.561460 1.044021
Cu3   Cu    Cu3+1 0.935530 0.438290 0.997340 0.989474
Cu4   Cu    Cu3+1 0.059130 0.561800 0.997250 0.996603
Cu5   Cu    Cu3+1 0.937870 0.000030 0.437890 0.980420
Cu6   Cu    Cu3+1 0.062130 1.000000 0.562130 0.971153
H1    H     H_    0.662065 0.378468 0.600011 0.204515
H2    H     H_    0.057032 0.062299 0.331640 0.166269
H3    H     H_    0.614936 0.376177 0.668071 0.227363
H4    H     H_    0.270923 0.465977 0.428396 0.187934
H5    H     H_    0.152269 0.464088 0.445379 0.154500
H6    H     H_    0.063078 0.505605 0.229043 0.179299
H7    H     H_    0.920910 0.769943 0.458451 0.174362
H8    H     H_    0.781698 0.395649 0.695497 0.113301
H9    H     H_    0.776198 0.514409 0.637975 0.176971
H10   H     H_    0.834624 0.563371 0.048006 0.230420
H11   H     H_    0.886097 0.537210 0.747689 0.143947
H12   H     H_    0.630507 0.503718 0.771915 0.137772
O1    O     O_R   0.410140 0.357660 0.448100 -0.564135
O2    O     O_R   0.049980 0.462000 0.907580 -0.563383
O3    O     O_R   0.854480 0.447890 0.906670 -0.514970
O4    O     O_R   0.958860 0.552200 0.906600 -0.593130
O5    O     O_R   0.944670 0.538090 0.087010 -0.614750
O6    O     O_R   0.049050 0.642400 0.086940 -0.569326
O7    O     O_R   0.035800 0.447890 0.088000 -0.620940
O8    O     O_R   0.140170 0.552200 0.087920 -0.553259
O9    O     O_R   0.948030 0.909890 0.357850 -0.587735
O10   O     O_R   0.052970 0.909860 0.462770 -0.602273
O11   O     O_R   0.037700 0.090200 0.447550 -0.612570
O12   O     O_R   0.409530 0.462000 0.551910 -0.609916
O13   O     O_R   0.142640 0.090170 0.552470 -0.562041
O14   O     O_R   0.947030 0.090160 0.537260 -0.560764
O15   O     O_R   0.051970 0.090130 0.642170 -0.564904
O16   O     O_R   0.857360 0.909860 0.447560 -0.538573
O17   O     O_R   0.962300 0.909830 0.552480 -0.609637
O18   O     O_R   0.590960 0.447830 0.538760 -0.600131
O19   O     O_R   0.590350 0.552170 0.642570 -0.553822
O20   O     O_R   0.590470 0.538000 0.448090 -0.537202
O21   O     O_R   0.589860 0.642340 0.551900 -0.552122
O22   O     O_R   0.409650 0.447830 0.357430 -0.524293
O23   O     O_R   0.409040 0.552170 0.461240 -0.573430
O24   O     O_R   0.945600 0.357690 0.907660 -0.584592
O25   O     O_3   0.819195 0.617080 0.927202 -0.758345
H13   H     H_    0.786927 0.632696 0.955699 0.356758
N1    N     N_3   0.793659 0.635966 0.695305 -0.531097
H14   H     H_    0.850675 0.662479 0.694060 0.229460
H15   H     H_    0.797523 0.680789 0.748163 0.238070
N2    N     N_3   0.915540 0.651289 0.844298 -0.508376
H16   H     H_    0.953436 0.680718 0.821375 0.219238
H17   H     H_    0.888111 0.687628 0.862419 0.255011
N3    N     N_3   0.122013 0.196997 0.181236 -0.601599
H18   H     H_    0.061910 0.192120 0.157062 0.259510
H19   H     H_    0.119826 0.145749 0.135830 0.232016
N4    N     N_3   0.481905 0.379154 0.649437 -0.653447
H20   H     H_    0.472269 0.335590 0.591055 0.216369
H21   H     H_    0.501256 0.439462 0.655371 0.238163
N5    N     N_3   0.492736 0.412139 0.811383 -0.576661
H22   H     H_    0.523519 0.473453 0.819522 0.247235
H23   H     H_    0.528722 0.382612 0.802870 0.244021
N6    N     N_3   0.344910 0.342558 0.823416 -0.599383
H24   H     H_    0.372438 0.408157 0.862552 0.253935
H25   H     H_    0.385221 0.322103 0.852279 0.250080
O26   O     O_3   0.186200 0.235367 0.668215 -0.730334
H26   H     H_    0.198206 0.255562 0.729314 0.354910
N7    N     N_3   0.014667 0.050427 0.178462 -0.587534
H27   H     H_    0.037282 0.019022 0.142874 0.219970
H28   H     H_    0.975111 0.005908 0.189064 0.225020
O27   O     O_3   0.266191 0.330822 0.340250 -0.764179
H29   H     H_    0.250516 0.322394 0.280523 0.355275
O28   O     O_3   0.482581 0.549774 0.157380 -0.719435
H30   H     H_    0.474625 0.539483 0.098739 0.353318
N8    N     N_3   0.030226 0.487514 0.348676 -0.588799
H31   H     H_    0.033373 0.481837 0.403899 0.220064
H32   H     H_    0.974090 0.434158 0.295278 0.216985
O29   O     O_3   0.182826 0.451113 0.013617 -0.720904
H33   H     H_    0.189650 0.419435 0.964863 0.328291
N9    N     N_3   0.342935 0.533342 0.021387 -0.600571
H34   H     H_    0.391250 0.596385 0.050834 0.233227
H35   H     H_    0.288904 0.532830 0.982159 0.245417
O30   O     O_3   0.466888 0.518203 0.286551 -0.742531
H36   H     H_    0.504369 0.508812 0.262936 0.374491
N10   N     N_3   0.855465 0.531787 0.491529 -0.607148
H37   H     H_    0.901893 0.528391 0.475076 0.256084
H38   H     H_    0.879480 0.546156 0.556918 0.233323
O31   O     O_3   0.719154 0.349680 0.754487 -0.686372
H39   H     H_    0.692115 0.293664 0.702352 0.341859
O32   O     O_3   0.524114 0.692353 0.448527 -0.658821
H40   H     H_    0.522259 0.649955 0.399999 0.334660
O33   O     O_3   0.533276 0.841329 0.518282 -0.671653
H41   H     H_    0.551153 0.897928 0.564094 0.332532
O34   O     O_3   0.675252 0.989241 0.553932 -0.737191
H42   H     H_    0.616267 0.977216 0.521098 0.345797
O35   O     O_3   0.814943 0.979447 0.551665 -0.716572
H43   H     H_    0.808812 0.030623 0.572020 0.378747
N11   N     N_3   0.952919 0.645433 0.446217 -0.579732
H44   H     H_    0.920458 0.593907 0.383514 0.229468
H45   H     H_    0.990812 0.698302 0.443688 0.229408
O36   O     O_3   0.727913 0.552465 0.519466 -0.729651
H46   H     H_    0.723791 0.496355 0.491449 0.344044
N12   N     N_3   0.002904 0.160488 0.987195 -0.607613
H47   H     H_    0.989795 0.100931 0.982742 0.241654
H48   H     H_    0.952417 0.167868 0.991505 0.220021
N13   N     N_3   0.945307 0.423191 0.751591 -0.589374
H49   H     H_    0.894284 0.409437 0.695759 0.208323
H50   H     H_    0.984984 0.489248 0.785152 0.274615
O37   O     O_3   0.014707 0.479804 0.660672 -0.762933
H51   H     H_    0.059200 0.505198 0.646157 0.335874
O38   O     O_3   0.048432 0.370017 0.548269 -0.760322
H52   H     H_    0.016792 0.397560 0.527122 0.331848
N14   N     N_3   0.048865 0.233425 0.560044 -0.503247
H53   H     H_    0.001394 0.209754 0.496673 0.259499
H54   H     H_    0.106263 0.273301 0.566121 0.268929
N15   N     N_3   0.954306 0.019887 0.692792 -0.521646
H55   H     H_    0.898165 0.972264 0.681728 0.262126
H56   H     H_    0.001072 0.002713 0.712204 0.258155
O39   O     O_3   0.975083 0.019856 0.842621 -0.748966
H57   H     H_    0.024422 0.035407 0.896622 0.322198
N16   N     N_3   0.049662 0.313985 0.986043 -0.526926
H58   H     H_    0.005639 0.302489 0.008511 0.250329
H59   H     H_    0.105448 0.322041 0.031885 0.248776
N17   N     N_3   0.682727 0.511826 0.032679 -0.567678
H60   H     H_    0.656287 0.479697 0.061773 0.218011
H61   H     H_    0.697276 0.470571 0.996171 0.271869
N18   N     N_3   0.152193 0.669783 0.252040 -0.609970
H62   H     H_    0.177032 0.659613 0.304706 0.217690
H63   H     H_    0.193709 0.677016 0.226401 0.235277
N19   N     N_3   0.309081 0.824846 0.374109 -0.531053
H64   H     H_    0.308557 0.782855 0.399550 0.240341
H65   H     H_    0.317260 0.804790 0.319581 0.225141
N20   N     N_3   0.308460 0.977489 0.439384 -0.538223
H66   H     H_    0.310063 0.017867 0.411703 0.239066
H67   H     H_    0.311667 0.006659 0.499436 0.222653
N21   N     N_3   0.154993 0.979905 0.386177 -0.611681
H68   H     H_    0.172479 0.008906 0.451748 0.243321
H69   H     H_    0.096648 0.972101 0.347180 0.207102
N22   N     N_3   0.826017 0.767253 0.310093 -0.565675
H70   H     H_    0.791295 0.726477 0.327401 0.244015
H71   H     H_    0.789792 0.793547 0.286348 0.276767
O40   O     O_3   0.681386 0.635983 0.167217 -0.725664
H72   H     H_    0.632832 0.593996 0.108077 0.352775
O41   O     O_3   0.700857 0.625575 0.807941 -0.703538
H73   H     H_    0.761179 0.670201 0.842312 0.343443
O42   O     O_3   0.720863 0.481387 0.878460 -0.742486
H74   H     H_    0.668644 0.430343 0.827484 0.339049

loop_
_geom_bond_atom_site_label_1
_geom_bond_atom_site_label_2
_ccdc_geom_bond_type
Cu5   O16   S    
C8    C9    A    
C66   C68   A    
N15   H55   S    
N12   H47   S    
Cu1   O18   S    
C80   C81   A    
N7    H28   S    
C73   C74   A    
C2    C4    S    
Cu5   Cu6   S    
C43   C44   A    
C50   O36   S    
C11   C57   S    
N20   H67   S    
O25   H13   S    
Cu4   O6    S    
C27   C54   S    
C7    C8    A    
N9    H35   S    
O29   H33   S    
C74   N16   S    
O34   H42   S    
Cu5   O9    S    
N17   H60   S    
C71   N15   S    
N15   H56   S    
C58   O15   A    
Cu3   Cu4   S    
C38   O34   S    
Cu6   O13   S    
C83   C84   A    
Cu6   O10   S    
C28   C29   A    
N5    H23   S    
C37   C38   A    
C10   C15   A    
N3    H19   S    
C55   O9    A    
C5    C6    A    
C22   N8    S    
N18   H63   S    
N11   H45   S    
C12   O18   A    
O30   H36   S    
C52   O4    A    
C65   C70   A    
C67   C89   S    
C63   N14   S    
C23   O21   A    
C78   H12   S    
C18   C19   A    
Cu3   O7    S    
C49   C50   A    
C1    O1    A    
C68   C69   A    
N3    H18   S    
C84   C85   A    
C58   C66   S    
N5    H22   S    
C45   C56   S    
C44   C46   A    
N14   H53   S    
N13   H50   S    
C88   N17   S    
C54   O8    A    
C47   C48   A    
C41   C46   A    
O32   H40   S    
O38   H52   S    
C1    C15   S    
C51   C70   S    
O39   H57   S    
Cu3   O24   S    
C45   C89   S    
O42   H74   S    
C24   H6    S    
C73   N12   S    
Cu1   Cu2   S    
C33   O28   S    
C57   O11   A    
C21   H5    S    
C40   C42   A    
C23   C46   S    
C13   C14   A    
C36   C41   A    
C69   C70   A    
C84   C90   A    
N20   H66   S    
O40   H72   S    
C53   O5    A    
C60   N13   S    
N8    H32   S    
C77   C79   A    
C78   C89   S    
C37   O33   S    
C3    C67   S    
C58   O14   A    
C47   H7    S    
Cu1   O20   S    
C30   C34   S    
C56   O31   S    
C4    O42   S    
C31   O29   S    
C12   C89   S    
N1    H14   S    
Cu2   O23   S    
C24   C25   A    
C56   H8    S    
N21   H68   S    
N4    H21   S    
C45   H3    S    
N16   H58   S    
N9    H34   S    
C12   O19   A    
Cu4   O8    S    
N18   H62   S    
C72   C73   A    
C5    N4    S    
C72   O39   S    
C52   O3    A    
Cu5   O11   S    
C25   C26   A    
C87   O40   S    
Cu4   O2    S    
C2    C56   S    
C79   C80   A    
C60   C61   A    
C1    O12   A    
C64   C66   A    
C67   N1    S    
C75   C76   A    
O35   H43   S    
C4    C78   S    
C29   C30   A    
C7    N6    S    
C31   C32   A    
C20   H4    S    
C76   N19   S    
C54   O7    A    
C62   C63   A    
C14   C15   A    
C17   C18   A    
C69   C74   A    
N22   H70   S    
C3    N2    S    
Cu3   O5    S    
C76   C77   A    
C55   C82   S    
C79   N21   S    
C8    O26   S    
C9    C11   A    
C61   O37   S    
C62   O38   S    
C2    C52   S    
Cu3   O3    S    
Cu5   O14   S    
C80   C82   A    
C40   C41   A    
N17   H61   S    
C88   C90   A    
C60   C65   A    
C82   C83   A    
C51   O2    A    
N22   H71   S    
O27   H29   S    
C86   N22   S    
C22   C24   A    
C13   C16   A    
N19   H65   S    
C42   C43   A    
N10   H37   S    
C17   N7    S    
Cu2   O19   S    
N7    H27   S    
C53   O6    A    
N8    H31   S    
C9    C10   A    
C44   C50   A    
C59   O16   A    
N1    H15   S    
C36   C37   A    
N12   H48   S    
Cu6   O15   S    
C86   C87   A    
C19   O27   S    
C14   C19   A    
C28   C31   A    
C67   H9    S    
C36   O32   S    
O37   H51   S    
C42   C59   S    
C34   O23   A    
C49   N10   S    
C53   C85   S    
C51   O24   A    
N21   H69   S    
C77   N20   S    
C26   C30   A    
C6    C7    A    
N2    H17   S    
C75   C81   A    
O33   H41   S    
C25   C27   A    
C4    O25   S    
C29   C35   A    
C75   N18   S    
N4    H20   S    
C3    H11   S    
O28   H30   S    
Cu1   O1    S    
C2    C3    S    
C78   O41   S    
C5    C10   A    
O31   H39   S    
C45   H1    S    
C59   O17   A    
C32   C33   A    
C6    N5    S    
C11   C13   A    
C33   C35   A    
C16   H2    S    
N11   H44   S    
C38   C39   A    
C20   C26   A    
C68   C71   A    
C48   C49   A    
N19   H64   S    
Cu4   O4    S    
N10   H38   S    
Cu6   O17   S    
Cu2   O21   S    
N6    H25   S    
Cu2   O12   S    
C61   C62   A    
C81   C85   A    
N2    H16   S    
C64   C65   A    
C90   H10   S    
C57   O13   A    
C63   C64   A    
C39   C40   A    
C48   N11   S    
C83   C86   A    
C71   C72   A    
C20   C21   A    
C34   O22   A    
C87   C88   A    
N16   H59   S    
N13   H49   S    
C32   N9    S    
O41   H73   S    
C35   O30   S    
N6    H24   S    
O36   H46   S    
Cu1   O22   S    
O26   H26   S    
C21   C22   A    
C43   C47   A    
C18   N3    S    
N14   H54   S    
C39   O35   S    
C16   C17   A    
C23   O20   A    
C27   C28   A    
C55   O10   A    
