data_mof_unit_51459.cif
_audit_creation_date              2013-03-05T15:46:32-0500
_audit_creation_method            fapswitch 2.2
_symmetry_space_group_name_H-M    P1
_symmetry_Int_Tables_number       1
_space_group_crystal_system       triclinic
_cell_length_a                    10.162667
_cell_length_b                    10.625047
_cell_length_c                    10.71691
_cell_angle_alpha                 90.880422
_cell_angle_beta                  94.714265
_cell_angle_gamma                 81.065535
_cell_volume                      1139.28717022

loop_
_atom_site_label
_atom_site_type_symbol
_atom_site_description
_atom_site_fract_x
_atom_site_fract_y
_atom_site_fract_z
_atom_type_partial_charge
O1    O     O_R   0.568940 0.489660 0.307530 -0.593002
O2    O     O_R   0.431060 0.510340 0.692470 -0.625963
O3    O     O_R   0.348880 0.522640 0.340350 -0.589666
O4    O     O_R   0.651120 0.477360 0.659650 -0.615119
C1    C     C_R   0.444219 0.515735 0.266980 0.959056
C2    C     C_R   0.555974 0.496759 0.733184 0.845250
O5    O     O_R   0.610030 0.300280 0.483580 -0.596169
O6    O     O_R   0.389970 0.699720 0.516420 -0.606457
O7    O     O_R   0.389970 0.333270 0.516400 -0.628921
O8    O     O_R   0.610030 0.666730 0.483600 -0.639805
C3    C     C_R   0.497934 0.258282 0.494283 0.917308
C4    C     C_R   0.493690 0.737306 0.475466 0.873131
Zn1   Zn    Zn3+2 0.646940 0.477980 0.478080 0.982547
Zn2   Zn    Zn3+2 0.353060 0.522020 0.521920 0.983374
H1    H     H_    0.069204 0.137478 0.617851 0.161855
H2    H     H_    0.861419 0.840874 0.220441 0.208043
C5    C     C_R   0.655079 0.106879 0.301310 0.365925
C6    C     C_R   0.231798 0.915890 0.429200 0.380897
C7    C     C_R   0.765206 0.030996 0.253309 -0.220425
C8    C     C_R   0.126125 0.985077 0.489549 -0.247444
C9    C     C_R   0.783552 0.899692 0.267211 -0.194979
C10   C     C_R   0.148881 0.087823 0.566219 -0.234074
C11   C     C_R   0.690628 0.843274 0.325844 -0.150588
C12   C     C_R   0.271822 0.131717 0.570248 -0.152953
C13   C     C_R   0.586582 0.919037 0.385391 0.059124
C14   C     C_R   0.374357 0.071420 0.497542 0.042903
C15   C     C_R   0.578949 0.052501 0.386105 -0.028747
C16   C     C_R   0.361028 0.950990 0.450182 -0.003129
C17   C     C_R   0.480175 0.868431 0.431935 -0.164097
C18   C     C_R   0.486937 0.125199 0.464326 -0.180435
H3    H     H_    0.827679 0.071281 0.192485 0.187104
H4    H     H_    0.026635 0.959926 0.477382 0.176261
H5    H     H_    0.697074 0.741488 0.314938 0.170558
H6    H     H_    0.283874 0.211262 0.631537 0.170949
H7    H     H_    0.399176 0.615456 0.891110 0.176859
H8    H     H_    0.610239 0.571033 0.113687 0.163757
C19   C     C_2   0.412506 0.540806 0.134048 0.124516
C20   C     C_2   0.590340 0.513113 0.865827 0.046353
C21   C     C_2   0.511436 0.567394 0.068629 -0.103343
C22   C     C_2   0.496111 0.574615 0.934137 -0.187889
H9    H     H_    0.893509 0.561330 0.593875 0.158212
H10   H     H_    0.120509 0.398113 0.446763 0.137025
N1    N     N_2   0.157300 0.551390 0.551120 -0.013029
N2    N     N_2   0.842700 0.448610 0.448880 -0.036104
C23   C     C_2   0.077297 0.477543 0.502311 -0.022894
C24   C     C_2   0.930576 0.497937 0.520001 -0.072255
N3    N     N_R   0.599010 0.222002 0.235784 0.215724
O9    O     O_R   0.469889 0.247219 0.213797 -0.458258
O10   O     O_R   0.672694 0.278037 0.167506 -0.411758
N4    N     N_R   0.205815 0.821697 0.336118 0.204136
O11   O     O_R   0.280109 0.801492 0.242397 -0.451296
O12   O     O_R   0.097283 0.770719 0.333194 -0.473565
N5    N     N_2   0.720336 0.462493 0.920316 -0.270007
H11   H     H_    0.760523 0.378126 0.879619 0.239020
C25   C     C_3   0.812963 0.553485 0.929203 -0.789155
H12   H     H_    0.909394 0.508917 0.977320 0.235405
H13   H     H_    0.773163 0.638504 0.984057 0.245431
H14   H     H_    0.831573 0.583754 0.834228 0.244468
N6    N     N_2   0.279849 0.542414 0.077649 -0.308193
H15   H     H_    0.206324 0.579603 0.134642 0.278238
C26   C     C_3   0.254164 0.423159 0.021278 -0.751255
H16   H     H_    0.156600 0.438723 0.964723 0.216452
H17   H     H_    0.249248 0.352245 0.095107 0.275690
H18   H     H_    0.332775 0.385305 0.958376 0.268666
N7    N     N_2   0.885244 0.362943 0.356788 -0.200171
H19   H     H_    0.957839 0.288222 0.386715 0.202561
C27   C     C_3   0.907470 0.421688 0.241038 -0.621542
H20   H     H_    0.996031 0.471299 0.253161 0.204209
H21   H     H_    0.818879 0.491646 0.209602 0.252993
H22   H     H_    0.924819 0.347396 0.167719 0.235325
N8    N     N_2   0.099013 0.657194 0.614099 -0.261089
H23   H     H_    0.071855 0.736126 0.558059 0.258622
C28   C     C_3   0.169749 0.683170 0.731135 -0.679827
H24   H     H_    0.106741 0.758043 0.782496 0.215102
H25   H     H_    0.263810 0.718491 0.714469 0.255159
H26   H     H_    0.190071 0.595871 0.789504 0.245391

loop_
_geom_bond_atom_site_label_1
_geom_bond_atom_site_label_2
_geom_bond_distance
_ccdc_geom_bond_type
C26   H18   1.111227 S    
O5    C3    1.300383 A    
H9    C24   1.084518 S    
C2    C20   1.450024 S    
H2    C9    1.081644 S    
C1    C19   1.453925 S    
C4    C17   1.458616 S    
C13   C15   1.408029 A    
N1    C23   1.290704 D    
C28   H24   1.110009 S    
C14   C16   1.391349 A    
N3    O9    1.300429 A    
N7    C27   1.446736 S    
O6    C4    1.294359 A    
O7    Zn2   1.983049 S    
C27   H22   1.109984 S    
C7    H3    1.082694 S    
C25   H12   1.109421 S    
C25   H13   1.111072 S    
N4    O11   1.301014 A    
N1    N8    1.380493 S    
H1    C10   1.082671 S    
N6    H15   1.031216 S    
N3    O10   1.300989 A    
C19   N6    1.429106 S    
N5    H11   1.031559 S    
C3    C18   1.464318 S    
C15   C18   1.434693 A    
C20   C22   1.336459 D    
O7    C3    1.288509 A    
C12   C14   1.419210 A    
C20   N5    1.427493 S    
N2    N7    1.381942 S    
O2    C2    1.294878 A    
O3    Zn2   1.942929 S    
O8    C4    1.295173 A    
C26   H17   1.110276 S    
O1    C1    1.294700 A    
O4    C2    1.287184 A    
C16   C17   1.406276 A    
C7    C9    1.387201 A    
C8    C10   1.392841 A    
C14   C18   1.427748 A    
C6    C8    1.402267 A    
N5    C25   1.447411 S    
C9    C11   1.389588 A    
C13   C17   1.408837 A    
C26   H16   1.109575 S    
O2    Zn2   1.929446 S    
C28   H26   1.109687 S    
C10   C12   1.397093 A    
N6    C26   1.446343 S    
O1    Zn1   1.929444 S    
C28   H25   1.108177 S    
C21   C22   1.438883 S    
H7    C22   1.081707 S    
C27   H20   1.109411 S    
C5    C15   1.424349 A    
O3    C1    1.289880 A    
N8    H23   1.027887 S    
C11   C13   1.415639 A    
C6    C16   1.419672 A    
C6    N4    1.440327 S    
C19   C21   1.338780 D    
N7    H19   1.031727 S    
C8    H4    1.082543 S    
C25   H14   1.111667 S    
N4    O12   1.300112 A    
N8    C28   1.438364 S    
H8    C21   1.083824 S    
O6    Zn2   1.983943 S    
O5    Zn1   1.983941 S    
C5    C7    1.403159 A    
C23   C24   1.500356 S    
O8    Zn1   1.983050 S    
Zn1   N2    2.014867 S    
C12   H6    1.078247 S    
C11   H5    1.078392 S    
O4    Zn1   1.942930 S    
C5    N3    1.434630 S    
N2    C24   1.293983 D    
Zn2   N1    2.014869 S    
C27   H21   1.107510 S    
H10   C23   1.082547 S    
