data_mof_unit_56236.cif
_audit_creation_date              2012-12-10T17:35:36-0500
_audit_creation_method            fapswitch 2.2
_symmetry_space_group_name_H-M    P1
_symmetry_Int_Tables_number       1
_space_group_crystal_system       triclinic
_cell_length_a                    10.74199
_cell_length_b                    12.356055
_cell_length_c                    13.006377
_cell_angle_alpha                 116.515892
_cell_angle_beta                  76.666928
_cell_angle_gamma                 101.839122
_cell_volume                      1492.69908803

loop_
_atom_site_label
_atom_site_type_symbol
_atom_type_description
_atom_site_fract_x
_atom_site_fract_y
_atom_site_fract_z
_atom_type_partial_charge
C1    C     C_R   0.509072 0.854661 0.284826 0.760239
C2    C     C_3   0.123498 0.994785 0.493548 0.112742
C3    C     C_3   0.058035 0.073759 0.617222 -0.394150
C4    C     C_3   0.052493 0.863202 0.452059 -0.390076
C5    C     C_R   0.347953 0.267204 0.037300 0.176115
C6    C     C_R   0.455714 0.226396 0.839030 -0.095248
C7    C     C_R   0.556065 0.811677 0.068048 0.090717
C8    C     C_R   0.552808 0.727106 0.951916 -0.143782
C9    C     C_R   0.514908 0.605268 0.923491 -0.239085
C10   C     C_R   0.470895 0.562102 0.010131 0.095334
C11   C     C_R   0.446422 0.647551 0.127084 0.071595
C12   C     C_R   0.740825 0.999065 0.497299 0.740839
C13   C     C_R   0.444993 0.435848 0.982321 0.046879
C14   C     C_R   0.374175 0.394471 0.067092 0.136938
C15   C     C_R   0.328686 0.481590 0.177438 -0.248235
C16   C     C_R   0.363527 0.605420 0.206586 -0.198190
C17   C     C_R   0.490993 0.350287 0.871895 -0.268241
C18   C     C_R   0.386726 0.184561 0.922090 -0.239201
C19   C     C_R   0.502091 0.771908 0.159046 -0.170595
C20   C     C_R   0.719439 0.354707 0.335607 0.062934
C21   C     C_R   0.320647 0.755526 0.642689 0.058565
C22   C     C_R   0.280189 0.657163 0.672600 -0.264487
C23   C     C_R   0.481238 0.144810 0.714748 0.815191
C24   C     C_R   0.348151 0.555830 0.619403 -0.198384
C25   C     C_R   0.458790 0.551627 0.535325 0.004423
C26   C     C_R   0.495708 0.654791 0.507185 0.295509
C27   C     C_R   0.533439 0.449199 0.477453 -0.079635
C28   C     C_R   0.645708 0.454609 0.395837 0.144417
C29   C     C_R   0.680971 0.558992 0.374516 -0.289505
C30   C     C_R   0.604991 0.652743 0.424039 -0.206527
C31   C     C_R   0.503317 0.342371 0.498701 0.001316
C32   C     C_R   0.674482 0.248394 0.353259 -0.007674
C33   C     C_R   0.260706 0.997251 0.496480 0.766157
C34   C     C_3   0.971779 0.048985 0.401260 0.295181
C35   C     C_3   0.114176 0.046525 0.407439 -0.378337
C36   C     C_3   0.913949 0.071374 0.618250 -0.402150
C37   C     C_3   0.908163 0.866048 0.457829 -0.425933
C38   C     C_3   0.880848 0.999080 0.492702 0.112954
Cu1   Cu    Cu3+1 0.529690 0.098270 0.475420 0.907145
Cu2   Cu    Cu3+1 0.470310 0.901730 0.524580 0.908133
H1    H     H_    0.062566 0.819676 0.507965 0.183970
H2    H     H_    0.857055 0.026110 0.674560 0.168224
H3    H     H_    0.068477 0.038295 0.679519 0.162712
H4    H     H_    0.361508 0.087520 0.896636 0.146869
H5    H     H_    0.266153 0.455790 0.242883 0.155840
H6    H     H_    0.555340 0.378482 0.808979 0.158785
H7    H     H_    0.516363 0.546860 0.831993 0.140920
H8    H     H_    0.583777 0.751977 0.879495 0.138256
H9    H     H_    0.319177 0.666868 0.290602 0.176209
H10   H     H_    0.721693 0.167388 0.301144 0.117546
H11   H     H_    0.766952 0.569865 0.316733 0.176368
H12   H     H_    0.423055 0.333526 0.562698 0.128625
H13   H     H_    0.267004 0.833431 0.684667 0.122275
H14   H     H_    0.312158 0.482457 0.645810 0.135561
H15   H     H_    0.195548 0.659419 0.737288 0.142300
H16   H     H_    0.635946 0.722097 0.393385 0.206823
H17   H     H_    0.167231 0.991355 0.320718 0.150980
H18   H     H_    0.167735 0.139586 0.434169 0.166203
H19   H     H_    0.885054 0.163899 0.662999 0.146645
H20   H     H_    0.106106 0.168878 0.647883 0.150173
H21   H     H_    0.852383 0.832204 0.523406 0.195308
H22   H     H_    0.875208 0.799875 0.374772 0.139222
H23   H     H_    0.095352 0.806319 0.361395 0.152741
N1    N     N_R   0.574690 0.246280 0.438200 -0.183756
N2    N     N_R   0.426100 0.754320 0.561190 -0.204276
O1    O     O_R   0.537340 0.972510 0.318130 -0.588194
O2    O     O_R   0.487200 0.806530 0.359650 -0.592916
O3    O     O_R   0.707380 0.082980 0.479220 -0.586895
O4    O     O_R   0.657240 0.917000 0.520740 -0.596985
O5    O     O_R   0.512800 0.193470 0.640350 -0.580963
O6    O     O_R   0.462660 0.027490 0.681870 -0.581207
O7    O     O_R   0.342760 0.083000 0.479260 -0.591044
O8    O     O_R   0.292620 0.917020 0.520780 -0.598222
C39   C     C_3   0.959521 0.182249 0.419109 -0.349443
C40   C     C_3   0.960962 0.288292 0.540484 -0.375952
C41   C     C_3   0.986785 0.411566 0.534007 -0.885597
H24   H     H_    0.080844 0.419861 0.478836 0.257723
H25   H     H_    0.908593 0.422926 0.498158 0.258161
H26   H     H_    0.989674 0.485684 0.622767 0.246570
H27   H     H_    0.865008 0.285792 0.594554 0.235854
H28   H     H_    0.037173 0.284185 0.582636 0.221161
H29   H     H_    0.040434 0.207325 0.359864 0.200655
H30   H     H_    0.873481 0.182253 0.387943 0.209290
C42   C     C_3   0.277104 0.216080 0.124034 -0.446157
C43   C     C_3   0.361355 0.233750 0.211636 -0.817356
H31   H     H_    0.392107 0.331543 0.262437 0.258800
H32   H     H_    0.306432 0.194745 0.273203 0.234816
H33   H     H_    0.448252 0.186080 0.165620 0.251498
H34   H     H_    0.186081 0.257230 0.169558 0.192728
H35   H     H_    0.248991 0.116864 0.077499 0.201128
C44   C     C_3   0.617378 0.941890 0.093136 -0.373601
C45   C     C_3   0.675036 0.967978 0.985398 -0.401048
C46   C     C_3   0.740412 0.097202 0.019897 -0.856648
H36   H     H_    0.670122 0.162060 0.078105 0.270790
H37   H     H_    0.821934 0.110227 0.064983 0.257782
H38   H     H_    0.778064 0.114576 0.940947 0.243435
H39   H     H_    0.748538 0.905581 0.928359 0.222761
H40   H     H_    0.597400 0.955954 0.936198 0.227502
H41   H     H_    0.543000 0.004462 0.146046 0.216779
H42   H     H_    0.696519 0.962305 0.143410 0.208493
C47   C     C_3   0.942198 0.958787 0.274724 -0.420561
C48   C     C_3   0.006812 0.997463 0.176326 -0.925235
H43   H     H_    0.966044 0.076792 0.184174 0.237750
H44   H     H_    0.111956 0.018715 0.175792 0.259715
H45   H     H_    0.989479 0.921432 0.091409 0.252861
H46   H     H_    0.974214 0.868945 0.248092 0.207410
H47   H     H_    0.836829 0.943073 0.273751 0.191416
C49   C     C_3   0.852112 0.362603 0.263099 -0.418919
C50   C     C_3   0.851701 0.376763 0.151594 -0.841111
H48   H     H_    0.752465 0.366667 0.134348 0.266309
H49   H     H_    0.900778 0.467358 0.157976 0.231292
H50   H     H_    0.907640 0.308960 0.075814 0.245600
H51   H     H_    0.914622 0.440704 0.318250 0.199879
H52   H     H_    0.899669 0.280745 0.238619 0.181482

loop_
_geom_bond_atom_site_label_1
_geom_bond_atom_site_label_2
_ccdc_geom_bond_type
C2    C35   S    
C47   H47   S    
C12   O4    A    
C47   C48   S    
Cu2   O6    S    
Cu1   O3    S    
C36   H2    S    
C41   H26   S    
C39   H30   S    
C36   H19   S    
C37   H22   S    
C45   H40   S    
C7    C8    A    
C43   H31   S    
Cu2   O8    S    
Cu1   N1    S    
C12   O3    A    
C4    H23   S    
C11   C19   A    
C46   H36   S    
C35   H18   S    
C28   C29   A    
C41   H25   S    
C50   H49   S    
C29   H11   S    
C4    H1    S    
C24   H14   S    
C15   C16   A    
C49   C50   S    
C48   H45   S    
C34   C35   S    
C49   H52   S    
C33   O7    A    
C42   C43   S    
C8    C9    A    
Cu2   O2    S    
Cu1   O7    S    
C44   H42   S    
C29   C30   A    
C9    C10   A    
C31   H12   S    
C44   C45   S    
C3    H20   S    
C46   H37   S    
C21   C22   A    
C23   O5    A    
C42   H35   S    
C39   H29   S    
C3    H3    S    
C20   C32   A    
C45   H39   S    
C43   H32   S    
C6    C18   A    
C1    C19   S    
C34   C47   S    
C39   C40   S    
C27   C31   A    
C23   O6    A    
C24   C25   A    
C32   N1    A    
Cu2   O4    S    
C50   H50   S    
Cu1   Cu2   S    
C5    C42   S    
C40   H28   S    
C5    C18   A    
C20   C28   A    
C25   C26   A    
C30   H16   S    
C49   H51   S    
C2    C4    S    
C40   C41   S    
C8    H8    S    
C37   C38   S    
C18   H4    S    
C11   C16   A    
C7    C44   S    
C1    O1    A    
C41   H24   S    
C48   H44   S    
C32   H10   S    
C5    C14   A    
C34   C39   S    
C2    C33   S    
C33   O8    A    
C9    H7    S    
C46   H38   S    
C7    C19   A    
Cu2   N2    S    
Cu1   O1    S    
C22   C24   A    
C42   H34   S    
C15   H5    S    
C16   H9    S    
C40   H27   S    
C43   H33   S    
C47   H46   S    
C6    C17   A    
C21   N2    A    
C34   C38   S    
C26   N2    A    
C31   N1    A    
C10   C13   A    
C37   H21   S    
C17   H6    S    
C26   C30   A    
C22   H15   S    
C25   C27   A    
C13   C17   A    
C35   H17   S    
C36   C38   S    
C2    C3    S    
C50   H48   S    
C21   H13   S    
C3    C36   S    
C6    C23   S    
C45   C46   S    
C1    O2    A    
Cu1   O5    S    
C12   C38   S    
C48   H43   S    
C10   C11   A    
C4    C37   S    
C27   C28   A    
C14   C15   A    
C44   H41   S    
C13   C14   A    
C20   C49   S    
