data_mof_unit_28124.cif
_audit_creation_date              2012-10-26T20:34:20-0400
_audit_creation_method            fapswitch 2.2
_symmetry_space_group_name_H-M    P1
_symmetry_Int_Tables_number       1
_space_group_crystal_system       triclinic
_cell_length_a                    15.991471
_cell_length_b                    14.763632
_cell_length_c                    10.634944
_cell_angle_alpha                 90.330962
_cell_angle_beta                  89.92062
_cell_angle_gamma                 89.800496
_cell_volume                      2510.76766151

loop_
_atom_site_label
_atom_site_type_symbol
_atom_type_description
_atom_site_fract_x
_atom_site_fract_y
_atom_site_fract_z
_atom_type_partial_charge
C1    C     C_R   0.340892 0.500148 0.499755 0.545999
C2    C     C_R   0.087296 0.500494 0.500253 -0.047275
C3    C     C_R   0.500279 0.499723 0.258812 0.573380
C4    C     C_R   0.499917 0.500281 0.741179 0.572827
C5    C     C_1   0.251901 0.500513 0.499306 -0.004147
C6    C     C_1   0.748036 0.499589 0.500876 -0.007285
C7    C     C_R   0.550981 0.952259 0.583492 0.212319
C8    C     C_R   0.454901 0.047455 0.405512 0.230324
C9    C     C_R   0.455751 0.951179 0.405685 0.232471
C10   C     C_R   0.549017 0.048570 0.585178 0.215943
C11   C     C_R   0.502333 0.902828 0.496338 -0.082836
C12   C     C_R   0.659087 0.499867 0.500285 0.544596
C13   C     C_R   0.501667 0.097112 0.495638 -0.083393
C14   C     C_3   0.428182 0.538327 0.042704 -0.166218
C15   C     C_3   0.572254 0.461794 0.957294 -0.161945
C16   C     C_3   0.494107 0.587005 0.960186 -0.149607
C17   C     C_3   0.506293 0.413074 0.039720 -0.144670
C18   C     C_3   0.435765 0.453285 0.958924 0.270815
C19   C     C_3   0.564680 0.546845 0.041039 0.269216
C20   C     C_3   0.500450 0.500956 0.877465 0.020985
C21   C     C_3   0.499980 0.499084 0.122505 0.021582
C22   C     C_1   0.500830 0.802617 0.498987 0.195319
C23   C     C_1   0.822988 0.499527 0.501064 0.020233
C24   C     C_1   0.500475 0.197351 0.498316 0.182854
C25   C     C_3   0.552064 0.108273 0.782623 0.013007
C26   C     C_3   0.602112 0.168414 0.871306 -0.365158
C27   C     C_3   0.454768 0.877696 0.217033 0.002753
C28   C     C_3   0.403203 0.816447 0.132037 -0.351675
C29   C     C_3   0.446862 0.131201 0.224476 -0.002716
C30   C     C_3   0.391848 0.134060 0.107915 -0.372912
C31   C     C_3   0.677829 0.890289 0.626066 0.005312
C32   C     C_3   0.724305 0.827666 0.715302 -0.373497
C33   C     C_3   0.316094 0.372978 0.001457 -0.006001
C34   C     C_1   0.176924 0.500693 0.499250 0.021143
C35   C     C_3   0.251364 0.309606 0.944890 -0.377530
C36   C     C_3   0.678654 0.636600 0.999070 -0.005452
C37   C     C_3   0.751787 0.686897 0.057757 -0.375908
C38   C     C_3   0.096685 0.693564 0.628844 0.004238
C39   C     C_3   0.148306 0.779875 0.629876 -0.358837
C40   C     C_3   0.902626 0.306364 0.372874 0.008457
C41   C     C_3   0.850513 0.220390 0.372765 -0.365631
C42   C     C_3   0.901082 0.695696 0.381912 0.012454
C43   C     C_3   0.841398 0.776091 0.384233 -0.382583
C44   C     C_3   0.099603 0.306327 0.620827 0.005000
C45   C     C_R   0.955466 0.582627 0.500549 0.218936
C46   C     C_3   0.156949 0.223937 0.619497 -0.358621
C47   C     C_R   0.044351 0.417633 0.500178 0.220454
C48   C     C_R   0.043260 0.582991 0.503986 0.220146
C49   C     C_R   0.956590 0.417280 0.496649 0.219846
C50   C     C_R   0.912580 0.499766 0.500197 -0.046469
Cu1   Cu    Cu3+1 0.500000 0.589220 0.500000 1.002165
Cu2   Cu    Cu3+1 0.500000 0.410780 0.500000 1.001132
H1    H     H_    0.369686 0.568517 0.080862 0.099975
H2    H     H_    0.511573 0.839224 0.245988 0.119522
H3    H     H_    0.474395 0.937686 0.161834 0.125098
H4    H     H_    0.346138 0.852702 0.100183 0.158879
H5    H     H_    0.440724 0.796420 0.048416 0.095624
H6    H     H_    0.384696 0.754418 0.183613 0.169322
H7    H     H_    0.505459 0.093733 0.199922 0.090895
H8    H     H_    0.463371 0.201918 0.250213 0.142373
H9    H     H_    0.332002 0.169108 0.129920 0.166120
H10   H     H_    0.423994 0.171178 0.031482 0.087362
H11   H     H_    0.378146 0.064133 0.075114 0.155658
H12   H     H_    0.630959 0.431940 0.919344 0.102973
H13   H     H_    0.713027 0.955007 0.619062 0.163049
H14   H     H_    0.676112 0.856863 0.531815 0.107946
H15   H     H_    0.691146 0.761868 0.722114 0.160327
H16   H     H_    0.788673 0.815151 0.679770 0.118122
H17   H     H_    0.728030 0.859030 0.810306 0.150323
H18   H     H_    0.282673 0.430961 0.046381 0.130967
H19   H     H_    0.351354 0.335003 0.074514 0.126829
H20   H     H_    0.282900 0.251050 0.898738 0.154690
H21   H     H_    0.209353 0.284184 0.019944 0.099834
H22   H     H_    0.213377 0.346310 0.874203 0.148788
H23   H     H_    0.489875 0.657360 0.924505 0.118838
H24   H     H_    0.639887 0.686663 0.947063 0.131503
H25   H     H_    0.704083 0.585249 0.931970 0.126784
H26   H     H_    0.792655 0.638707 0.109056 0.149229
H27   H     H_    0.789007 0.720348 0.983126 0.092236
H28   H     H_    0.728318 0.739325 0.124430 0.152800
H29   H     H_    0.130505 0.641716 0.685382 0.116930
H30   H     H_    0.035130 0.708526 0.673666 0.160857
H31   H     H_    0.115793 0.833538 0.575655 0.165073
H32   H     H_    0.157058 0.803782 0.728160 0.089678
H33   H     H_    0.210623 0.766725 0.587085 0.177869
H34   H     H_    0.510018 0.342409 0.074530 0.107697
H35   H     H_    0.963985 0.290873 0.327794 0.164099
H36   H     H_    0.868926 0.358214 0.316174 0.116224
H37   H     H_    0.788383 0.234104 0.415841 0.172269
H38   H     H_    0.841359 0.196186 0.274705 0.086344
H39   H     H_    0.882860 0.166706 0.427170 0.161246
H40   H     H_    0.873928 0.642927 0.318723 0.113433
H41   H     H_    0.962102 0.718388 0.342902 0.169778
H42   H     H_    0.865788 0.829903 0.447572 0.153381
H43   H     H_    0.834762 0.804047 0.288061 0.085790
H44   H     H_    0.778999 0.754203 0.418240 0.158779
H45   H     H_    0.540819 0.042274 0.829797 0.160004
H46   H     H_    0.038642 0.286437 0.662989 0.165423
H47   H     H_    0.129172 0.359413 0.680836 0.111440
H48   H     H_    0.218965 0.242424 0.580249 0.180116
H49   H     H_    0.165547 0.198674 0.716788 0.085290
H50   H     H_    0.129183 0.169224 0.561037 0.167741
H51   H     H_    0.490906 0.142249 0.764449 0.126251
H52   H     H_    0.611750 0.235983 0.828277 0.171323
H53   H     H_    0.568057 0.177351 0.961515 0.078293
H54   H     H_    0.663897 0.136929 0.890749 0.157779
N1    N     N_1   0.500000 0.276710 0.500000 -0.195246
N2    N     N_1   0.500000 0.723290 0.500000 -0.191181
O1    O     O_R   0.380310 0.575320 0.500020 -0.493524
O2    O     O_3   0.405671 0.904642 0.321447 -0.515052
O3    O     O_3   0.401200 0.091177 0.323596 -0.516882
O4    O     O_3   0.596608 0.906442 0.673468 -0.547599
O5    O     O_3   0.369371 0.403869 0.905178 -0.543077
O6    O     O_3   0.631768 0.595054 0.095052 -0.544367
O7    O     O_3   0.086021 0.664238 0.503356 -0.542471
O8    O     O_3   0.913832 0.336034 0.498094 -0.542266
O9    O     O_3   0.911387 0.663338 0.505576 -0.550000
O10   O     O_3   0.088246 0.336778 0.496424 -0.541828
O11   O     O_R   0.619690 0.424680 0.499980 -0.494136
O12   O     O_R   0.619690 0.575320 0.499980 -0.492998
O13   O     O_R   0.380310 0.424680 0.500020 -0.485056
O14   O     O_R   0.499980 0.575330 0.316850 -0.475636
O15   O     O_R   0.500020 0.424670 0.683150 -0.471687
O16   O     O_R   0.500020 0.575330 0.683150 -0.513324
O17   O     O_R   0.499980 0.424670 0.316850 -0.522406
O18   O     O_3   0.598011 0.095406 0.670432 -0.543979

loop_
_geom_bond_atom_site_label_1
_geom_bond_atom_site_label_2
_ccdc_geom_bond_type
C31   H14   S    
C41   H37   S    
C35   H22   S    
C8    C13   A    
C7    C10   A    
C16   H23   S    
C14   C18   S    
C36   O6    S    
C26   H54   S    
C28   H4    S    
C27   H2    S    
C47   C49   A    
C28   H5    S    
C7    C11   A    
C46   H50   S    
C1    C5    S    
C14   C21   S    
C36   C37   S    
C19   C21   S    
C39   H32   S    
C36   H25   S    
C6    C12   S    
C38   C39   S    
C33   C35   S    
Cu2   O15   S    
C27   H3    S    
C42   H41   S    
C43   H42   S    
C7    O4    S    
C4    O16   A    
C15   C17   S    
C36   H24   S    
C26   H52   S    
C12   O12   A    
C44   H46   S    
C47   O10   S    
C29   H7    S    
C27   O2    S    
C8    C9    A    
C43   H43   S    
C31   O4    S    
C18   C20   S    
C3    O14   A    
C32   H16   S    
C1    O1    A    
C2    C34   S    
C41   H38   S    
Cu1   O1    S    
C30   H11   S    
C38   H30   S    
Cu1   O16   S    
C26   H53   S    
C46   H49   S    
C44   C46   S    
C17   C18   S    
C15   C20   S    
C37   H28   S    
Cu1   Cu2   S    
Cu2   N1    S    
C8    O3    S    
C25   H51   S    
C23   C50   S    
C19   O6    S    
C2    C48   A    
C25   C26   S    
C17   C21   S    
C17   H34   S    
C13   C24   S    
C15   C19   S    
C25   O18   S    
C29   C30   S    
C12   O11   A    
C37   H27   S    
Cu2   O13   S    
Cu1   O12   S    
C31   C32   S    
C29   H8    S    
C44   O10   S    
C16   C20   S    
C5    C34   T    
C14   H1    S    
C43   H44   S    
C24   N1    T    
C9    C11   A    
C33   H18   S    
C32   H15   S    
C25   H45   S    
C40   C41   S    
C41   H39   S    
C35   H20   S    
Cu1   N2    S    
C48   O7    S    
C38   H29   S    
C14   C16   S    
C3    C21   S    
C42   C43   S    
C39   H33   S    
C40   H35   S    
C45   C48   A    
C45   O9    S    
C9    O2    S    
C31   H13   S    
C46   H48   S    
C35   H21   S    
C29   O3    S    
C10   C13   A    
Cu2   O17   S    
C3    O17   A    
C42   O9    S    
C32   H17   S    
C28   H6    S    
C2    C47   A    
C15   H12   S    
C37   H26   S    
C11   C22   S    
C33   O5    S    
C40   H36   S    
C30   H10   S    
C39   H31   S    
C38   O7    S    
C40   O8    S    
C45   C50   A    
C16   C19   S    
C22   N2    T    
C6    C23   T    
C44   H47   S    
C42   H40   S    
C1    O13   A    
C33   H19   S    
C4    C20   S    
Cu2   O11   S    
C49   O8    S    
C4    O15   A    
C49   C50   A    
C30   H9    S    
C27   C28   S    
Cu1   O14   S    
C18   O5    S    
C10   O18   S    
