data_mof_unit_41245.cif
_audit_creation_date              2012-12-11T17:47:28-0500
_audit_creation_method            fapswitch 2.2
_symmetry_space_group_name_H-M    P1
_symmetry_Int_Tables_number       1
_space_group_crystal_system       triclinic
_cell_length_a                    14.875263
_cell_length_b                    14.873121
_cell_length_c                    15.127451
_cell_angle_alpha                 110.465213
_cell_angle_beta                  108.986966
_cell_angle_gamma                 108.760912
_cell_volume                      2582.23379926

loop_
_atom_site_label
_atom_site_type_symbol
_atom_type_description
_atom_site_fract_x
_atom_site_fract_y
_atom_site_fract_z
_atom_type_partial_charge
C1    C     C_R   0.906364 0.193377 0.990933 -0.144887
C2    C     C_R   0.825810 0.956561 0.910673 -0.228798
C3    C     C_R   0.083353 0.063800 0.697290 -0.119460
C4    C     C_R   0.853322 0.977608 0.209240 -0.147159
C5    C     C_R   0.003206 0.001827 0.712888 -0.188499
C6    C     C_R   0.884730 0.965703 0.130270 -0.162994
C7    C     C_R   0.675612 0.333923 0.198049 -0.287955
C8    C     C_R   0.388617 0.683112 0.886109 -0.265724
C9    C     C_R   0.782024 0.399146 0.286626 0.581433
C10   C     C_R   0.302732 0.605045 0.780520 0.560850
C11   C     C_R   0.843904 0.348817 0.313283 -0.039856
C12   C     C_R   0.026931 0.752816 0.939284 -0.128561
C13   C     C_R   0.257601 0.640911 0.710956 -0.062027
C14   C     C_R   0.797928 0.233994 0.251489 -0.256891
C15   C     C_R   0.307098 0.753857 0.745462 -0.226259
C16   C     C_R   0.294940 0.805868 0.205523 -0.139553
C17   C     C_R   0.684624 0.240737 0.774949 -0.131807
C18   C     C_R   0.691721 0.169869 0.163610 -0.085220
C19   C     C_R   0.395919 0.830561 0.849672 -0.095981
C20   C     C_R   0.630455 0.219800 0.137076 -0.175862
C21   C     C_R   0.435254 0.795449 0.920594 -0.175746
C22   C     C_R   0.963285 0.416527 0.501902 -0.331822
C23   C     C_R   0.296163 0.870977 0.298173 0.071167
C24   C     C_R   0.146730 0.560878 0.512131 -0.307785
C25   C     C_R   0.059307 0.491541 0.600099 0.110546
C26   C     C_R   0.047942 0.489260 0.414703 0.112227
C27   C     C_R   0.153724 0.562843 0.606755 0.080383
C28   C     C_R   0.955157 0.415681 0.409060 0.098490
C29   C     C_R   0.032074 0.006093 0.812660 0.120166
C30   C     C_R   0.812180 0.878324 0.022752 0.113217
C31   C     C_R   0.223029 0.120056 0.873836 -0.141945
C32   C     C_R   0.678189 0.815367 0.075357 -0.140526
C33   C     C_R   0.084404 0.969770 0.392211 -0.137824
C34   C     C_R   0.676022 0.212294 0.672791 0.052558
C35   C     C_R   0.774087 0.984616 0.483604 -0.127002
C36   C     C_R   0.186872 0.018315 0.401188 -0.156701
C37   C     C_R   0.687079 0.999483 0.487138 -0.127663
C38   C     C_R   0.277224 0.026379 0.478953 0.119763
C39   C     C_R   0.666579 0.076290 0.463173 0.110655
C40   C     C_R   0.224280 0.407400 0.973892 -0.112684
C41   C     C_R   0.785698 0.590912 0.090712 -0.131007
C42   C     C_R   0.265125 0.992238 0.552130 -0.195238
C43   C     C_R   0.731255 0.134598 0.431170 -0.188450
C44   C     C_R   0.162101 0.942513 0.541660 -0.112194
C45   C     C_R   0.325393 0.499779 0.048605 0.013092
C46   C     C_R   0.822280 0.124141 0.434378 -0.135361
C47   C     C_R   0.071548 0.930113 0.460893 -0.111556
C48   C     C_R   0.843794 0.049407 0.460722 -0.120747
C49   C     C_R   0.477479 0.135077 0.564967 -0.252113
C50   C     C_R   0.476605 0.023064 0.374320 -0.234809
C51   C     C_R   0.576090 0.148286 0.567367 0.069995
C52   C     C_R   0.379793 0.987254 0.378526 0.054643
C53   C     C_R   0.575060 0.092031 0.469131 0.015633
C54   C     C_R   0.378281 0.051803 0.472053 0.030562
C55   C     C_R   0.193321 0.121942 0.777147 -0.105808
C56   C     C_R   0.692344 0.498319 0.055658 0.052228
C57   C     C_R   0.750198 0.901770 0.181864 -0.096582
C58   C     C_R   0.839045 0.880046 0.937993 0.020995
C59   C     C_R   0.947562 0.955747 0.837162 0.022662
C60   C     C_R   0.142643 0.063355 0.892225 -0.148483
C61   C     C_R   0.708133 0.803380 0.995266 -0.159035
C62   C     C_R   0.900617 0.833958 0.905405 0.060844
C63   C     C_R   0.897759 0.010517 0.882788 0.055606
C64   C     C_R   0.057619 0.590945 0.314047 -0.057898
C65   C     C_R   0.998352 0.407326 0.698255 -0.123139
C66   C     C_3   0.491631 0.392692 0.018234 -0.192821
C67   C     C_R   0.039018 0.496589 0.320847 0.041469
C68   C     C_3   0.535417 0.602846 0.116890 -0.170615
C69   C     C_3   0.433429 0.443187 0.964849 -0.130420
C70   C     C_3   0.594630 0.552438 0.170739 -0.143097
C71   C     C_3   0.426637 0.499407 0.067083 0.202066
C72   C     C_3   0.599950 0.496462 0.067804 0.194890
C73   C     C_3   0.483331 0.448565 0.120783 -0.175426
C74   C     C_3   0.542092 0.546310 0.014228 -0.162876
C75   C     C_R   0.315105 0.592284 0.065558 -0.111739
C76   C     C_R   0.695791 0.407241 0.997422 -0.134022
C77   C     C_R   0.974265 0.406288 0.218161 -0.128748
C78   C     C_R   0.050297 0.497971 0.692950 0.129546
C79   C     C_R   0.085675 0.591026 0.787243 -0.151847
C80   C     C_R   0.207215 0.803754 0.299332 -0.152500
C81   C     C_R   0.780391 0.250470 0.687713 -0.128854
C82   C     C_R   0.997400 0.196208 0.900517 -0.144545
C83   C     C_R   0.931856 0.749410 0.027670 -0.142409
C84   C     C_R   0.935082 0.129121 0.925157 0.065581
C85   C     C_R   0.948538 0.778825 0.954212 0.056798
C86   C     C_3   0.796263 0.544407 0.420058 0.250385
C87   C     C_3   0.860233 0.669409 0.491471 -0.905171
C88   C     C_3   0.291349 0.440565 0.686058 0.242771
C89   C     C_R   0.934933 0.859075 0.836819 -0.244422
C90   C     C_3   0.217991 0.316686 0.630480 -0.902804
H1    H     H_    0.847069 0.165436 0.015118 0.098091
H2    H     H_    0.417309 0.655800 0.941497 0.138408
H3    H     H_    0.845411 0.194658 0.269574 0.139329
H4    H     H_    0.274044 0.783019 0.693419 0.134670
H5    H     H_    0.657154 0.081545 0.115824 0.120923
H6    H     H_    0.432206 0.917605 0.876592 0.110122
H7    H     H_    0.890365 0.365077 0.499119 0.129529
H8    H     H_    0.217124 0.616063 0.514346 0.136071
H9    H     H_    0.918498 0.957048 0.651227 0.114794
H10   H     H_    0.964056 0.026538 0.151821 0.115826
H11   H     H_    0.456527 0.408776 0.164228 0.110820
H12   H     H_    0.062644 0.766122 0.890472 0.094536
H13   H     H_    0.566261 0.581773 0.966889 0.111057
H14   H     H_    0.341314 0.832520 0.168953 0.089548
H15   H     H_    0.619234 0.223800 0.793879 0.091276
H16   H     H_    0.166100 0.065997 0.969184 0.113381
H17   H     H_    0.649680 0.738221 0.912021 0.113116
H18   H     H_    0.991423 0.889879 0.451619 0.107314
H19   H     H_    0.912888 0.039845 0.460742 0.102178
H20   H     H_    0.014230 0.958652 0.329137 0.123537
H21   H     H_    0.787134 0.922729 0.498361 0.100866
H22   H     H_    0.194460 0.043078 0.343462 0.113289
H23   H     H_    0.060185 0.067976 0.623990 0.126553
H24   H     H_    0.635320 0.950981 0.508027 0.111751
H25   H     H_    0.333531 0.996557 0.611757 0.114249
H26   H     H_    0.714773 0.192237 0.410076 0.122869
H27   H     H_    0.152042 0.911395 0.594639 0.127982
H28   H     H_    0.876776 0.174176 0.417179 0.114510
H29   H     H_    0.477085 0.182193 0.637857 0.124947
H30   H     H_    0.479650 0.980864 0.301935 0.124347
H31   H     H_    0.971463 0.817407 0.799683 0.127989
H32   H     H_    0.777408 0.989774 0.934828 0.128083
H33   H     H_    0.365967 0.398351 0.880095 0.131687
H34   H     H_    0.908739 0.046321 0.291186 0.105314
H35   H     H_    0.663816 0.597201 0.254569 0.127187
H36   H     H_    0.476108 0.306868 0.977561 0.101342
H37   H     H_    0.553049 0.689209 0.159953 0.102237
H38   H     H_    0.205318 0.322317 0.938733 0.115977
H39   H     H_    0.812372 0.674979 0.147960 0.108109
H40   H     H_    0.101387 0.675262 0.379937 0.096472
H41   H     H_    0.974694 0.323178 0.644564 0.114569
H42   H     H_    0.378783 0.677512 0.114875 0.089743
H43   H     H_    0.641235 0.322450 0.968957 0.093445
H44   H     H_    0.944299 0.320643 0.194781 0.112428
H45   H     H_    0.307920 0.164545 0.935662 0.108783
H46   H     H_    0.139421 0.675371 0.813829 0.105792
H47   H     H_    0.176071 0.824543 0.353445 0.136322
H48   H     H_    0.806503 0.252903 0.630539 0.120663
H49   H     H_    0.017137 0.173343 0.837225 0.130738
H50   H     H_    0.876367 0.754582 0.057376 0.123132
H51   H     H_    0.255378 0.168520 0.764211 0.110452
H52   H     H_    0.724687 0.910342 0.242116 0.128773
H53   H     H_    0.813395 0.508937 0.473364 0.091310
H54   H     H_    0.707598 0.517777 0.380038 0.083273
H55   H     H_    0.844136 0.707956 0.441397 0.244272
H56   H     H_    0.597892 0.760029 0.054795 0.108589
H57   H     H_    0.835395 0.695890 0.553523 0.211567
H58   H     H_    0.949085 0.697911 0.533243 0.258221
H59   H     H_    0.376644 0.462373 0.737766 0.089851
H60   H     H_    0.287974 0.461381 0.621416 0.089799
H61   H     H_    0.133197 0.292853 0.575161 0.251079
H62   H     H_    0.248168 0.272168 0.582518 0.217777
H63   H     H_    0.217376 0.292213 0.691764 0.249310
H64   H     H_    0.548249 0.170218 0.068763 0.120792
H65   H     H_    0.501122 0.855659 0.002658 0.131945
H66   H     H_    0.628200 0.371957 0.176671 0.143812
N1    N     N_R   0.947560 0.293820 0.002910 -0.042613
N2    N     N_R   0.789450 0.443190 0.997090 -0.039039
N3    N     N_R   0.945970 0.443180 0.152110 -0.038109
N4    N     N_R   0.054030 0.556820 0.847890 -0.041687
N5    N     N_R   0.151530 0.706170 0.208880 -0.047149
N6    N     N_R   0.848470 0.293830 0.791120 -0.044335
N7    N     N_R   0.004980 0.293810 0.946140 -0.046262
N8    N     N_R   0.995020 0.706190 0.053860 -0.041904
N9    N     N_R   0.052440 0.706180 0.997090 -0.041726
N10   N     N_R   0.208960 0.706170 0.152110 -0.042424
N11   N     N_R   0.791040 0.293830 0.847890 -0.040630
N12   N     N_R   0.154330 0.443160 0.946140 -0.031649
N13   N     N_R   0.845670 0.556840 0.053860 -0.043011
N14   N     N_R   0.002190 0.556820 0.208880 -0.042078
N15   N     N_R   0.997810 0.443180 0.791120 -0.047147
N16   N     N_R   0.210550 0.556810 0.002910 -0.032309
Ni1   Ni    Ni4+2 0.869690 0.369690 0.000000 0.218143
Ni2   Ni    Ni4+2 0.130310 0.630310 0.000000 0.219182
Ni3   Ni    Ni4+2 0.001390 0.369680 0.869810 0.225480
Ni4   Ni    Ni4+2 0.998610 0.630320 0.130190 0.222263
O1    O     O_3   0.828778 0.512612 0.341729 -0.638274
O2    O     O_3   0.255005 0.495199 0.751112 -0.640735

loop_
_geom_bond_atom_site_label_1
_geom_bond_atom_site_label_2
_ccdc_geom_bond_type
C58   C62   A    
N12   Ni3   S    
C83   N8    A    
C56   C76   A    
N3    N14   A    
C45   C71   S    
C88   H59   S    
C14   C18   A    
C67   C77   A    
C24   C27   A    
N7    Ni3   S    
C15   H4    S    
C86   H54   S    
N14   Ni4   S    
C26   C28   A    
C2    C63   A    
C1    C84   A    
C15   C19   A    
C79   H46   S    
C76   N2    A    
C34   C51   S    
C87   H57   S    
C12   C85   A    
C65   N15   A    
C50   H30   S    
C26   C67   S    
C11   C28   S    
N8    N9    A    
C19   C21   A    
C24   C26   A    
C32   C61   A    
C38   C42   A    
C11   C14   A    
C66   C69   S    
C32   H56   S    
C82   N7    A    
C69   H33   S    
C68   C74   S    
C80   H47   S    
C40   H38   S    
C62   C89   A    
C33   C36   A    
C46   H28   S    
C59   C89   A    
C69   C71   S    
C3    C55   A    
C16   H14   S    
C81   N6    A    
C66   C72   S    
C7    H66   S    
C5    H9    S    
N16   Ni2   S    
C49   C51   A    
C22   C25   A    
C4    C57   A    
C36   H22   S    
C50   C52   A    
C8    H2    S    
C34   C81   A    
C23   C80   A    
N1    N7    A    
C14   H3    S    
N5    N10   A    
C44   C47   A    
N11   Ni1   S    
C73   H11   S    
C48   H19   S    
C1    H1    S    
C22   H7    S    
C22   C28   A    
C89   H31   S    
C18   H5    S    
C40   C45   A    
C42   C44   A    
C32   C57   A    
C35   C48   A    
C83   H50   S    
C65   H41   S    
C52   C54   A    
C86   H53   S    
C5    C29   A    
C2    H32   S    
C81   H48   S    
C62   C85   S    
C46   C48   A    
N10   Ni2   S    
C50   C53   A    
C87   H58   S    
C25   C78   S    
C10   O2    S    
C64   C67   A    
C29   C59   S    
C72   C74   S    
C17   N11   A    
C16   N10   A    
C12   N9    A    
C71   C73   S    
N5    Ni4   S    
C78   C79   A    
C39   C43   A    
N6    Ni3   S    
C56   C72   S    
N9    Ni2   S    
C66   C73   S    
C41   N13   A    
C86   O1    S    
C66   H36   S    
C51   C53   A    
C6    H10   S    
C31   C60   A    
C41   C56   A    
C12   H12   S    
C82   H49   S    
C17   H15   S    
C43   H26   S    
N2    Ni1   S    
C38   C54   S    
C29   C60   A    
C70   C73   S    
C8    C21   A    
C21   H65   S    
C69   C74   S    
C90   H63   S    
C9    C11   A    
C68   H37   S    
C20   H64   S    
C77   N3    A    
N4    N15   A    
C57   H52   S    
C70   H35   S    
C90   H62   S    
C83   C85   A    
C4    H34   S    
C88   C90   S    
C7    C20   A    
C16   C23   A    
C82   C84   A    
C13   C15   A    
C3    H23   S    
C33   C47   A    
C24   H8    S    
C4    C6    A    
C77   H44   S    
C79   N4    A    
C35   H21   S    
C75   H42   S    
C35   C37   A    
C7    C9    A    
N4    Ni2   S    
C65   C78   A    
C87   H55   S    
C6    C30   A    
C86   C87   S    
C88   H60   S    
C55   H51   S    
C64   H40   S    
C90   H61   S    
C3    C5    A    
C10   C13   A    
C76   H43   S    
C2    C58   A    
N2    N13   A    
C88   O2    S    
C37   H24   S    
C60   H16   S    
C25   C27   A    
C49   H29   S    
C59   C63   A    
C63   C84   S    
C45   C75   A    
C1    N1    A    
C37   C39   A    
C41   H39   S    
C23   C52   S    
C39   C53   S    
N15   Ni3   S    
C44   H27   S    
C68   C71   S    
C30   C58   S    
C36   C38   A    
N13   Ni4   S    
N8    Ni4   S    
C18   C20   A    
C64   N14   A    
C61   H17   S    
C43   C46   A    
C80   N5    A    
C40   N12   A    
C31   H45   S    
N3    Ni1   S    
N6    N11   A    
C42   H25   S    
N12   N16   A    
C8    C10   A    
C47   H18   S    
C17   C34   A    
C30   C61   A    
C75   N16   A    
C68   C70   S    
C13   C27   S    
C70   C72   S    
C33   H20   S    
C31   C55   A    
C19   H6    S    
C49   C54   A    
C9    O1    S    
N1    Ni1   S    
C74   H13   S    
