data_mof_unit_68375.cif
_audit_creation_date              2012-12-11T17:16:00-0500
_audit_creation_method            fapswitch 2.2
_symmetry_space_group_name_H-M    P1
_symmetry_Int_Tables_number       1
_space_group_crystal_system       triclinic
_cell_length_a                    14.90799
_cell_length_b                    7.264963
_cell_length_c                    13.39084
_cell_angle_alpha                 89.999901
_cell_angle_beta                  99.099346
_cell_angle_gamma                 90.000274
_cell_volume                      1432.05701827

loop_
_atom_site_label
_atom_site_type_symbol
_atom_type_description
_atom_site_fract_x
_atom_site_fract_y
_atom_site_fract_z
_atom_type_partial_charge
O1    O     O_R   0.398210 0.494340 0.401550 -0.536175
O2    O     O_R   0.601790 0.994340 0.598450 -0.536176
O3    O     O_R   0.586310 0.821730 0.403360 -0.542701
O4    O     O_R   0.413690 0.321730 0.596640 -0.542701
C1    C     C_R   0.618779 0.655803 0.386510 0.670224
C2    C     C_R   0.381222 0.155803 0.613492 0.670219
O5    O     O_R   0.397970 0.823900 0.389580 -0.538517
O6    O     O_R   0.602030 0.323900 0.610420 -0.538518
O7    O     O_R   0.412100 0.996500 0.584560 -0.540865
O8    O     O_R   0.587900 0.496500 0.415440 -0.540864
C3    C     C_R   0.363654 0.655754 0.364762 0.706624
C4    C     C_R   0.636345 0.155754 0.635238 0.706631
O9    O     O_3   0.504860 0.661550 0.563990 -0.382198
O10   O     O_3   0.495140 0.161550 0.436010 -0.382199
V1    V     V_3+5 0.499100 0.935510 0.488130 1.358878
V2    V     V_3+5 0.500900 0.435510 0.511870 1.358879
C5    C     C_1   0.719347 0.146655 0.712767 -0.218387
C6    C     C_1   0.280651 0.646656 0.287234 -0.218379
C7    C     C_1   0.786690 0.135912 0.779474 -0.165910
C8    C     C_1   0.213309 0.635913 0.220529 -0.165903
C9    C     C_3   0.258092 0.263205 0.846440 -0.118099
C10   C     C_3   0.741909 0.763203 0.153562 -0.118102
H1    H     H_    0.230138 0.404353 0.832191 0.091678
H2    H     H_    0.769866 0.904350 0.167810 0.091682
C11   C     C_3   0.337901 0.253887 0.781875 -0.053855
C12   C     C_3   0.662102 0.753886 0.218126 -0.053847
H3    H     H_    0.350664 0.397887 0.759007 0.111466
H4    H     H_    0.649341 0.897887 0.240995 0.111462
H5    H     H_    0.230638 0.384460 0.615918 0.135482
H6    H     H_    0.769368 0.884457 0.384084 0.135482
C13   C     C_3   0.137849 0.209014 0.691478 -0.064193
C14   C     C_3   0.862153 0.709008 0.308523 -0.064185
C15   C     C_3   0.215837 0.938089 0.781623 -0.366494
C16   C     C_3   0.784160 0.438086 0.218376 -0.366505
C17   C     C_3   0.177694 0.134524 0.801133 0.037611
C18   C     C_3   0.822307 0.634520 0.198867 0.037601
H7    H     H_    0.158847 0.845130 0.750498 0.139812
H8    H     H_    0.841148 0.345125 0.249499 0.139816
H9    H     H_    0.249809 0.870098 0.850910 0.138155
H10   H     H_    0.750187 0.370101 0.149089 0.138157
C19   C     C_3   0.307157 0.146675 0.681270 0.058925
C20   C     C_3   0.692844 0.646673 0.318732 0.058925
C21   C     C_3   0.217369 0.236067 0.628022 -0.387402
C22   C     C_3   0.782635 0.736063 0.371980 -0.387394
C23   C     C_3   0.284260 0.944591 0.706383 -0.331956
C24   C     C_3   0.715739 0.444588 0.293618 -0.331951
H11   H     H_    0.346588 0.867444 0.738673 0.144459
H12   H     H_    0.653411 0.367440 0.261329 0.144459
H13   H     H_    0.254830 0.871801 0.635555 0.144525
H14   H     H_    0.745172 0.371798 0.364446 0.144526
H15   H     H_    0.094694 0.096859 0.652521 0.133791
H16   H     H_    0.905308 0.596851 0.347480 0.133787
H17   H     H_    0.197382 0.174391 0.551667 0.128996
H18   H     H_    0.802622 0.674385 0.448335 0.128988
O11   O     O_R   0.912140 0.786650 0.084610 -0.532920
O12   O     O_R   0.087860 0.286650 0.915390 -0.532915
O13   O     O_R   0.102040 0.454810 0.110430 -0.528507
O14   O     O_R   0.897960 0.954810 0.889570 -0.528507
C25   C     C_R   0.134348 0.623846 0.137869 0.711232
C26   C     C_R   0.865651 0.123845 0.862133 0.711213
O15   O     O_R   0.913690 0.457060 0.096650 -0.549048
O16   O     O_R   0.086310 0.957060 0.903350 -0.549050
O17   O     O_R   0.898200 0.284560 0.901540 -0.533381
O18   O     O_R   0.101800 0.784560 0.098460 -0.533393
C27   C     C_R   0.892177 0.625856 0.125673 0.658367
C28   C     C_R   0.107823 0.125857 0.874327 0.658353
O19   O     O_3   0.995160 0.617270 0.936040 -0.380737
O20   O     O_3   0.004840 0.117270 0.063960 -0.380749
V3    V     V_3+5 0.000900 0.343280 0.011870 1.393803
V4    V     V_3+5 0.999100 0.843280 0.988130 1.393786
C29   C     C_R   0.286000 0.258485 0.962317 0.122363
C30   C     C_R   0.279918 0.101356 0.023451 -0.112209
C31   C     C_R   0.310849 0.105733 0.127288 -0.116872
C32   C     C_R   0.348893 0.265628 0.172155 -0.106839
C33   C     C_R   0.349990 0.424430 0.114194 -0.146481
C34   C     C_R   0.315184 0.422768 0.011214 -0.114282
H19   H     H_    0.250797 0.974195 0.994111 0.094100
H20   H     H_    0.306056 0.984224 0.172747 0.117653
H21   H     H_    0.375472 0.267197 0.251987 0.144968
H22   H     H_    0.377441 0.549651 0.149081 0.126114
H23   H     H_    0.311821 0.549356 0.968497 0.081735
C35   C     C_R   0.714000 0.758482 0.037685 0.122346
C36   C     C_R   0.720087 0.601356 0.976548 -0.112208
C37   C     C_R   0.689159 0.605732 0.872710 -0.116875
C38   C     C_R   0.651111 0.765624 0.827845 -0.106833
C39   C     C_R   0.650006 0.924423 0.885809 -0.146469
C40   C     C_R   0.684811 0.922763 0.988791 -0.114289
H24   H     H_    0.749212 0.474199 0.005886 0.094111
H25   H     H_    0.693958 0.484224 0.827249 0.117652
H26   H     H_    0.624536 0.767194 0.748013 0.144966
H27   H     H_    0.622551 0.049641 0.850923 0.126112
H28   H     H_    0.688169 0.049348 0.031509 0.081745
C41   C     C_3   0.427758 0.174751 0.839290 -0.339730
C42   C     C_3   0.496595 0.324798 0.879361 -0.275122
C43   C     C_3   0.539735 0.283402 0.987514 -0.817640
H29   H     H_    0.546122 0.135051 0.998206 0.239603
H30   H     H_    0.608325 0.342130 0.004102 0.207222
H31   H     H_    0.497652 0.333931 0.042267 0.242969
H32   H     H_    0.549982 0.330464 0.830352 0.175749
H33   H     H_    0.465820 0.463312 0.875361 0.187187
H34   H     H_    0.411977 0.083747 0.899585 0.205932
H35   H     H_    0.462052 0.082309 0.791233 0.132415
C44   C     C_3   0.572242 0.674752 0.160713 -0.339729
C45   C     C_3   0.503402 0.824800 0.120657 -0.275131
C46   C     C_3   0.460260 0.783416 0.012504 -0.817676
H36   H     H_    0.453865 0.635063 0.001809 0.239595
H37   H     H_    0.391673 0.842141 0.995919 0.207238
H38   H     H_    0.502344 0.833946 0.957754 0.242977
H39   H     H_    0.450018 0.830443 0.169671 0.175750
H40   H     H_    0.534176 0.963315 0.124663 0.187189
H41   H     H_    0.588019 0.583766 0.100408 0.205937
H42   H     H_    0.537953 0.582295 0.208766 0.132421
C47   C     C_3   0.076876 0.384786 0.686882 -0.383371
C48   C     C_3   0.975478 0.337739 0.661105 -0.317000
C49   C     C_3   0.916008 0.508671 0.661983 -0.735227
H43   H     H_    0.926199 0.571986 0.738354 0.249646
H44   H     H_    0.932742 0.611142 0.606153 0.205010
H45   H     H_    0.843390 0.469685 0.641584 0.210692
H46   H     H_    0.961489 0.274447 0.584587 0.178673
H47   H     H_    0.957411 0.236380 0.716277 0.181648
H48   H     H_    0.089465 0.463979 0.758375 0.196545
H49   H     H_    0.092188 0.480379 0.626966 0.171905
C50   C     C_3   0.923130 0.884781 0.313118 -0.383404
C51   C     C_3   0.024523 0.837741 0.338930 -0.317088
C52   C     C_3   0.083999 0.008654 0.338013 -0.735175
H50   H     H_    0.073869 0.071803 0.261597 0.249671
H51   H     H_    0.067208 0.111255 0.393751 0.205024
H52   H     H_    0.156616 0.969687 0.358512 0.210656
H53   H     H_    0.038496 0.774528 0.415465 0.178703
H54   H     H_    0.042598 0.736319 0.283799 0.181642
H55   H     H_    0.910557 0.963943 0.241618 0.196578
H56   H     H_    0.907805 0.980403 0.373009 0.171903

loop_
_geom_bond_atom_site_label_1
_geom_bond_atom_site_label_2
_ccdc_geom_bond_type
C1    C20   S    
C3    C6    S    
C11   C41   S    
C41   C42   S    
C50   H56   S    
C15   C23   S    
C31   C32   A    
C43   H29   S    
O1    C3    A    
O2    C4    A    
C2    O7    A    
C48   C49   S    
C43   H31   S    
C50   C51   S    
C38   C39   A    
O5    C3    A    
C46   H37   S    
C25   O18   A    
C15   H9    S    
C13   C21   S    
C9    C29   S    
C26   O17   A    
C16   H10   S    
C14   C18   S    
C39   H27   S    
C29   C34   A    
O13   C25   A    
O14   C26   A    
C49   H43   S    
O16   V4    S    
C44   H41   S    
C20   C24   S    
C14   H16   S    
C5    C7    T    
C21   H17   S    
C47   H49   S    
O17   V3    S    
O20   V3    S    
C49   H44   S    
C2    C19   S    
C4    C5    S    
C52   H52   S    
C31   H20   S    
C16   C24   S    
O18   V4    S    
C33   H22   S    
C16   C18   S    
C48   H46   S    
O5    V1    S    
C36   H24   S    
O6    V2    S    
C16   H8    S    
C40   H28   S    
H5    C21   S    
C19   C21   S    
C14   C50   S    
H6    C22   S    
C20   C22   S    
C45   C46   S    
O11   C27   A    
C23   H11   S    
C46   H38   S    
C24   H12   S    
C32   C33   A    
O16   C28   A    
C37   C38   A    
O4    C2    A    
C11   C19   S    
C18   C27   S    
O14   V4    S    
C17   C28   S    
C15   H7    S    
C44   H42   S    
O4    V2    S    
C33   C34   A    
C30   H19   S    
O15   C27   A    
C12   C44   S    
C36   C37   A    
C42   H33   S    
O6    C4    A    
C49   H45   S    
C23   H13   S    
C14   C22   S    
C51   H54   S    
O1    V2    S    
C8    C25   S    
O2    V1    S    
C35   C36   A    
C32   H21   S    
C9    H1    S    
C52   H50   S    
C10   H2    S    
C37   H25   S    
C41   H34   S    
C10   C35   S    
O3    V1    S    
C12   C20   S    
C47   C48   S    
O15   V3    S    
C9    C11   S    
C50   H55   S    
C39   C40   A    
C41   H35   S    
C13   H15   S    
C30   C31   A    
O3    C1    A    
C34   H23   S    
C38   H26   S    
C43   H30   S    
C9    C17   S    
C7    C26   S    
C11   H3    S    
C10   C18   S    
C46   H36   S    
C24   H14   S    
C12   H4    S    
O19   V4    S    
O7    V1    S    
C1    O8    A    
O8    V2    S    
C45   H40   S    
C45   H39   S    
C42   H32   S    
O12   C28   A    
C13   C17   S    
C15   C17   S    
C51   H53   S    
C6    C8    T    
C42   C43   S    
O11   V4    S    
C22   H18   S    
C29   C30   A    
C47   H48   S    
O12   V3    S    
C10   C12   S    
O9    V2    S    
C44   C45   S    
C52   H51   S    
C19   C23   S    
O10   V1    S    
O13   V3    S    
C13   C47   S    
C48   H47   S    
C35   C40   A    
C51   C52   S    
