data_mof_unit_18624.cif
_audit_creation_date              2012-12-11T14:54:38-0500
_audit_creation_method            fapswitch 2.2
_symmetry_space_group_name_H-M    P1
_symmetry_Int_Tables_number       1
_space_group_crystal_system       triclinic
_cell_length_a                    19.000638
_cell_length_b                    10.897818
_cell_length_c                    18.829156
_cell_angle_alpha                 90.082586
_cell_angle_beta                  89.936852
_cell_angle_gamma                 90.033423
_cell_volume                      3898.861426

loop_
_atom_site_label
_atom_site_type_symbol
_atom_type_description
_atom_site_fract_x
_atom_site_fract_y
_atom_site_fract_z
_atom_type_partial_charge
C1    C     C_R   0.731319 0.378573 0.646606 0.540679
C2    C     C_R   0.301307 0.865549 0.461915 -0.084938
C3    C     C_R   0.959663 0.556071 0.474053 -0.116498
C4    C     C_R   0.188363 0.395719 0.536090 -0.076609
C5    C     C_R   0.801307 0.365549 0.461915 -0.084939
C6    C     C_R   0.692368 0.889123 0.462513 0.211931
C7    C     C_R   0.303381 0.854905 0.535437 0.223758
C8    C     C_R   0.192368 0.389124 0.462513 0.211932
C9    C     C_R   0.803382 0.354905 0.535437 0.223758
C10   C     C_R   0.759048 0.900707 0.430027 0.018565
C11   C     C_R   0.254357 0.922577 0.577137 0.005162
C12   C     C_R   0.259048 0.400707 0.430027 0.018565
C13   C     C_R   0.271266 0.374275 0.355492 0.530872
C14   C     C_R   0.754356 0.422577 0.577137 0.005161
C15   C     C_R   0.819581 0.918018 0.472079 -0.143698
C16   C     C_R   0.213401 0.013458 0.545175 -0.184117
C17   C     C_R   0.319581 0.418017 0.472079 -0.143698
C18   C     C_R   0.713401 0.513458 0.545175 -0.184117
C19   C     C_R   0.814675 0.926252 0.544618 -0.126145
C20   C     C_R   0.212872 0.024870 0.472385 -0.149171
C21   C     C_R   0.314675 0.426251 0.544618 -0.126145
C22   C     C_R   0.712871 0.524870 0.472385 -0.149171
C23   C     C_R   0.748989 0.919546 0.576786 -0.021110
C24   C     C_R   0.231319 0.878573 0.646606 0.540679
C25   C     C_R   0.254974 0.948156 0.430086 -0.027160
C26   C     C_R   0.248989 0.419546 0.576786 -0.021111
C27   C     C_R   0.754974 0.448156 0.430086 -0.027161
C28   C     C_R   0.558439 0.054492 0.979564 0.237035
C29   C     C_R   0.540686 0.058682 0.052207 0.225673
C30   C     C_R   0.058412 0.554478 0.979560 0.237170
C31   C     C_R   0.040678 0.558682 0.052205 0.225649
C32   C     C_R   0.509256 0.165274 0.080659 0.027559
C33   C     C_R   0.547791 0.159300 0.937138 0.028910
C34   C     C_R   0.009253 0.665275 0.080659 0.027512
C35   C     C_R   0.771266 0.874275 0.355492 0.530868
C36   C     C_R   0.047787 0.659300 0.937138 0.028882
C37   C     C_R   0.503291 0.271017 0.038929 -0.205314
C38   C     C_R   0.522812 0.268267 0.967834 -0.204663
C39   C     C_R   0.003294 0.771023 0.038931 -0.205278
C40   C     C_R   0.022822 0.768275 0.967837 -0.204642
C41   C     C_R   0.531527 0.155548 0.646863 0.551229
C42   C     C_R   0.463214 0.154302 0.356332 0.549047
C43   C     C_R   0.031527 0.655548 0.646863 0.551229
C44   C     C_R   0.963214 0.654302 0.356332 0.549059
C45   C     C_R   0.772562 0.036963 0.974500 -0.118966
C46   C     C_3   0.547935 0.359613 0.451893 -0.275317
C47   C     C_R   0.185435 0.944573 0.041220 -0.141439
C48   C     C_R   0.272712 0.536882 0.974485 -0.119064
C49   C     C_R   0.685431 0.444519 0.041226 -0.141474
C50   C     C_R   0.775497 0.018544 0.046828 -0.130662
C51   C     C_R   0.181106 0.938611 0.968638 -0.137062
C52   C     C_R   0.275628 0.518491 0.046814 -0.130692
C53   C     C_R   0.681097 0.438553 0.968644 -0.137061
C54   C     C_R   0.753718 0.906549 0.074514 0.055566
C55   C     C_R   0.239941 0.904243 0.927968 0.028168
C56   C     C_R   0.253700 0.406602 0.074526 0.055633
C57   C     C_3   0.560187 0.362215 0.531397 -0.242985
C58   C     C_R   0.739939 0.404242 0.927968 0.028107
C59   C     C_R   0.727963 0.813352 0.029516 -0.123735
C60   C     C_R   0.303698 0.876537 0.961257 -0.153032
C61   C     C_R   0.227796 0.313496 0.029550 -0.123436
C62   C     C_R   0.803708 0.376595 0.961249 -0.153092
C63   C     C_R   0.725686 0.831598 0.956603 -0.124867
C64   C     C_R   0.308765 0.886654 0.034630 -0.144249
C65   C     C_R   0.225534 0.331713 0.956634 -0.124537
C66   C     C_R   0.808779 0.386712 0.034622 -0.144285
C67   C     C_R   0.748305 0.943457 0.929184 0.065748
C68   C     C_3   0.047935 0.859613 0.451893 -0.275317
C69   C     C_R   0.249797 0.923642 0.074546 0.026004
C70   C     C_R   0.248310 0.443460 0.929189 0.065698
C71   C     C_R   0.749803 0.423644 0.074545 0.025939
C72   C     C_R   0.741252 0.967959 0.647824 0.548918
C73   C     C_R   0.259986 0.975094 0.354852 0.540706
C74   C     C_R   0.241252 0.467959 0.647824 0.548925
C75   C     C_R   0.759986 0.475094 0.354852 0.540707
C76   C     C_R   0.728226 0.375826 0.853802 0.535947
C77   C     C_R   0.270746 0.376357 0.146975 0.555171
C78   C     C_R   0.228225 0.875825 0.853803 0.535973
C79   C     C_3   0.060187 0.862214 0.531397 -0.242985
C80   C     C_R   0.770750 0.876348 0.146972 0.555169
C81   C     C_R   0.563793 0.152905 0.860886 0.598119
C82   C     C_R   0.470129 0.157103 0.147756 0.579635
C83   C     C_R   0.063789 0.652906 0.860885 0.598125
C84   C     C_R   0.970129 0.657104 0.147756 0.579606
C85   C     C_R   0.741051 0.972989 0.854959 0.544146
C86   C     C_R   0.258812 0.970162 0.145900 0.542296
C87   C     C_R   0.241049 0.473001 0.854964 0.544155
C88   C     C_R   0.758813 0.470163 0.145899 0.542268
C89   C     C_R   0.476593 0.159029 0.432028 0.027190
C90   C     C_R   0.688364 0.895718 0.536090 -0.076608
C91   C     C_R   0.495209 0.166114 0.579448 0.011169
C92   C     C_R   0.976593 0.659029 0.432028 0.027189
C93   C     C_R   0.995209 0.666114 0.579448 0.011169
C94   C     C_R   0.490357 0.270010 0.465997 -0.002773
C95   C     C_R   0.500719 0.273254 0.538634 0.002007
C96   C     C_R   0.990357 0.770010 0.465997 -0.002773
C97   C     C_R   0.000719 0.773254 0.538634 0.002007
C98   C     C_R   0.468050 0.060081 0.547354 -0.146369
C99   C     C_R   0.459663 0.056071 0.474053 -0.116498
C100  C     C_R   0.968050 0.560081 0.547354 -0.146369
Cr1   Cr    Cr6+3 0.771950 0.169480 0.750100 1.028688
Cr2   Cr    Cr6+3 0.383410 0.010620 0.249390 1.039340
Cr3   Cr    Cr6+3 0.116590 0.510620 0.750610 1.043949
Cr4   Cr    Cr6+3 0.883410 0.510620 0.249390 1.039275
Cr5   Cr    Cr6+3 0.228050 0.169480 0.249900 1.043472
Cr6   Cr    Cr6+3 0.271950 0.669480 0.750100 1.028697
Cr7   Cr    Cr6+3 0.728050 0.669480 0.249900 1.043482
Cr8   Cr    Cr6+3 0.614930 0.323340 0.749170 1.011505
Cr9   Cr    Cr6+3 0.385070 0.323340 0.250830 1.020537
Cr10  Cr    Cr6+3 0.114930 0.823340 0.749170 1.011501
Cr11  Cr    Cr6+3 0.885070 0.823340 0.250830 1.020542
Cr12  Cr    Cr6+3 0.616590 0.010620 0.750610 1.043981
H1    H     H_    0.460263 0.976614 0.577499 0.145382
H2    H     H_    0.130579 0.958312 0.944753 0.138045
H3    H     H_    0.296586 0.590005 0.080829 0.124264
H4    H     H_    0.630563 0.458207 0.944764 0.138087
H5    H     H_    0.712565 0.724699 0.050335 0.140934
H6    H     H_    0.349025 0.846980 0.930779 0.131678
H7    H     H_    0.212273 0.224919 0.050385 0.140880
H8    H     H_    0.849040 0.347081 0.930766 0.131695
H9    H     H_    0.706078 0.759786 0.922022 0.124528
H10   H     H_    0.359353 0.871161 0.059518 0.136348
H11   H     H_    0.205810 0.259970 0.922072 0.124550
H12   H     H_    0.442376 0.970714 0.450318 0.162936
H13   H     H_    0.859374 0.371266 0.059504 0.136317
H14   H     H_    0.027594 0.947869 0.430701 0.151655
H15   H     H_    0.111467 0.821135 0.546655 0.169006
H16   H     H_    0.527594 0.447869 0.430701 0.151657
H17   H     H_    0.611467 0.321136 0.546655 0.169006
H18   H     H_    0.592458 0.319018 0.421498 0.146278
H19   H     H_    0.548086 0.452533 0.556029 0.150194
H20   H     H_    0.092458 0.819017 0.421498 0.146280
H21   H     H_    0.048087 0.952533 0.556029 0.150193
H22   H     H_    0.636770 0.892524 0.560627 0.165405
H23   H     H_    0.960264 0.476614 0.577499 0.145381
H24   H     H_    0.337320 0.811727 0.429876 0.149422
H25   H     H_    0.136770 0.392526 0.560627 0.165405
H26   H     H_    0.837320 0.311727 0.429876 0.149421
H27   H     H_    0.871721 0.924154 0.449115 0.157602
H28   H     H_    0.177466 0.069593 0.575950 0.144243
H29   H     H_    0.371721 0.424152 0.449115 0.157602
H30   H     H_    0.677466 0.569593 0.575950 0.144244
H31   H     H_    0.861892 0.944259 0.575189 0.155180
H32   H     H_    0.179348 0.094690 0.449416 0.179972
H33   H     H_    0.361892 0.444257 0.575189 0.155180
H34   H     H_    0.942376 0.470714 0.450318 0.162936
H35   H     H_    0.679348 0.594690 0.449416 0.179973
H36   H     H_    0.479377 0.353675 0.059943 0.148752
H37   H     H_    0.515055 0.349960 0.936147 0.146149
H38   H     H_    0.979387 0.853686 0.059946 0.148754
H39   H     H_    0.015079 0.849976 0.936154 0.146145
H40   H     H_    0.637371 0.907301 0.376281 0.338943
H41   H     H_    0.369369 0.812343 0.608805 0.329204
H42   H     H_    0.137371 0.407302 0.376281 0.338945
H43   H     H_    0.869369 0.312344 0.608805 0.329203
H44   H     H_    0.589261 0.882677 0.982799 0.331579
H45   H     H_    0.788862 0.125034 0.953827 0.138763
H46   H     H_    0.525502 0.889521 0.075584 0.310936
H47   H     H_    0.088973 0.382508 0.982735 0.331448
H48   H     H_    0.025414 0.389598 0.075682 0.310852
H49   H     H_    0.139233 0.972917 0.070798 0.136586
H50   H     H_    0.289140 0.624874 0.953798 0.138780
H51   H     H_    0.639225 0.472821 0.070811 0.136617
H52   H     H_    0.796341 0.090128 0.080864 0.124227
O1    O     O_R   0.787510 0.042610 0.670410 -0.487843
O2    O     O_R   0.454250 0.051070 0.169440 -0.467849
O3    O     O_R   0.045750 0.551070 0.830560 -0.456276
O4    O     O_R   0.954250 0.551070 0.169440 -0.468009
O5    O     O_R   0.681210 0.959150 0.825320 -0.477175
O6    O     O_R   0.318790 0.959150 0.174680 -0.508603
O7    O     O_R   0.181210 0.459150 0.825320 -0.477208
O8    O     O_R   0.818790 0.459150 0.174680 -0.508619
O9    O     O_3   0.667820 0.167810 0.749960 -0.274434
O10   O     O_3   0.332180 0.167810 0.250040 -0.261008
O11   O     O_3   0.167820 0.667810 0.749960 -0.274420
O12   O     O_R   0.212490 0.042610 0.329590 -0.513183
O13   O     O_3   0.832180 0.667810 0.250040 -0.261006
O14   O     O_R   0.765670 0.292090 0.675090 -0.480038
O15   O     O_R   0.234330 0.292090 0.324910 -0.490612
O16   O     O_R   0.265670 0.792090 0.675090 -0.480039
O17   O     O_R   0.734330 0.792090 0.324910 -0.490611
O18   O     O_R   0.670220 0.409020 0.668560 -0.530481
O19   O     O_R   0.329780 0.409020 0.331440 -0.525831
O20   O     O_R   0.170220 0.909020 0.668560 -0.530484
O21   O     O_R   0.829780 0.909020 0.331440 -0.525835
O22   O     O_R   0.556580 0.251590 0.674980 -0.496527
O23   O     O_R   0.287510 0.542610 0.670410 -0.487839
O24   O     O_R   0.443420 0.251590 0.325020 -0.503558
O25   O     O_R   0.056580 0.751590 0.674980 -0.496528
O26   O     O_R   0.943420 0.751590 0.325020 -0.503553
O27   O     O_R   0.545890 0.049670 0.670030 -0.526131
O28   O     O_R   0.454110 0.049670 0.329970 -0.514399
O29   O     O_R   0.045890 0.549670 0.670030 -0.526132
O30   O     O_R   0.954110 0.549670 0.329970 -0.514393
O31   O     O_R   0.681340 0.957860 0.676500 -0.518053
O32   O     O_R   0.318660 0.957860 0.323500 -0.511265
O33   O     O_R   0.181340 0.457860 0.676500 -0.518051
O34   O     O_R   0.712490 0.542610 0.329590 -0.513181
O35   O     O_R   0.818660 0.457860 0.323500 -0.511262
O36   O     O_R   0.787380 0.044010 0.830940 -0.533617
O37   O     O_R   0.212620 0.044010 0.169060 -0.525425
O38   O     O_R   0.287380 0.544010 0.830940 -0.533643
O39   O     O_R   0.712620 0.544010 0.169060 -0.525407
O40   O     O_R   0.765540 0.293390 0.823910 -0.511050
O41   O     O_R   0.234460 0.293390 0.176090 -0.493398
O42   O     O_R   0.265540 0.793390 0.823910 -0.511043
O43   O     O_R   0.734460 0.793390 0.176090 -0.493383
O44   O     O_R   0.670090 0.410410 0.829090 -0.533090
O45   O     O_R   0.556450 0.252890 0.823790 -0.522828
O46   O     O_R   0.329910 0.410410 0.170910 -0.523911
O47   O     O_R   0.170090 0.910410 0.829090 -0.533105
O48   O     O_R   0.829910 0.910410 0.170910 -0.523881
O49   O     O_3   0.630366 0.876100 0.425117 -0.702126
O50   O     O_3   0.352189 0.775615 0.563896 -0.690611
O51   O     O_3   0.130366 0.376102 0.425116 -0.702128
O52   O     O_3   0.852189 0.275615 0.563896 -0.690612
O53   O     O_3   0.585275 0.949866 0.948002 -0.689040
O54   O     O_3   0.552552 0.959204 0.095713 -0.687721
O55   O     O_3   0.085219 0.449832 0.947992 -0.688972
O56   O     O_R   0.443550 0.252890 0.176210 -0.515810
O57   O     O_3   0.052586 0.459226 0.095715 -0.687666
O58   O     O_R   0.056450 0.752890 0.823790 -0.522821
O59   O     O_R   0.943550 0.752890 0.176210 -0.515781
O60   O     O_R   0.545750 0.051070 0.830560 -0.456233

loop_
_geom_bond_atom_site_label_1
_geom_bond_atom_site_label_2
_ccdc_geom_bond_type
C58   C62   A    
C81   O45   A    
C21   C26   A    
Cr2   O6    S    
C28   O53   S    
C88   O8    A    
C53   C58   A    
C93   C97   A    
C61   H7    S    
C72   O1    A    
C20   H32   S    
Cr1   O9    S    
C2    C7    A    
C4    C8    A    
C8    O51   S    
C72   O31   A    
Cr8   O45   S    
Cr1   O36   S    
C58   C76   S    
C5    H26   S    
Cr10  O11   S    
C7    C11   A    
C39   H38   S    
C50   C54   A    
Cr7   O17   S    
C45   C50   A    
C57   H17   S    
C28   C29   A    
C25   C73   S    
Cr6   O23   S    
C29   C32   A    
C10   C15   A    
C30   C31   A    
C90   H22   S    
C49   C53   A    
C52   H3    S    
C48   H50   S    
C20   C25   A    
C36   C83   S    
C65   C70   A    
C11   C24   S    
C92   C96   A    
C76   O44   A    
C17   H29   S    
Cr3   O33   S    
C89   C94   A    
C68   H20   S    
C14   C18   A    
Cr11  O48   S    
C47   C69   A    
Cr1   O14   S    
C44   O26   A    
C4    H25   S    
C5    C27   A    
C83   O58   A    
C3    C100  A    
Cr4   O13   S    
C13   O19   A    
Cr5   O12   S    
C12   C17   A    
Cr8   O44   S    
Cr2   O28   S    
Cr6   O11   S    
C60   H6    S    
C10   C35   S    
C87   O38   A    
Cr7   O43   S    
C44   C92   S    
C100  H23   S    
C16   C20   A    
C76   O40   A    
C80   O48   A    
Cr9   O19   S    
C68   C79   S    
H48   O57   S    
Cr10  O20   S    
Cr2   O2    S    
C26   C74   S    
C31   O57   S    
C55   C60   A    
C96   C97   A    
Cr3   O7    S    
Cr12  O60   S    
Cr7   O39   S    
C16   H28   S    
C34   C84   S    
Cr5   O15   S    
C27   C75   S    
C70   C87   S    
Cr6   O16   S    
H41   O50   S    
C63   H9    S    
C57   H19   S    
C15   H27   S    
C54   C59   A    
C9    O52   S    
C79   H21   S    
C63   C67   A    
Cr11  O21   S    
C51   H2    S    
C67   C85   S    
C62   C66   A    
H40   O49   S    
C50   H52   S    
C34   C39   A    
C7    O50   S    
C32   C37   A    
C18   H30   S    
C45   H45   S    
C39   C40   A    
C55   C78   S    
C41   O27   A    
C37   H36   S    
C46   H18   S    
C98   H1    S    
C47   C51   A    
C64   C69   A    
C6    C90   A    
C83   O3    A    
Cr1   O40   S    
C42   O28   A    
C85   O5    A    
C56   C77   S    
C40   H39   S    
H46   O54   S    
C21   H33   S    
C15   C19   A    
C9    C14   A    
C78   O42   A    
Cr12  O31   S    
C5    C9    A    
C37   C38   A    
C84   O4    A    
Cr8   O18   S    
C77   O41   A    
Cr6   O38   S    
C1    O14   A    
C85   O36   A    
Cr5   O37   S    
Cr12  O5    S    
C46   C94   S    
C74   O33   A    
C36   C40   A    
C8    C12   A    
C87   O7    A    
Cr8   O9    S    
Cr3   O11   S    
C23   C90   A    
C94   C95   A    
Cr11  O59   S    
Cr3   O3    S    
C22   H35   S    
Cr1   O1    S    
C93   C100  A    
Cr9   O24   S    
H44   O53   S    
C66   C71   A    
C3    H34   S    
C77   O46   A    
C29   O54   S    
C41   C91   S    
C89   C99   A    
C28   C33   A    
H47   O55   S    
Cr5   O10   S    
C54   C80   S    
C57   C95   S    
C22   C27   A    
Cr4   O35   S    
C35   O17   A    
Cr9   O46   S    
Cr10  O58   S    
C68   H14   S    
Cr4   O8    S    
C31   C34   A    
C19   C23   A    
C74   O23   A    
C82   O2    A    
C75   O34   A    
C42   O24   A    
C81   O60   A    
C79   H15   S    
C19   H31   S    
C38   H37   S    
Cr9   O10   S    
C62   H8    S    
C23   C72   S    
C79   C97   S    
C48   C70   A    
H42   O51   S    
C84   O59   A    
Cr2   O32   S    
Cr6   O42   S    
Cr7   O34   S    
C4    C26   A    
C1    O18   A    
C53   H4    S    
Cr5   O41   S    
C45   C67   A    
C75   O35   A    
C24   O20   A    
Cr2   O10   S    
C32   C82   S    
C43   O29   A    
C68   C96   S    
Cr10  O25   S    
C59   C63   A    
C33   C38   A    
C66   H13   S    
C30   C36   A    
C60   C64   A    
C42   C89   S    
Cr10  O47   S    
C18   C22   A    
Cr4   O4    S    
C46   C57   S    
Cr9   O56   S    
C13   O15   A    
C35   O21   A    
Cr12  O27   S    
C86   O37   A    
C91   C98   A    
C6    O49   S    
C86   O6    A    
C73   O12   A    
C64   H10   S    
C24   O16   A    
C44   O30   A    
C43   C93   S    
C41   O22   A    
Cr12  O9    S    
C2    C25   A    
C51   C55   A    
C65   H11   S    
C88   O39   A    
H43   O52   S    
C2    H24   S    
C46   H16   S    
C49   H51   S    
C11   C16   A    
C6    C10   A    
C91   C95   A    
C71   C88   S    
C47   H49   S    
C61   C65   A    
C48   C52   A    
C80   O43   A    
C82   O56   A    
C12   C13   S    
C43   O25   A    
Cr11  O26   S    
C59   H5    S    
C98   C99   A    
C49   C71   A    
C73   O32   A    
Cr11  O13   S    
Cr4   O30   S    
C56   C61   A    
C3    C92   A    
C1    C14   S    
Cr3   O29   S    
Cr8   O22   S    
C33   C81   S    
C78   O47   A    
Cr7   O13   S    
C69   C86   S    
C52   C56   A    
C99   H12   S    
C30   O55   S    
C17   C21   A    
