data_mof_unit_39826.cif
_audit_creation_date              2012-12-10T17:10:58-0500
_audit_creation_method            fapswitch 2.2
_symmetry_space_group_name_H-M    P1
_symmetry_Int_Tables_number       1
_space_group_crystal_system       triclinic
_cell_length_a                    11.814566
_cell_length_b                    13.016944
_cell_length_c                    13.363898
_cell_angle_alpha                 94.392325
_cell_angle_beta                  76.466793
_cell_angle_gamma                 100.704029
_cell_volume                      1962.21428243

loop_
_atom_site_label
_atom_site_type_symbol
_atom_type_description
_atom_site_fract_x
_atom_site_fract_y
_atom_site_fract_z
_atom_type_partial_charge
C1    C     C_R   0.523175 0.701021 0.498857 0.898114
C2    C     C_R   0.398795 0.462946 0.804158 -0.161730
C3    C     C_R   0.463367 0.184915 0.501413 -0.119682
C4    C     C_R   0.436221 0.491171 0.695394 0.945673
C5    C     C_R   0.539943 0.815621 0.495598 -0.179041
C6    C     C_R   0.662393 0.989768 0.474984 0.396069
C7    C     C_R   0.653494 0.880033 0.474798 0.290988
C8    C     C_R   0.438402 0.861088 0.512453 -0.194539
C9    C     C_R   0.446880 0.968395 0.508449 0.026089
C10   C     C_R   0.558813 0.032982 0.489872 0.058407
C11   C     C_R   0.565568 0.140662 0.486736 -0.221489
C12   C     C_R   0.483284 0.458623 0.953763 0.009064
C13   C     C_R   0.351086 0.120170 0.519296 0.478022
C14   C     C_R   0.344086 0.011734 0.522911 -0.190503
C15   C     C_R   0.951745 0.615869 0.582470 0.316098
C16   C     C_R   0.477729 0.299106 0.499596 0.837251
C17   C     C_R   0.830718 0.597712 0.579697 0.481924
C18   C     C_R   0.856888 0.452407 0.463671 0.535743
C19   C     C_R   0.976803 0.463434 0.470352 -0.118413
C20   C     C_R   0.025777 0.543983 0.532032 -0.239109
C21   C     C_R   0.145651 0.547193 0.540679 0.539101
C22   C     C_R   0.167663 0.406161 0.418129 0.525496
C23   C     C_R   0.464006 0.515630 0.874901 -0.179487
C24   C     C_R   0.049234 0.395411 0.413571 -0.185896
C25   C     C_R   0.563855 0.508706 0.304272 0.773315
C26   C     C_R   0.702906 0.653601 0.059686 0.465490
C27   C     C_R   0.601843 0.530282 0.193273 -0.328561
C28   C     C_R   0.332668 0.362305 0.825584 0.253882
C29   C     C_R   0.357115 0.303923 0.899175 0.249639
C30   C     C_R   0.443824 0.348585 0.954081 0.408246
C31   C     C_R   0.547805 0.512487 0.025459 -0.020830
C32   C     C_R   0.619325 0.611372 0.000222 -0.230425
C33   C     C_R   0.598451 0.668615 0.922487 0.456866
C34   C     C_R   0.512753 0.623258 0.866662 0.326481
C35   C     C_R   0.534788 0.475208 0.125153 0.424123
C36   C     C_R   0.692199 0.615427 0.157099 0.279853
Cl1   Cl    Cl    0.785213 0.826228 0.439241 -0.501408
Cl2   Cl    Cl    0.199946 0.623618 0.639525 -0.424717
Cl3   Cl    Cl    0.248519 0.316281 0.343653 -0.477633
Cl4   Cl    Cl    0.006805 0.738075 0.637167 -0.386481
Cl5   Cl    Cl    0.739942 0.678198 0.659196 -0.466010
Cl6   Cl    Cl    0.821961 0.756382 0.016967 -0.307141
Cl7   Cl    Cl    0.232018 0.302671 0.750252 -0.425626
Cl8   Cl    Cl    0.284038 0.173000 0.917752 -0.405448
Cl9   Cl    Cl    0.455134 0.704971 0.797589 -0.497626
Cu1   Cu    Cu3+1 0.386470 0.492430 0.492410 1.113564
Cu2   Cu    Cu3+1 0.613530 0.507570 0.507590 1.043825
H1    H     H_    0.258367 0.961187 0.537164 0.182611
H2    H     H_    0.473090 0.352120 0.205669 0.361796
H3    H     H_    0.478213 0.212311 0.979067 0.380609
H4    H     H_    0.351460 0.812669 0.528152 0.227428
H5    H     H_    0.014736 0.333423 0.364260 0.244769
H6    H     H_    0.651340 0.190803 0.472231 0.254328
H7    H     H_    0.718703 0.676186 0.287899 0.356718
H8    H     H_    0.179695 0.107308 0.546054 0.358134
H9    H     H_    0.831612 0.021551 0.472816 0.391599
H10   H     H_    0.646454 0.797058 0.844897 0.402095
H11   H     H_    0.751753 0.389979 0.376483 0.374691
N1    N     N_R   0.215880 0.481050 0.481000 -0.259736
N2    N     N_R   0.784100 0.518950 0.519000 -0.293005
O1    O     O_R   0.419710 0.645650 0.494620 -0.574766
O2    O     O_3   0.250007 0.163692 0.534450 -0.623182
O3    O     O_3   0.770237 0.056797 0.458385 -0.679250
O4    O     O_3   0.651296 0.772443 0.911673 -0.606215
O5    O     O_3   0.815874 0.371031 0.402124 -0.712339
O6    O     O_3   0.444899 0.393630 0.160204 -0.605723
O7    O     O_3   0.499737 0.286670 0.999585 -0.656667
O8    O     O_R   0.611450 0.658430 0.507430 -0.500824
O9    O     O_R   0.357340 0.490460 0.641450 -0.490189
O10   O     O_R   0.549080 0.503250 0.654260 -0.565989
O11   O     O_R   0.388550 0.341570 0.492570 -0.478811
O12   O     O_R   0.580290 0.354350 0.505380 -0.619599
O13   O     O_R   0.450920 0.496750 0.345740 -0.535551
O14   O     O_R   0.642660 0.509540 0.358550 -0.602214
O15   O     O_3   0.766060 0.668499 0.217187 -0.602250

loop_
_geom_bond_atom_site_label_1
_geom_bond_atom_site_label_2
_ccdc_geom_bond_type
C24   H5    S    
C26   C32   A    
Cu1   N1    S    
C19   C20   A    
C16   O12   A    
C4    O10   A    
C18   O5    S    
C12   C23   A    
C1    C5    S    
C22   C24   A    
C28   C29   A    
C21   N1    A    
H8    O2    S    
C1    O8    A    
C18   C19   A    
Cu1   O9    S    
Cu2   N2    S    
C21   Cl2   S    
C8    C9    A    
H3    O7    S    
C30   O7    S    
C3    C13   A    
C13   C14   A    
C16   O11   A    
C4    O9    A    
C15   C20   A    
Cu2   O12   S    
H2    O6    S    
C13   O2    S    
Cu1   O1    S    
C22   N1    A    
C5    C7    A    
C14   H1    S    
C35   O6    S    
C27   C35   A    
C1    O1    A    
C6    O3    S    
C2    C4    S    
C9    C14   A    
Cu2   O10   S    
C29   C30   A    
C36   O15   S    
H11   O5    S    
C31   C32   A    
C23   C34   A    
C33   C34   A    
C7    Cl1   S    
H9    O3    S    
C34   Cl9   S    
C8    H4    S    
Cu1   O11   S    
C18   N2    A    
C29   Cl8   S    
C31   C35   A    
Cu2   O8    S    
C26   Cl6   S    
H10   O4    S    
C9    C10   A    
C26   C36   A    
C15   C17   A    
Cu1   Cu2   S    
C12   C30   A    
Cu2   O14   S    
C11   H6    S    
C6    C10   A    
C5    C8    A    
C6    C7    A    
C27   C36   A    
C25   C27   S    
C28   Cl7   S    
C25   O14   A    
C32   C33   A    
C19   C24   A    
C12   C31   A    
C33   O4    S    
C22   Cl3   S    
C25   O13   A    
C17   Cl5   S    
C15   Cl4   S    
C3    C11   A    
C10   C11   A    
C17   N2    A    
H7    O15   S    
C20   C21   A    
C2    C23   A    
C2    C28   A    
Cu1   O13   S    
C3    C16   S    
