data_mof_unit_68260.cif
_audit_creation_date              2013-03-05T16:05:14-0500
_audit_creation_method            fapswitch 2.2
_symmetry_space_group_name_H-M    P1
_symmetry_Int_Tables_number       1
_space_group_crystal_system       triclinic
_cell_length_a                    8.501149
_cell_length_b                    15.25728
_cell_length_c                    15.12737
_cell_angle_alpha                 99.815416
_cell_angle_beta                  98.893551
_cell_angle_gamma                 99.347988
_cell_volume                      1873.86165294

loop_
_atom_site_label
_atom_site_type_symbol
_atom_site_description
_atom_site_fract_x
_atom_site_fract_y
_atom_site_fract_z
_atom_type_partial_charge
P1    P     P_3+3 0.996570 0.418570 0.288410 0.681304
O1    O     O_2   0.826460 0.445380 0.275370 -0.278203
O2    O     O_3   0.098920 0.448470 0.388920 -0.331240
O3    O     O_3   0.628660 0.613390 0.338240 -0.378815
O4    O     O_2   0.679496 0.534515 0.176856 -0.306556
O5    O     O_3   0.983811 0.302192 0.235826 -0.490329
O6    O     O_3   0.651365 0.703856 0.195749 -0.466137
H1    H     H_    0.459456 0.739374 0.261423 0.017042
C1    C     C_3   0.672544 0.843688 0.300151 -0.621532
H2    H     H_    0.720587 0.817580 0.360885 0.235273
H3    H     H_    0.774941 0.872573 0.270228 0.309510
P2    P     P_3+3 0.693070 0.712070 0.580610 0.525714
P3    P     P_3+3 0.119081 0.778532 0.399178 0.497951
O7    O     O_2   0.863170 0.725020 0.553760 -0.317444
O8    O     O_3   0.060910 0.661460 0.386100 -0.358176
O9    O     O_2   0.024001 0.819928 0.469441 -0.334065
O10   O     O_3   0.766018 0.745676 0.698908 -0.617826
O11   O     O_3   0.032748 0.810426 0.299009 -0.533468
C2    C     C_3   0.138840 0.812529 0.235728 0.744262
H4    H     H_    0.267503 0.821829 0.268966 -0.144761
C3    C     C_3   0.121980 0.893908 0.189615 -0.668196
H5    H     H_    0.998199 0.882517 0.147697 0.244987
C4    C     C_3   0.136577 0.743097 0.753979 0.199830
H6    H     H_    0.037387 0.727269 0.694507 0.182973
H7    H     H_    0.091265 0.722292 0.813968 0.107966
C5    C     C_3   0.202921 0.845529 0.777301 -0.645407
H8    H     H_    0.296780 0.862059 0.840620 0.183967
H9    H     H_    0.102935 0.881415 0.791020 0.220555
Ba1   Ba    Ba6+2 0.844900 0.542440 0.457470 1.733371
C6    C     C_3   0.912679 0.223669 0.265137 0.067686
H10   H     H_    0.785596 0.203233 0.230107 0.122822
C7    C     C_3   0.982728 0.139926 0.227470 0.249253
H11   H     H_    0.113609 0.151987 0.257772 0.009692
C8    C     C_3   0.647515 0.724738 0.750101 0.725872
H12   H     H_    0.524634 0.712609 0.708798 0.098350
C9    C     C_3   0.663244 0.804197 0.830033 -0.821682
H13   H     H_    0.786022 0.818226 0.873532 0.280679
H14   H     H_    0.570151 0.788381 0.872055 0.225400
H15   H     H_    0.645001 0.866266 0.804423 0.276110
P4    P     P_3+3 0.193140 0.581510 0.711600 0.495393
O12   O     O_2   0.363260 0.554650 0.724690 -0.323374
O13   O     O_3   0.090800 0.551610 0.611090 -0.371313
O14   O     O_3   0.561050 0.386690 0.661770 -0.343612
O15   O     O_3   0.260213 0.698491 0.731931 -0.575106
P5    P     P_3+3 0.074267 0.222046 0.606388 0.579013
O16   O     O_3   0.598950 0.388690 0.448890 -0.347625
O17   O     O_3   0.128800 0.338610 0.613910 -0.329747
O18   O     O_2   0.138891 0.178816 0.522988 -0.322829
O19   O     O_3   0.194010 0.190654 0.696045 -0.440140
Ba2   Ba    Ba6+2 0.344940 0.457640 0.542540 1.715896
P6    P     P_3+3 0.577053 0.598883 0.220294 0.535937
C10   C     C_3   0.560972 0.767319 0.229592 0.320455
H16   H     H_    0.507793 0.795371 0.171535 0.150105
H17   H     H_    0.605176 0.897767 0.321318 0.205935
O20   O     O_3   0.590770 0.611390 0.551120 -0.370811
C11   C     C_3   0.438372 0.237132 0.237116 0.476513
C12   C     C_3   0.406918 0.155464 0.157110 -0.700518
H18   H     H_    0.294670 0.107899 0.158243 0.230763
H19   H     H_    0.395686 0.176784 0.090419 0.281369
H20   H     H_    0.508660 0.118175 0.163046 0.273318
P7    P     P_3+3 0.500825 0.270141 0.428599 0.514007
O21   O     O_2   0.326540 0.275010 0.446300 -0.318789
O22   O     O_3   0.447529 0.199884 0.317184 -0.634507
H21   H     H_    0.138266 0.955934 0.242356 0.183489
C13   C     C_3   0.114121 0.186961 0.770263 0.311381
H22   H     H_    0.982853 0.156380 0.747306 -0.027216
C14   C     C_3   0.190454 0.124900 0.826987 -0.790961
H23   H     H_    0.184299 0.059254 0.781333 0.273724
H24   H     H_    0.319914 0.154051 0.854374 0.275919
P8    P     P_3+3 0.611659 0.397015 0.779779 0.586030
C15   C     C_3   0.643495 0.231115 0.796631 0.598045
H25   H     H_    0.735263 0.251095 0.755234 -0.076129
O23   O     O_2   0.502349 0.458725 0.820076 -0.303776
O24   O     O_3   0.537252 0.292583 0.806563 -0.479151
H26   H     H_    0.819001 0.287800 0.924066 0.106737
C16   C     C_3   0.731318 0.224407 0.891722 -0.058259
H27   H     H_    0.801725 0.169136 0.884295 0.129987
C17   C     C_R   0.356612 0.557253 0.175995 0.113304
H28   H     H_    0.315505 0.540963 0.309683 0.155266
H29   H     H_    0.504099 0.615978 0.043494 0.191464
C18   C     C_R   0.100693 0.483759 0.209163 0.376731
C19   C     C_R   0.926367 0.480871 0.766497 -0.243193
C20   C     C_R   0.826073 0.451914 0.825752 0.284344
C21   C     C_R   0.885880 0.466810 0.919421 -0.211742
C22   C     C_R   0.050320 0.505061 0.955996 0.119709
C23   C     C_R   0.148575 0.540911 0.895284 -0.012297
C24   C     C_R   0.119444 0.509162 0.050980 0.080411
C25   C     C_R   0.286098 0.549539 0.082850 0.049557
C26   C     C_R   0.377619 0.584711 0.022035 -0.121084
C27   C     C_R   0.309461 0.582907 0.931772 -0.108592
C28   C     C_R   0.031437 0.472317 0.114962 -0.178836
C29   C     C_R   0.260512 0.531222 0.238409 -0.404291
C30   C     C_R   0.084158 0.530920 0.799212 0.128252
H30   H     H_    0.909926 0.433000 0.093265 0.166295
H31   H     H_    0.877845 0.467745 0.694027 0.143137
H32   H     H_    0.801882 0.445665 0.961774 0.148623
H33   H     H_    0.386354 0.613574 0.890421 0.186463
C31   C     C_R   0.338645 0.823642 0.446329 0.135662
H34   H     H_    0.383662 0.691637 0.459416 0.148268
H35   H     H_    0.188601 0.954992 0.396707 0.208594
C32   C     C_R   0.589021 0.795174 0.528478 0.199601
C33   C     C_R   0.746478 0.237813 0.559482 -0.321767
C34   C     C_R   0.852214 0.179795 0.581754 0.205060
C35   C     C_R   0.795514 0.086262 0.562083 -0.194169
C36   C     C_R   0.630701 0.047726 0.525678 0.121130
C37   C     C_R   0.531005 0.106328 0.492387 0.039520
C38   C     C_R   0.565674 0.951907 0.513632 0.007681
C39   C     C_R   0.405657 0.917256 0.462547 -0.018183
C40   C     C_R   0.312627 0.977234 0.431084 -0.205446
C41   C     C_R   0.374181 0.068588 0.444076 -0.042959
C42   C     C_R   0.648989 0.890073 0.554485 -0.207346
C43   C     C_R   0.434941 0.763428 0.473800 -0.378509
C44   C     C_R   0.590950 0.201407 0.506803 0.276286
H36   H     H_    0.795409 0.309332 0.567141 0.137144
H37   H     H_    0.886005 0.044660 0.568406 0.155085
H38   H     H_    0.294470 0.108883 0.415757 0.198067
C45   C     C_2   0.277922 0.878776 0.702062 1.257653
O25   O     O_2   0.394940 0.850477 0.679487 -0.681619
O26   O     O_R   0.217294 0.943969 0.659943 -0.733854
H39   H     H_    0.282551 0.964072 0.614019 0.354650
C46   C     C_2   0.921911 0.231323 0.365503 1.010118
O27   O     O_2   0.018103 0.290522 0.420589 -0.502050
O28   O     O_R   0.817187 0.168480 0.395947 -0.805760
H40   H     H_    0.722975 0.132155 0.347312 0.318194
N1    N     N_R   0.963615 0.123326 0.127848 0.295221
O29   O     O_R   0.887920 0.172545 0.080424 -0.264674
O30   O     O_R   0.999199 0.049712 0.085390 -0.320032
N2    N     N_R   0.900973 0.058188 0.252634 0.193492
O31   O     O_R   0.962221 0.032821 0.326206 -0.452317
O32   O     O_R   0.756957 0.017324 0.208144 -0.379082
N3    N     N_R   0.674134 0.643100 0.782166 0.218719
O33   O     O_R   0.711842 0.641549 0.868611 -0.433682
O34   O     O_R   0.680662 0.573603 0.721312 -0.394802
C47   C     C_2   0.312904 0.294778 0.226844 0.943857
O35   O     O_2   0.217255 0.282737 0.155039 -0.578660
O36   O     O_R   0.319999 0.370968 0.293126 -0.770801
H41   H     H_    0.434411 0.405247 0.317781 0.316472
N4    N     N_R   0.588854 0.293017 0.235884 0.180726
O37   O     O_R   0.615444 0.324088 0.163489 -0.357750
O38   O     O_R   0.691591 0.318679 0.311414 -0.444765
C48   C     C_2   0.135180 0.281150 0.825152 0.945189
O39   O     O_2   0.019664 0.318506 0.823302 -0.779679
O40   O     O_R   0.285418 0.326284 0.877001 -0.694946
H42   H     H_    0.280791 0.387034 0.914605 0.332679
C49   C     C_2   0.108219 0.107340 0.904839 1.085436
O41   O     O_2   0.033275 0.031567 0.903085 -0.543344
O42   O     O_R   0.122120 0.175128 0.981418 -0.691197
H43   H     H_    0.203903 0.231392 0.982711 0.334184
N5    N     N_R   0.547368 0.142788 0.747886 0.234374
O43   O     O_R   0.462054 0.136499 0.667526 -0.378647
O44   O     O_R   0.533283 0.072156 0.785759 -0.373183
N6    N     N_R   0.094333 0.728642 0.166578 0.207698
O45   O     O_R   0.169463 0.718615 0.098021 -0.476191
O46   O     O_R   0.971149 0.666631 0.168726 -0.323794
N7    N     N_R   0.615876 0.207509 0.951773 0.288783
O47   O     O_R   0.542588 0.271360 0.982734 -0.342090
O48   O     O_R   0.584928 0.128791 0.974334 -0.320869
C50   C     C_2   0.773202 0.923901 0.638150 1.041326
O49   O     O_2   0.904000 0.900487 0.644230 -0.588006
O50   O     O_R   0.741787 0.985754 0.709027 -0.762808
H44   H     H_    0.836470 0.005954 0.761793 0.336672
C51   C     C_2   0.247083 0.911966 0.131550 1.134621
O51   O     O_2   0.389926 0.938296 0.167350 -0.646140
O52   O     O_R   0.198980 0.901094 0.037106 -0.706433
H45   H     H_    0.293786 0.917186 0.005807 0.332986

loop_
_geom_bond_atom_site_label_1
_geom_bond_atom_site_label_2
_geom_bond_distance
_ccdc_geom_bond_type
C24   C25   1.422370 A    
C22   C24   1.452622 A    
C24   C28   1.444075 A    
P2    Ba1   3.466852 S    
N7    O48   1.301160 A    
C45   O25   1.219408 D    
C2    H4    1.106579 S    
C5    C45   1.508449 S    
P4    C30   1.925301 S    
N2    O31   1.301040 A    
C45   O26   1.393580 S    
C49   O41   1.219912 D    
C31   C39   1.413405 A    
O28   H40   1.012163 S    
P4    O15   1.741628 S    
C22   C23   1.449280 A    
C39   C40   1.398802 A    
C32   C43   1.398856 A    
C36   C38   1.446212 A    
C5    H8    1.110714 S    
O19   C13   1.403513 S    
P3    O11   1.759297 S    
O1    Ba1   2.864632 S    
C9    H13   1.111435 S    
C2    C3    1.539802 S    
C42   C50   1.473180 S    
O6    C10   1.408725 S    
O11   C2    1.413813 S    
N5    O44   1.301420 A    
C6    H10   1.096545 S    
Ba1   O13   2.842872 S    
C12   H19   1.106749 S    
P1    C18   1.912715 S    
O40   H42   1.011546 S    
P3    C31   1.862814 S    
C11   N4    1.422091 S    
C11   C12   1.538306 S    
P7    O22   1.784685 S    
C8    H12   1.100834 S    
C21   H32   1.077755 S    
C4    C5    1.532700 S    
H29   C26   1.077825 S    
O2    Ba1   2.997576 S    
C3    H21   1.103231 S    
P5    C34   1.850170 S    
C18   C29   1.396905 A    
O42   H43   1.008396 S    
C13   C14   1.535734 S    
P2    O10   1.758020 S    
C14   C49   1.499583 S    
C4    H6    1.097249 S    
C3    C51   1.501560 S    
C1    H2    1.109585 S    
H1    C10   1.112371 S    
C27   H33   1.079065 S    
O3    Ba1   2.844502 S    
P4    O13   1.581886 S    
N1    O29   1.300234 A    
H35   C40   1.073005 S    
C19   C30   1.400185 A    
C3    H5    1.111884 S    
C50   O50   1.391717 S    
P7    O21   1.556945 D    
C1    C10   1.516735 S    
C35   C36   1.412609 A    
C49   O42   1.391085 S    
O2    Ba2   2.843485 S    
O8    Ba1   2.834339 S    
O17   Ba2   2.835096 S    
C51   O52   1.397288 S    
Ba1   Ba2   4.676213 S    
P5    O17   1.742878 S    
O16   P7    1.817408 S    
C31   C43   1.398633 A    
O3    P6    1.736859 S    
C14   H23   1.104003 S    
C16   H27   1.111062 S    
C23   C27   1.395406 A    
C12   H20   1.110455 S    
C47   O36   1.386143 S    
C37   C44   1.424523 A    
C17   C29   1.406257 A    
C4    O15   1.393729 S    
P1    O5    1.796248 S    
P1    O2    1.581916 S    
C7    N1    1.463702 S    
H26   C16   1.105525 S    
P8    O24   1.753568 S    
C33   H36   1.082439 S    
C23   C30   1.444484 A    
C35   H37   1.077213 S    
C13   C48   1.500088 S    
C20   C21   1.395662 A    
C6    C46   1.491545 S    
P5    O19   1.748733 S    
C38   C39   1.424501 A    
P8    O23   1.544440 D    
P1    Ba1   3.455141 S    
C2    N6    1.462635 S    
H28   C29   1.081706 S    
C11   O22   1.419851 S    
C21   C22   1.409479 A    
P8    C20   1.849639 S    
C1    H3    1.105485 S    
C46   O27   1.213112 D    
N4    O38   1.284284 A    
O13   Ba2   2.998446 S    
P4    O12   1.558959 D    
O5    C6    1.423463 S    
P2    O7    1.552807 D    
C8    N3    1.449674 S    
C13   H22   1.113278 S    
O14   P8    1.743944 S    
P3    O8    1.742554 S    
P7    C44   1.868163 S    
C50   O49   1.217005 D    
Ba2   O21   2.883243 S    
O10   C8    1.392009 S    
O7    Ba1   2.883031 S    
N3    O33   1.302592 A    
C41   H38   1.075201 S    
O12   Ba2   2.865205 S    
N7    O47   1.299386 A    
C10   H16   1.107765 S    
C51   O51   1.221995 D    
C37   C41   1.396039 A    
P5    O18   1.541702 D    
C17   C25   1.420535 A    
O52   H45   1.013586 S    
C19   H31   1.081938 S    
C38   C42   1.433233 A    
C9    H15   1.106891 S    
N6    O46   1.300760 A    
O36   H41   1.007341 S    
N3    O34   1.294976 A    
N2    O32   1.301833 A    
C15   C16   1.542736 S    
C15   O24   1.409588 S    
C11   C47   1.495160 S    
O26   H39   1.010455 S    
O14   Ba2   2.843826 S    
C47   O35   1.218658 D    
C1    H17   1.109702 S    
C32   C42   1.419525 A    
Ba1   O20   2.992907 S    
C36   C37   1.427957 A    
O16   Ba2   2.992036 S    
C16   N7    1.458804 S    
C5    H9    1.110110 S    
Ba2   O20   2.847248 S    
Ba1   O16   2.847852 S    
C7    H11   1.108592 S    
C7    N2    1.464676 S    
C48   O40   1.393201 S    
P6    C17   1.855881 S    
O6    P6    1.746042 S    
P2    C32   1.871256 S    
C33   C44   1.405853 A    
N5    O43   1.295381 A    
O50   H44   1.008414 S    
C28   H30   1.077661 S    
C6    C7    1.554241 S    
C12   H18   1.105379 S    
C15   N5    1.464500 S    
P4    Ba2   3.455779 S    
H34   C43   1.082325 S    
P1    O1    1.558525 D    
C9    H14   1.111050 S    
C8    C9    1.532073 S    
C4    H7    1.113212 S    
C33   C34   1.404140 A    
C46   O28   1.387097 S    
P2    O20   1.589768 S    
N4    O37   1.301510 A    
C18   C28   1.424833 A    
C15   H25   1.110230 S    
C25   C26   1.411972 A    
C19   C20   1.405198 A    
P3    O9    1.544205 D    
C40   C41   1.375867 A    
C34   C35   1.394561 A    
N1    O30   1.299998 A    
O4    P6    1.545781 D    
N6    O45   1.299752 A    
C14   H24   1.103568 S    
C26   C27   1.392235 A    
C48   O39   1.211926 D    
