data_mof_unit_38679.cif
_audit_creation_date              2012-12-11T17:01:17-0500
_audit_creation_method            fapswitch 2.2
_symmetry_space_group_name_H-M    P1
_symmetry_Int_Tables_number       1
_space_group_crystal_system       triclinic
_cell_length_a                    19.39092
_cell_length_b                    7.109709
_cell_length_c                    17.572109
_cell_angle_alpha                 90.000022
_cell_angle_beta                  108.538089
_cell_angle_gamma                 90.0
_cell_volume                      2296.85725135

loop_
_atom_site_label
_atom_site_type_symbol
_atom_type_description
_atom_site_fract_x
_atom_site_fract_y
_atom_site_fract_z
_atom_type_partial_charge
O1    O     O_R   0.413720 0.494330 0.415730 -0.536254
O2    O     O_R   0.586280 0.994330 0.584270 -0.536254
O3    O     O_R   0.560210 0.819300 0.430070 -0.542616
O4    O     O_R   0.439790 0.319300 0.569930 -0.542616
C1    C     C_R   0.581553 0.655396 0.414601 0.712778
C2    C     C_R   0.418447 0.155396 0.585399 0.712778
O5    O     O_R   0.412670 0.823730 0.406310 -0.542226
O6    O     O_R   0.587330 0.323730 0.593690 -0.542226
O7    O     O_R   0.437690 0.998790 0.560340 -0.539453
O8    O     O_R   0.562310 0.498790 0.439660 -0.539453
C3    C     C_R   0.385478 0.655210 0.383313 0.691518
C4    C     C_R   0.614522 0.155210 0.616687 0.691517
O9    O     O_3   0.508380 0.662350 0.550560 -0.374970
O10   O     O_3   0.491620 0.162350 0.449440 -0.374970
V1    V     V_3+5 0.498450 0.935370 0.490620 1.385980
V2    V     V_3+5 0.501550 0.435370 0.509380 1.385980
C5    C     C_R   0.698851 0.989709 0.737593 0.106757
C6    C     C_R   0.301149 0.489709 0.262407 0.106757
C7    C     C_R   0.681653 0.147113 0.687068 -0.110103
C8    C     C_R   0.318346 0.647113 0.312932 -0.110102
C9    C     C_R   0.730050 0.300617 0.707113 -0.183109
C10   C     C_R   0.269950 0.800617 0.292887 -0.183110
H1    H     H_    0.719109 0.425634 0.670304 0.138754
H2    H     H_    0.280891 0.925634 0.329696 0.138754
C11   C     C_R   0.795763 0.289077 0.771306 -0.183581
C12   C     C_R   0.204237 0.789077 0.228694 -0.183581
H3    H     H_    0.832997 0.406705 0.782477 0.136085
H4    H     H_    0.167003 0.906706 0.217523 0.136085
C13   C     C_R   0.815350 0.123101 0.817130 -0.107979
C14   C     C_R   0.184650 0.623100 0.182870 -0.107979
C15   C     C_R   0.763867 0.978013 0.800888 0.108213
C16   C     C_R   0.236132 0.478013 0.199112 0.108213
C17   C     C_3   0.772312 0.774201 0.786312 -0.422172
C18   C     C_3   0.227688 0.274202 0.213688 -0.422172
C19   C     C_3   0.701292 0.786938 0.717380 -0.403570
C20   C     C_3   0.298708 0.286938 0.282620 -0.403570
H5    H     H_    0.768299 0.685431 0.836815 0.173488
H6    H     H_    0.231700 0.185431 0.163185 0.173488
H7    H     H_    0.820230 0.745770 0.766271 0.172314
H8    H     H_    0.179770 0.245770 0.233729 0.172314
H9    H     H_    0.656315 0.705650 0.728175 0.175315
H10   H     H_    0.343685 0.205650 0.271824 0.175315
H11   H     H_    0.708073 0.765524 0.657465 0.168824
H12   H     H_    0.291927 0.265524 0.342535 0.168824
C21   C     C_R   0.322723 0.300636 0.634329 -0.220739
C22   C     C_R   0.677277 0.800636 0.365671 -0.220740
C23   C     C_R   0.369100 0.148100 0.634739 -0.085104
C24   C     C_R   0.630900 0.648100 0.365261 -0.085105
C25   C     C_R   0.368064 0.989969 0.682465 -0.202779
C26   C     C_R   0.631936 0.489969 0.317535 -0.202779
C27   C     C_R   0.322134 0.984775 0.730279 0.055220
C28   C     C_R   0.677866 0.484774 0.269721 0.055220
C29   C     C_R   0.275096 0.137110 0.728677 0.047219
C30   C     C_R   0.724904 0.637110 0.271323 0.047219
C31   C     C_R   0.275151 0.295194 0.680053 0.104584
C32   C     C_R   0.724849 0.795194 0.319947 0.104584
C33   C     C_R   0.323255 0.830751 0.780424 -0.264597
C34   C     C_R   0.676745 0.330751 0.219576 -0.264597
C35   C     C_R   0.278103 0.825685 0.829133 0.288918
C36   C     C_R   0.721897 0.325685 0.170867 0.288918
C37   C     C_R   0.228422 0.974396 0.825131 0.057108
C38   C     C_R   0.771577 0.474395 0.174869 0.057108
C39   C     C_R   0.227882 0.131545 0.775560 -0.011639
C40   C     C_R   0.772118 0.631545 0.224439 -0.011639
C41   C     C_R   0.180194 0.283780 0.772789 0.110976
C42   C     C_R   0.819806 0.783780 0.227211 0.110976
C43   C     C_R   0.180192 0.439019 0.723448 -0.178252
C44   C     C_R   0.819808 0.939020 0.276552 -0.178252
C45   C     C_R   0.227491 0.445073 0.677805 -0.203354
C46   C     C_R   0.772509 0.945073 0.322195 -0.203354
C47   C     C_R   0.178975 0.969436 0.869022 -0.207033
C48   C     C_R   0.821024 0.469436 0.130978 -0.207033
C49   C     C_R   0.131851 0.121211 0.867070 -0.103235
C50   C     C_R   0.868148 0.621211 0.132930 -0.103235
C51   C     C_R   0.133405 0.278793 0.819439 -0.191089
C52   C     C_R   0.866595 0.778793 0.180560 -0.191089
H13   H     H_    0.322781 0.422602 0.597289 0.123294
H14   H     H_    0.677219 0.922601 0.402711 0.123294
H15   H     H_    0.404055 0.872533 0.683589 0.126339
H16   H     H_    0.595945 0.372533 0.316411 0.126339
H17   H     H_    0.360274 0.714915 0.782884 0.133782
H18   H     H_    0.639726 0.214915 0.217115 0.133782
H19   H     H_    0.177410 0.848155 0.905725 0.165726
H20   H     H_    0.822590 0.348155 0.094274 0.165726
H21   H     H_    0.097175 0.396165 0.817488 0.127248
H22   H     H_    0.902824 0.896166 0.182512 0.127248
H23   H     H_    0.144119 0.556985 0.720842 0.132308
H24   H     H_    0.855881 0.056985 0.279157 0.132308
H25   H     H_    0.226866 0.567393 0.640796 0.133377
H26   H     H_    0.773134 0.067393 0.359204 0.133377
O11   O     O_R   0.937800 0.775460 0.060470 -0.535392
O12   O     O_R   0.062200 0.275460 0.939530 -0.535392
O13   O     O_R   0.087350 0.441340 0.093710 -0.537980
O14   O     O_R   0.912650 0.941340 0.906290 -0.537980
C53   C     C_R   0.114759 0.610306 0.116349 0.692991
C54   C     C_R   0.885241 0.110306 0.883651 0.692991
O15   O     O_R   0.939820 0.446010 0.069950 -0.543502
O16   O     O_R   0.060180 0.946010 0.930050 -0.543503
O17   O     O_R   0.913690 0.271230 0.915700 -0.540362
O18   O     O_R   0.086310 0.771230 0.084300 -0.540363
C55   C     C_R   0.918423 0.614225 0.084621 0.704310
C56   C     C_R   0.081577 0.114224 0.915379 0.704310
O19   O     O_3   0.991670 0.603050 0.949510 -0.374882
O20   O     O_3   0.008330 0.103050 0.050490 -0.374882
V3    V     V_3+5 0.001550 0.329940 0.009370 1.396711
V4    V     V_3+5 0.998450 0.829940 0.990630 1.396711
N1    N     N_2   0.283304 0.670616 0.882035 -0.520617
H27   H     H_    0.298574 0.546542 0.861490 0.269562
C57   C     C_3   0.326714 0.707596 0.964302 -0.572891
H28   H     H_    0.384340 0.732373 0.968197 0.196234
H29   H     H_    0.324244 0.584318 0.002156 0.200744
H30   H     H_    0.305878 0.832219 0.988242 0.202804
N2    N     N_2   0.716696 0.170616 0.117964 -0.520617
H31   H     H_    0.701426 0.046542 0.138510 0.269562
C58   C     C_3   0.673286 0.207596 0.035698 -0.572891
H32   H     H_    0.615660 0.232373 0.031803 0.196234
H33   H     H_    0.675756 0.084317 0.997844 0.200744
H34   H     H_    0.694122 0.332218 0.011757 0.202804

loop_
_geom_bond_atom_site_label_1
_geom_bond_atom_site_label_2
_ccdc_geom_bond_type
C42   C44   A    
C39   C41   A    
N1    C57   S    
C20   H10   S    
O1    C3    A    
O2    C4    A    
C2    O7    A    
O20   V4    S    
C23   C25   A    
O5    C3    A    
C17   H7    S    
C50   C52   A    
C18   H8    S    
C7    C9    A    
C57   H29   S    
C17   C19   S    
C33   C35   A    
C34   C36   A    
C58   H32   S    
C54   O17   A    
C36   C38   A    
C21   C23   A    
C37   C39   A    
C38   C40   A    
O13   V3    S    
C51   H21   S    
C25   C27   A    
C26   C28   A    
N1    H27   S    
C15   C17   S    
C27   C33   A    
C19   H11   S    
C18   C20   S    
O12   C56   A    
O15   V3    S    
C37   C47   A    
C24   C26   A    
O6    V2    S    
C49   C51   A    
O11   V4    S    
C36   N2    S    
C46   H26   S    
O11   C55   A    
C45   H25   S    
O20   V3    S    
C28   C30   A    
C47   H19   S    
C29   C31   A    
C11   C13   A    
O17   V3    S    
C1    C24   S    
C22   C24   A    
C3    C8    S    
C35   C37   A    
C2    C23   S    
C48   C50   A    
C9    C11   A    
C57   H30   S    
C22   H14   S    
C53   O18   A    
C41   C43   A    
O16   C56   A    
C35   N1    S    
C25   H15   S    
C43   H23   S    
C43   C45   A    
C40   C42   A    
O4    V2    S    
C14   C53   S    
O6    C4    A    
C58   H34   S    
C42   C52   A    
C38   C48   A    
O19   V3    S    
O1    V2    S    
C48   H20   S    
O14   C54   A    
O2    V1    S    
C31   C45   A    
C28   C34   A    
C50   C55   S    
O4    C2    A    
C49   C56   S    
C8    C10   A    
C12   C14   A    
C32   C46   A    
C9    H1    S    
C44   H24   S    
C10   H2    S    
C20   H12   S    
C6    C16   A    
C52   H22   S    
O3    V1    S    
C47   C49   A    
N2    H31   S    
C58   H33   S    
O14   V4    S    
C18   H6    S    
O18   V4    S    
O3    C1    A    
C26   H16   S    
C13   C54   S    
C30   C32   A    
C11   H3    S    
C12   H4    S    
O16   V4    S    
C34   H18   S    
O7    V1    S    
C1    O8    A    
C13   C15   A    
O8    V2    S    
C57   H28   S    
C14   C16   A    
C29   C39   A    
C30   C40   A    
C5    C15   A    
C4    C7    S    
O5    V1    S    
C5    C7    A    
O19   V4    S    
C6    C8    A    
C19   H9    S    
C33   H17   S    
C17   H5    S    
O12   V3    S    
C21   C31   A    
O13   C53   A    
C10   C12   A    
O9    V2    S    
C22   C32   A    
C44   C46   A    
O10   V1    S    
C21   H13   S    
C5    C19   S    
C27   C29   A    
C6    C20   S    
O15   C55   A    
C41   C51   A    
C16   C18   S    
N2    C58   S    
