data_mof_unit_36930.cif
_audit_creation_date              2012-12-10T19:16:08-0500
_audit_creation_method            fapswitch 2.2
_symmetry_space_group_name_H-M    P1
_symmetry_Int_Tables_number       1
_space_group_crystal_system       triclinic
_cell_length_a                    14.745922
_cell_length_b                    15.826429
_cell_length_c                    15.980323
_cell_angle_alpha                 89.859938
_cell_angle_beta                  89.899247
_cell_angle_gamma                 69.728057
_cell_volume                      3498.39575915

loop_
_atom_site_label
_atom_site_type_symbol
_atom_type_description
_atom_site_fract_x
_atom_site_fract_y
_atom_site_fract_z
_atom_type_partial_charge
C1    C     C_R   0.500085 0.499861 0.340878 0.807771
C2    C     C_R   0.499875 0.500201 0.659132 0.817624
C3    C     C_R   0.615646 0.903345 0.467762 -0.291551
C4    C     C_R   0.384211 0.096909 0.465866 -0.309187
C5    C     C_R   0.684030 0.945947 0.466956 0.429373
C6    C     C_R   0.315598 0.054354 0.466299 0.431023
C7    C     C_R   0.586601 0.454942 0.955795 0.297677
C8    C     C_R   0.411175 0.526832 0.044349 0.326720
C9    C     C_R   0.498658 0.491935 0.912633 -0.213027
C10   C     C_R   0.499629 0.492570 0.087394 -0.209398
C11   C     C_R   0.410448 0.525570 0.956569 0.321242
C12   C     C_R   0.587272 0.456973 0.043552 0.294509
C13   C     C_1   0.499600 0.496393 0.823090 0.097439
C14   C     C_1   0.500585 0.495669 0.176978 0.109858
C15   C     C_1   0.500715 0.497930 0.251926 -0.182759
C16   C     C_1   0.500063 0.498750 0.748119 -0.183148
C17   C     C_R   0.942062 0.526506 0.571885 0.472975
C18   C     C_R   0.060477 0.466923 0.430308 0.474076
C19   C     C_R   0.903585 0.498126 0.500816 -0.096777
C20   C     C_R   0.097845 0.498122 0.500344 -0.104089
C21   C     C_R   0.963856 0.468168 0.430548 -0.341286
C22   C     C_R   0.037869 0.527382 0.570775 -0.355176
C23   C     C_R   0.558418 0.326962 0.498640 0.825953
C24   C     C_R   0.441531 0.673088 0.499032 0.833816
C25   C     C_1   0.803030 0.499196 0.500135 0.201051
C26   C     C_1   0.197511 0.499380 0.500296 0.192993
C27   C     C_R   0.594455 0.227995 0.491267 -0.139443
C28   C     C_R   0.405307 0.772212 0.492472 -0.141022
C29   C     C_R   0.722178 0.083723 0.471848 -0.288611
C30   C     C_R   0.277514 0.916645 0.473519 -0.277620
C31   C     C_R   0.692987 0.177773 0.478434 0.432477
C32   C     C_R   0.306708 0.822585 0.480270 0.433600
C33   C     C_R   0.526794 0.184265 0.492253 -0.307175
C34   C     C_R   0.472831 0.816037 0.493720 -0.298399
C35   C     C_R   0.553908 0.091223 0.478779 0.055497
C36   C     C_R   0.445779 0.909127 0.479955 0.052353
C37   C     C_R   0.653810 0.040033 0.472339 0.007922
C38   C     C_R   0.345905 0.960330 0.473113 0.015161
C39   C     C_R   0.484145 0.047828 0.474335 0.022323
C40   C     C_R   0.515577 0.952475 0.475118 0.015364
Cu1   Cu    Cu3+1 0.589210 0.500030 0.500000 0.991028
Cu2   Cu    Cu3+1 0.410790 0.499970 0.500000 0.979630
H1    H     H_    0.546716 0.776044 0.507616 0.177107
H2    H     H_    0.452768 0.224121 0.506018 0.171360
H3    H     H_    0.798612 0.045185 0.466577 0.175048
H4    H     H_    0.201047 0.955181 0.468605 0.177997
H5    H     H_    0.643530 0.831405 0.458819 0.162185
H6    H     H_    0.357080 0.168540 0.454615 0.149223
H7    H     H_    0.065179 0.551385 0.625268 0.168983
H8    H     H_    0.935961 0.445888 0.375383 0.165776
N1    N     N_1   0.276700 0.500030 0.499980 -0.157514
N2    N     N_1   0.723300 0.499970 0.500020 -0.153564
O1    O     O_R   0.575310 0.500040 0.380310 -0.577543
O2    O     O_R   0.424690 0.499960 0.619690 -0.574307
O3    O     O_R   0.424640 0.500000 0.380310 -0.579639
O4    O     O_R   0.575360 0.500000 0.619690 -0.563533
O5    O     O_R   0.617590 0.370200 0.500000 -0.523427
O6    O     O_R   0.382410 0.629800 0.500000 -0.522646
O7    O     O_R   0.466910 0.370160 0.500000 -0.595759
O8    O     O_R   0.533090 0.629840 0.500000 -0.588469
O9    O     O_3   0.780681 0.894955 0.456164 -0.614115
C41   C     C_3   0.819679 0.858197 0.534286 0.034619
H9    H     H_    0.782020 0.813402 0.559439 0.157061
H10   H     H_    0.813208 0.913014 0.580132 0.143064
C42   C     C_3   0.926568 0.802331 0.522875 -0.315768
H11   H     H_    0.933559 0.745388 0.479739 0.228612
H12   H     H_    0.964596 0.845066 0.494625 0.224573
C43   C     C_3   0.974327 0.764968 0.606175 -0.885765
H13   H     H_    0.971040 0.820904 0.649280 0.254623
H14   H     H_    0.051369 0.723589 0.595476 0.265209
H15   H     H_    0.937489 0.722018 0.635721 0.278578
O10   O     O_3   0.218803 0.104408 0.454150 -0.624214
C44   C     C_3   0.181118 0.153617 0.527631 0.021787
H16   H     H_    0.213782 0.206475 0.538047 0.135847
H17   H     H_    0.195163 0.108217 0.583306 0.146538
C45   C     C_3   0.071882 0.199192 0.517872 -0.304974
H18   H     H_    0.056346 0.240360 0.459861 0.208690
H19   H     H_    0.037707 0.146915 0.512279 0.224333
C46   C     C_3   0.027720 0.260047 0.592114 -0.946126
H20   H     H_    0.042121 0.220518 0.651192 0.259149
H21   H     H_    0.948303 0.290735 0.583466 0.264397
H22   H     H_    0.058302 0.314912 0.596699 0.245663
O11   O     O_3   0.238991 0.779885 0.480649 -0.564169
C47   C     C_3   0.188844 0.793911 0.403584 0.054338
H23   H     H_    0.234315 0.799875 0.349450 0.137834
H24   H     H_    0.123807 0.855985 0.407400 0.142630
C48   C     C_3   0.156490 0.714144 0.386504 -0.737747
H25   H     H_    0.112420 0.704214 0.439424 0.245394
H26   H     H_    0.112629 0.726213 0.328388 0.198858
H27   H     H_    0.220673 0.652072 0.378626 0.257462
O12   O     O_3   0.760557 0.220681 0.478201 -0.567393
C49   C     C_3   0.812708 0.204796 0.401992 0.076081
H28   H     H_    0.770080 0.193996 0.347911 0.136157
H29   H     H_    0.879516 0.144831 0.409007 0.142343
C50   C     C_3   0.841196 0.286188 0.381449 -0.784714
H30   H     H_    0.881219 0.301484 0.434582 0.245810
H31   H     H_    0.887897 0.272416 0.324900 0.193808
H32   H     H_    0.775445 0.345782 0.369257 0.256999
O13   O     O_3   0.673372 0.419923 0.086603 -0.559208
C51   C     C_3   0.715480 0.486806 0.097441 0.123011
H33   H     H_    0.664329 0.548027 0.128172 0.133666
H34   H     H_    0.738713 0.506022 0.036112 0.172028
C52   C     C_3   0.804040 0.449725 0.153211 -0.798309
H35   H     H_    0.857383 0.389179 0.123984 0.250243
H36   H     H_    0.838202 0.501544 0.162000 0.202594
H37   H     H_    0.782703 0.431071 0.215362 0.248516
O14   O     O_3   0.323715 0.564805 0.914795 -0.524184
C53   C     C_3   0.291390 0.496426 0.884040 0.084448
H38   H     H_    0.297301 0.443344 0.931817 0.097076
H39   H     H_    0.333568 0.464037 0.827890 0.144508
C54   C     C_3   0.185800 0.538131 0.858605 -0.765310
H40   H     H_    0.177649 0.589830 0.809290 0.254338
H41   H     H_    0.159688 0.485202 0.833730 0.183403
H42   H     H_    0.141176 0.570167 0.913684 0.249811
O15   O     O_3   0.673000 0.424303 0.912249 -0.559084
C55   C     C_3   0.696879 0.331329 0.897098 0.108083
H43   H     H_    0.637981 0.317353 0.862566 0.122392
H44   H     H_    0.711210 0.292845 0.957007 0.168346
C56   C     C_3   0.787885 0.298495 0.843715 -0.799313
H45   H     H_    0.848730 0.309817 0.877003 0.244703
H46   H     H_    0.807409 0.225381 0.831035 0.202215
H47   H     H_    0.775455 0.335479 0.783209 0.252981
O16   O     O_3   0.326556 0.571131 0.087478 -0.526439
C57   C     C_3   0.285523 0.508054 0.116808 0.066808
H48   H     H_    0.340524 0.443531 0.138478 0.120061
H49   H     H_    0.241487 0.493192 0.066483 0.151069
C58   C     C_3   0.219287 0.548823 0.190347 -0.742809
H50   H     H_    0.163576 0.613672 0.171551 0.249021
H51   H     H_    0.182556 0.502082 0.211488 0.235394
H52   H     H_    0.262206 0.560918 0.243048 0.249972
O17   O     O_3   0.883888 0.559268 0.640829 -0.583708
C59   C     C_3   0.904367 0.490377 0.701639 0.031492
H53   H     H_    0.980096 0.471917 0.724556 0.140202
H54   H     H_    0.892910 0.429423 0.676033 0.149584
C60   C     C_3   0.836406 0.523576 0.775671 -0.727971
H55   H     H_    0.760254 0.540088 0.755150 0.264400
H56   H     H_    0.852819 0.470381 0.824514 0.212549
H57   H     H_    0.845546 0.584648 0.802847 0.241063
O18   O     O_3   0.116844 0.439866 0.359425 -0.592279
C61   C     C_3   0.157990 0.344966 0.359758 0.076751
H58   H     H_    0.101896 0.315022 0.344931 0.150762
H59   H     H_    0.192056 0.318698 0.421219 0.137952
C62   C     C_3   0.236542 0.315029 0.293281 -0.793502
H60   H     H_    0.292862 0.345276 0.305682 0.250515
H61   H     H_    0.270659 0.240493 0.294367 0.218637
H62   H     H_    0.204950 0.336402 0.230360 0.235981

loop_
_geom_bond_atom_site_label_1
_geom_bond_atom_site_label_2
_ccdc_geom_bond_type
C60   H57   S    
C30   C32   A    
C48   H25   S    
C5    C37   A    
C17   O17   S    
C18   C21   A    
Cu1   Cu2   S    
C50   H30   S    
C47   C48   S    
Cu2   O6    S    
C50   H32   S    
O16   C57   S    
C27   C33   A    
C23   O7    A    
O11   C47   S    
C35   C37   A    
C47   H24   S    
C43   H15   S    
O15   C55   S    
C62   H61   S    
C53   H38   S    
C30   C38   A    
C23   O5    A    
C44   H16   S    
C7    O15   S    
C9    C13   S    
C49   H28   S    
C12   O13   S    
C41   H10   S    
C17   C19   A    
C47   H23   S    
C52   H36   S    
C54   H40   S    
C55   H44   S    
C59   H53   S    
C42   H12   S    
O14   C53   S    
C6    C38   A    
C1    C15   S    
C23   C27   S    
C54   H42   S    
C2    C16   S    
Cu1   N2    S    
C18   C20   A    
Cu2   N1    S    
C60   H55   S    
C28   C34   A    
C1    O1    A    
C44   H17   S    
O9    C41   S    
C49   H29   S    
C21   H8    S    
C56   H46   S    
C7    C12   A    
C8    C11   A    
C27   C31   A    
C24   O6    A    
C28   C32   A    
C45   H18   S    
C4    C6    A    
C2    O2    A    
C62   H62   S    
O12   C49   S    
C46   H21   S    
C43   H13   S    
C6    O10   S    
C49   C50   S    
C29   H3    S    
C35   C39   A    
C58   H51   S    
Cu1   O4    S    
C41   H9    S    
Cu2   O3    S    
O13   C51   S    
C4    C39   A    
C36   C40   A    
C24   O8    A    
C42   C43   S    
C51   H34   S    
C5    O9    S    
C54   H41   S    
C53   C54   S    
C61   H58   S    
C61   C62   S    
C9    C11   A    
Cu1   O1    S    
C10   C12   A    
C57   C58   S    
C8    C10   A    
C20   C22   A    
C3    C40   A    
C42   H11   S    
C31   O12   S    
C48   H26   S    
C10   C14   S    
C44   C45   S    
C48   H27   S    
O17   C59   S    
C39   C40   A    
C57   H49   S    
C4    H6    S    
C56   H47   S    
C22   H7    S    
C60   H56   S    
C32   O11   S    
C41   C42   S    
C19   C21   A    
C33   H2    S    
C30   H4    S    
C34   H1    S    
C24   C28   S    
Cu1   O8    S    
C45   H19   S    
O10   C44   S    
C3    C5    A    
Cu2   O7    S    
C46   H22   S    
O18   C61   S    
C50   H31   S    
C8    O16   S    
C61   H59   S    
C17   C22   A    
C55   C56   S    
C36   C38   A    
C62   H60   S    
C1    O3    A    
C58   H52   S    
Cu1   O5    S    
C29   C31   A    
C2    O4    A    
C26   N1    T    
Cu2   O2    S    
C11   O14   S    
C20   C26   S    
C59   C60   S    
C59   H54   S    
C3    H5    S    
C51   H33   S    
C33   C35   A    
C53   H39   S    
C55   H43   S    
C52   H37   S    
C34   C36   A    
C51   C52   S    
C18   O18   S    
C19   C25   S    
C25   N2    T    
C46   H20   S    
C7    C9    A    
C45   C46   S    
C43   H14   S    
C56   H45   S    
C13   C16   T    
C29   C37   A    
C52   H35   S    
C14   C15   T    
C58   H50   S    
C57   H48   S    
