data_mof_unit_38372.cif
_audit_creation_date              2012-10-26T20:35:50-0400
_audit_creation_method            fapswitch 2.2
_symmetry_space_group_name_H-M    P1
_symmetry_Int_Tables_number       1
_space_group_crystal_system       triclinic
_cell_length_a                    8.737115
_cell_length_b                    15.797051
_cell_length_c                    16.989678
_cell_angle_alpha                 95.60516
_cell_angle_beta                  90.639151
_cell_angle_gamma                 84.578733
_cell_volume                      2323.27122761

loop_
_atom_site_label
_atom_site_type_symbol
_atom_type_description
_atom_site_fract_x
_atom_site_fract_y
_atom_site_fract_z
_atom_type_partial_charge
C1    C     C_R   0.496039 0.490528 0.348279 0.560595
C2    C     C_R   0.378667 0.161043 0.433235 -0.126578
C3    C     C_R   0.613741 0.750143 0.562472 0.027314
C4    C     C_R   0.386213 0.249863 0.437548 0.026576
C5    C     C_R   0.205444 0.521872 0.500957 0.556275
C6    C     C_R   0.794555 0.478128 0.499042 0.555376
C7    C     C_2   0.040619 0.533914 0.501542 -0.145145
C8    C     C_2   0.959381 0.466086 0.498455 -0.144969
C9    C     C_R   0.482894 0.488132 0.261844 -0.034615
C10   C     C_R   0.517075 0.511962 0.738153 -0.042401
C11   C     C_R   0.458234 0.564904 0.226325 -0.140519
C12   C     C_R   0.503948 0.509480 0.651718 0.563073
C13   C     C_R   0.543144 0.435294 0.773750 -0.122805
C14   C     C_R   0.441211 0.564426 0.144474 0.228079
C15   C     C_R   0.560227 0.435991 0.855629 0.280670
C16   C     C_R   0.454876 0.485341 0.097109 0.233290
C17   C     C_R   0.545294 0.515104 0.902893 0.232239
C18   C     C_R   0.474438 0.408905 0.132784 -0.111480
C19   C     C_R   0.524141 0.591450 0.867148 -0.105515
C20   C     C_R   0.488695 0.410063 0.214583 -0.166437
C21   C     C_R   0.509842 0.590113 0.785345 -0.166738
C22   C     C_R   0.429727 0.757383 0.459664 0.029028
C23   C     C_R   0.570335 0.242608 0.540305 0.031989
C24   C     C_R   0.433725 0.846406 0.462018 -0.103377
C25   C     C_R   0.566346 0.153585 0.537943 -0.100512
C26   C     C_R   0.530930 0.888773 0.516501 0.212598
C27   C     C_R   0.469087 0.111225 0.483485 0.212533
C28   C     C_R   0.621295 0.838962 0.566778 -0.125261
Cu1   Cu    Cu3+1 0.492520 0.415770 0.496210 0.960964
Cu2   Cu    Cu3+1 0.507480 0.584230 0.503790 0.959138
H1    H     H_    0.985930 0.598892 0.504555 0.132777
H2    H     H_    0.354732 0.725498 0.417829 0.136406
H3    H     H_    0.638744 0.118747 0.578302 0.143418
H4    H     H_    0.361378 0.881237 0.421635 0.141818
H5    H     H_    0.697521 0.868914 0.609353 0.123838
H6    H     H_    0.302403 0.131096 0.390678 0.121706
H7    H     H_    0.684160 0.712685 0.601629 0.130974
H8    H     H_    0.315754 0.287327 0.398412 0.129416
H9    H     H_    0.735483 0.295950 0.996861 0.368288
H10   H     H_    0.631175 0.697636 0.116203 0.348902
H11   H     H_    0.014070 0.401108 0.495441 0.133406
H12   H     H_    0.552698 0.374658 0.737595 0.170735
H13   H     H_    0.449836 0.625502 0.262530 0.164154
H14   H     H_    0.481911 0.348199 0.096765 0.178184
H15   H     H_    0.515448 0.652203 0.903099 0.205446
H16   H     H_    0.505520 0.349996 0.240690 0.148965
H17   H     H_    0.491816 0.650107 0.759183 0.154951
H18   H     H_    0.645373 0.274488 0.582121 0.137574
N1    N     N_2   0.449843 0.480454 0.013776 -0.135455
N2    N     N_2   0.550359 0.520062 0.986219 -0.129950
N3    N     N_R   0.518730 0.710760 0.509500 -0.228512
N4    N     N_R   0.481270 0.289240 0.490500 -0.228403
N5    N     N_2   0.542048 0.979531 0.523092 -0.227649
N6    N     N_2   0.457971 0.020466 0.476892 -0.228666
O1    O     O_R   0.493000 0.421040 0.382520 -0.502603
O2    O     O_2   0.679632 0.272146 0.835031 -0.270671
O3    O     O_3   0.726529 0.351173 0.973351 -0.495367
O4    O     O_2   0.286569 0.652533 0.036521 -0.214972
O5    O     O_2   0.328533 0.729871 0.165699 -0.273794
O6    O     O_3   0.560638 0.695779 0.070147 -0.485172
O7    O     O_R   0.507000 0.578960 0.617480 -0.501155
O8    O     O_R   0.505640 0.563310 0.388930 -0.506305
O9    O     O_R   0.494360 0.436690 0.611070 -0.503961
O10   O     O_R   0.269980 0.445280 0.497530 -0.499777
O11   O     O_R   0.730020 0.554720 0.502470 -0.500852
O12   O     O_R   0.282610 0.587550 0.503940 -0.497210
O13   O     O_R   0.717390 0.412450 0.496060 -0.498025
O14   O     O_2   0.459649 0.306920 0.924335 -0.260421
S1    S     S_3+6 0.605404 0.337746 0.896453 0.040482
S2    S     S_3+6 0.398157 0.663101 0.103938 0.044095

loop_
_geom_bond_atom_site_label_1
_geom_bond_atom_site_label_2
_ccdc_geom_bond_type
C17   N2    S    
C2    C4    A    
Cu2   N3    S    
Cu1   O9    S    
C11   H13   S    
C2    C27   A    
H10   O6    S    
C18   H14   S    
C25   C27   A    
C14   S2    S    
C9    C20   A    
C26   C28   A    
O6    S2    S    
C5    O10   A    
O3    S1    S    
C1    O8    A    
C13   C15   A    
C1    O1    A    
Cu1   O10   S    
C5    C7    S    
C7    C8    D    
Cu2   O12   S    
N5    N6    D    
C16   N1    S    
C12   O7    A    
C9    C11   A    
C23   N4    A    
Cu1   Cu2   S    
C22   H2    S    
C4    N4    A    
C10   C13   A    
C10   C12   S    
C6    O13   A    
C19   C21   A    
C4    H8    S    
C13   H12   S    
O2    S1    D    
C22   C24   A    
Cu2   O8    S    
C10   C21   A    
C22   N3    A    
C15   S1    S    
C11   C14   A    
C14   C16   A    
C27   N6    S    
Cu2   O11   S    
C7    H1    S    
O5    S2    D    
H9    O3    S    
C26   N5    S    
C23   C25   A    
C1    C9    S    
C8    H11   S    
C3    H7    S    
C18   C20   A    
C16   C18   A    
N1    N2    D    
C3    C28   A    
Cu2   O7    S    
C2    H6    S    
C15   C17   A    
C12   O9    A    
C3    N3    A    
O4    S2    D    
C6    C8    S    
C23   H18   S    
Cu1   O1    S    
C17   C19   A    
Cu1   O13   S    
O14   S1    D    
C6    O11   A    
C20   H16   S    
C19   H15   S    
C24   C26   A    
C28   H5    S    
C25   H3    S    
C5    O12   A    
C21   H17   S    
Cu1   N4    S    
C24   H4    S    
