data_mof_unit_61808.cif
_audit_creation_date              2012-12-10T20:15:40-0500
_audit_creation_method            fapswitch 2.2
_symmetry_space_group_name_H-M    P1
_symmetry_Int_Tables_number       1
_space_group_crystal_system       triclinic
_cell_length_a                    26.334497
_cell_length_b                    36.25802
_cell_length_c                    36.285027
_cell_angle_alpha                 90.00083
_cell_angle_beta                  89.987198
_cell_angle_gamma                 90.000444
_cell_volume                      34646.2752569

loop_
_atom_site_label
_atom_site_type_symbol
_atom_type_description
_atom_site_fract_x
_atom_site_fract_y
_atom_site_fract_z
_atom_type_partial_charge
C1    C     C_R   0.611178 0.499742 0.749593 0.541844
C2    C     C_R   0.111149 0.500313 0.749857 0.540591
C3    C     C_R   0.745394 0.501135 0.461322 0.039582
C4    C     C_R   0.754626 0.001093 0.538679 0.039563
C5    C     C_R   0.752897 0.002589 0.461321 0.039426
C6    C     C_R   0.248048 0.003097 0.538680 0.039783
C7    C     C_R   0.246040 0.001783 0.461322 0.039621
C8    C     C_R   0.793172 0.520610 0.019594 -0.004376
C9    C     C_R   0.792351 0.521444 0.980368 -0.005181
C10   C     C_R   0.216087 0.528202 0.019617 -0.002956
C11   C     C_R   0.214983 0.527479 0.980397 -0.003185
C12   C     C_R   0.289012 0.024524 0.019590 -0.003194
C13   C     C_R   0.888850 0.500314 0.250144 0.541467
C14   C     C_R   0.289986 0.023677 0.980368 -0.004625
C15   C     C_R   0.710966 0.024477 0.019625 -0.004182
C16   C     C_R   0.710040 0.023694 0.980400 -0.004136
C17   C     C_R   0.294912 0.518656 0.519591 -0.004530
C18   C     C_R   0.294170 0.519506 0.480364 -0.005581
C19   C     C_R   0.710973 0.524492 0.519620 -0.004184
C20   C     C_R   0.709999 0.523669 0.480399 -0.003940
C21   C     C_R   0.790468 0.023253 0.519600 -0.004020
C22   C     C_R   0.789541 0.024062 0.480377 -0.004437
C23   C     C_R   0.216343 0.028367 0.519610 -0.002964
C24   C     C_R   0.888825 0.499750 0.750401 0.541789
C25   C     C_R   0.215258 0.027653 0.480388 -0.003203
C26   C     C_1   0.752289 0.500041 0.078389 0.018675
C27   C     C_1   0.751339 0.500919 0.921613 0.020472
C28   C     C_1   0.249377 0.501360 0.078390 0.021787
C29   C     C_1   0.248193 0.500566 0.921615 0.018830
C30   C     C_1   0.251056 0.001150 0.078383 0.020000
C31   C     C_1   0.252121 0.000235 0.921610 0.018765
C32   C     C_1   0.748953 0.001107 0.078387 0.020933
C33   C     C_1   0.747911 0.000270 0.921612 0.018687
C34   C     C_1   0.252404 0.499898 0.578388 0.018708
C35   C     C_R   0.611174 0.999754 0.249603 0.541677
C36   C     C_1   0.251523 0.500790 0.421615 0.020221
C37   C     C_1   0.748947 0.501124 0.578387 0.020995
C38   C     C_1   0.747869 0.500248 0.421613 0.018517
C39   C     C_1   0.752135 0.000231 0.578387 0.018564
C40   C     C_1   0.751095 0.001092 0.421613 0.020907
C41   C     C_1   0.249415 0.001372 0.578388 0.021986
C42   C     C_1   0.248242 0.000594 0.421615 0.018750
C43   C     C_1   0.750263 0.500172 0.888434 0.057106
C44   C     C_1   0.750725 0.499801 0.111566 0.054059
C45   C     C_1   0.249492 0.500001 0.888436 0.054073
C46   C     C_R   0.611143 0.000288 0.749884 0.541037
C47   C     C_1   0.250028 0.500365 0.111567 0.057910
C48   C     C_1   0.250646 0.999863 0.888433 0.055961
C49   C     C_1   0.250148 0.000281 0.111563 0.054826
C50   C     C_1   0.749369 0.999888 0.888434 0.054247
C51   C     C_1   0.749857 0.000251 0.111566 0.057321
C52   C     C_1   0.250343 0.500116 0.388436 0.056992
C53   C     C_1   0.250780 0.499746 0.611565 0.054078
C54   C     C_1   0.749345 0.499875 0.388435 0.053935
C55   C     C_1   0.749855 0.500261 0.611565 0.057417
C56   C     C_1   0.750163 0.000247 0.388435 0.057355
C57   C     C_R   0.388850 0.000316 0.250147 0.540153
C58   C     C_1   0.750653 0.999872 0.611565 0.053953
C59   C     C_1   0.249517 0.000017 0.388436 0.054065
C60   C     C_1   0.250044 0.000371 0.611567 0.058049
C61   C     C_R   0.749981 0.499992 0.651030 0.511915
C62   C     C_R   0.749972 0.499990 0.348971 0.509428
C63   C     C_R   0.250015 0.499996 0.651029 0.510074
C64   C     C_R   0.250014 0.499996 0.348970 0.511576
C65   C     C_R   0.249978 0.999987 0.651030 0.512238
C66   C     C_R   0.249969 0.999989 0.348971 0.509044
C67   C     C_R   0.750024 0.999992 0.651029 0.509382
C68   C     C_R   0.388819 0.999730 0.750417 0.543319
C69   C     C_R   0.750018 0.999993 0.348970 0.511732
C70   C     C_R   0.249978 0.499987 0.151030 0.512300
C71   C     C_R   0.249966 0.499987 0.848971 0.508950
C72   C     C_R   0.750019 0.499995 0.151029 0.509738
C73   C     C_R   0.750015 0.499995 0.848970 0.511522
C74   C     C_R   0.749981 0.999991 0.151030 0.511674
C75   C     C_R   0.749976 0.999992 0.848970 0.509601
C76   C     C_R   0.250018 1.000000 0.151029 0.509060
C77   C     C_R   0.250026 0.999985 0.848970 0.512128
C78   C     C_R   0.750000 0.598980 0.750000 0.505512
C79   C     C_1   0.750001 0.328267 0.750000 -0.046936
C80   C     C_R   0.750000 0.598982 0.250000 0.509168
C81   C     C_R   0.250000 0.598982 0.750000 0.509398
C82   C     C_R   0.250000 0.598980 0.250000 0.505735
C83   C     C_R   0.250000 0.098980 0.750000 0.504940
C84   C     C_R   0.250000 0.098982 0.250000 0.511187
C85   C     C_R   0.750000 0.098982 0.750000 0.509236
C86   C     C_R   0.750000 0.098980 0.250000 0.505943
C87   C     C_R   0.750000 0.401009 0.750000 0.511934
C88   C     C_R   0.750000 0.401012 0.250000 0.511215
C89   C     C_R   0.250000 0.401012 0.750000 0.511038
C90   C     C_1   0.750000 0.328269 0.250000 -0.046756
C91   C     C_R   0.250000 0.401009 0.250000 0.511963
C92   C     C_R   0.250000 0.901009 0.750000 0.512378
C93   C     C_R   0.250000 0.901012 0.250000 0.510016
C94   C     C_R   0.750000 0.901012 0.750000 0.511108
C95   C     C_R   0.750000 0.901009 0.250000 0.511652
C96   C     C_R   0.716527 0.230713 0.772958 -0.095883
C97   C     C_R   0.717221 0.230713 0.226531 -0.095570
C98   C     C_R   0.282836 0.230714 0.773426 -0.096873
C99   C     C_R   0.283091 0.230712 0.226752 -0.094676
C100  C     C_R   0.216184 0.730713 0.772693 -0.095578
C101  C     C_1   0.250001 0.328269 0.749999 -0.047076
C102  C     C_R   0.217187 0.730714 0.226554 -0.095601
C103  C     C_R   0.782730 0.730714 0.773504 -0.095862
C104  C     C_R   0.783239 0.730712 0.226863 -0.095943
C105  C     C_R   0.216908 0.230713 0.273248 -0.095543
C106  C     C_R   0.217168 0.230713 0.726568 -0.095378
C107  C     C_R   0.782780 0.230714 0.273469 -0.095579
C108  C     C_R   0.783475 0.230712 0.727043 -0.095811
C109  C     C_R   0.716764 0.730713 0.273139 -0.095909
C110  C     C_R   0.717274 0.730713 0.726491 -0.095756
C111  C     C_R   0.282817 0.730714 0.273440 -0.096165
C112  C     C_R   0.611144 0.500292 0.249879 0.540888
C113  C     C_1   0.250001 0.328267 0.250000 -0.046646
C114  C     C_R   0.283821 0.730712 0.727313 -0.096016
C115  C     C_R   0.750001 0.211370 0.750001 0.034732
C116  C     C_R   0.750000 0.211371 0.250000 0.034870
C117  C     C_R   0.250002 0.211371 0.749997 0.034861
C118  C     C_R   0.249999 0.211370 0.250000 0.034835
C119  C     C_R   0.250002 0.711370 0.750003 0.034707
C120  C     C_R   0.250002 0.711371 0.249997 0.034856
C121  C     C_R   0.750002 0.711370 0.749998 0.034827
C122  C     C_R   0.750001 0.711370 0.250002 0.034748
C123  C     C_R   0.783475 0.269273 0.727043 -0.098274
C124  C     C_1   0.250002 0.828267 0.750001 -0.046738
C125  C     C_R   0.782780 0.269275 0.273469 -0.097913
C126  C     C_R   0.217168 0.269275 0.726568 -0.098013
C127  C     C_R   0.216909 0.269274 0.273248 -0.097952
C128  C     C_R   0.283820 0.769273 0.727312 -0.098246
C129  C     C_R   0.282816 0.769275 0.273441 -0.098316
C130  C     C_R   0.717274 0.769275 0.726492 -0.098033
C131  C     C_R   0.716765 0.769274 0.273139 -0.098375
C132  C     C_R   0.283091 0.269273 0.226751 -0.097925
C133  C     C_R   0.282835 0.269275 0.773427 -0.098354
C134  C     C_R   0.717221 0.269275 0.226531 -0.097870
C135  C     C_1   0.250001 0.828270 0.249999 -0.047495
C136  C     C_R   0.716528 0.269274 0.772958 -0.098241
C137  C     C_R   0.783239 0.769273 0.226863 -0.098355
C138  C     C_R   0.782729 0.769275 0.773505 -0.098062
C139  C     C_R   0.217187 0.769275 0.226555 -0.098238
C140  C     C_R   0.216184 0.769274 0.772693 -0.098116
C141  C     C_R   0.750001 0.288616 0.750000 0.035402
C142  C     C_R   0.750000 0.288618 0.250000 0.035353
C143  C     C_R   0.250002 0.288618 0.749998 0.035396
C144  C     C_R   0.250000 0.288616 0.250000 0.035343
C145  C     C_R   0.250002 0.788616 0.750002 0.035442
C146  C     C_1   0.750001 0.828270 0.749999 -0.046929
C147  C     C_R   0.250001 0.788618 0.249998 0.035232
C148  C     C_R   0.750001 0.788619 0.749999 0.035352
C149  C     C_R   0.750002 0.788616 0.250001 0.035356
C150  C     C_1   0.750001 0.171720 0.750001 -0.034330
C151  C     C_1   0.750000 0.171720 0.250000 -0.035364
C152  C     C_1   0.250001 0.171720 0.749997 -0.036757
C153  C     C_1   0.249999 0.171720 0.250000 -0.032365
C154  C     C_1   0.250001 0.671720 0.750003 -0.034224
C155  C     C_1   0.250001 0.671720 0.249997 -0.035798
C156  C     C_1   0.750001 0.671720 0.749998 -0.035831
C157  C     C_1   0.750001 0.828267 0.250000 -0.047156
C158  C     C_1   0.750001 0.671720 0.250002 -0.034493
C159  C     C_2   0.832695 0.541713 0.040181 0.226953
C160  C     C_2   0.833306 0.541044 0.959751 0.231429
C161  C     C_2   0.182466 0.554136 0.040225 0.231239
C162  C     C_2   0.183099 0.554543 0.959798 0.225253
C163  C     C_2   0.327049 0.047036 0.040171 0.227345
C164  C     C_2   0.326535 0.047414 0.959745 0.227311
C165  C     C_2   0.672850 0.046901 0.040235 0.230877
C166  C     C_2   0.673552 0.047500 0.959807 0.226834
C167  C     C_2   0.336071 0.538056 0.540173 0.227311
C168  C     C_1   0.750001 0.361491 0.750000 0.014072
C169  C     C_2   0.336663 0.537309 0.459744 0.231426
C170  C     C_2   0.672931 0.546979 0.540233 0.231599
C171  C     C_2   0.673451 0.547421 0.459806 0.226135
C172  C     C_2   0.827448 0.046657 0.540192 0.226366
C173  C     C_2   0.828072 0.046114 0.459771 0.231561
C174  C     C_2   0.182875 0.054425 0.540207 0.231493
C175  C     C_2   0.183592 0.054848 0.459782 0.225124
C176  C     C_1   0.750000 0.361493 0.250000 0.014275
C177  C     C_1   0.250001 0.361493 0.749999 0.013974
C178  C     C_1   0.250001 0.361491 0.250000 0.014314
C179  C     C_1   0.250001 0.861491 0.750000 0.014319
C180  C     C_R   0.388853 0.500301 0.750131 0.541703
C181  C     C_1   0.250000 0.861493 0.249999 0.013412
C182  C     C_1   0.750000 0.861493 0.750000 0.014114
C183  C     C_1   0.750001 0.861491 0.250000 0.013822
C184  C     C_1   0.750000 0.138498 0.750001 0.033790
C185  C     C_1   0.750000 0.138497 0.250000 0.031229
C186  C     C_1   0.250001 0.138497 0.749999 0.029394
C187  C     C_1   0.249999 0.138498 0.250000 0.036434
C188  C     C_1   0.250000 0.638498 0.750002 0.033931
C189  C     C_1   0.250001 0.638497 0.249999 0.030756
C190  C     C_1   0.750001 0.638497 0.749999 0.030651
C191  C     C_R   0.388821 0.499734 0.250413 0.542361
C192  C     C_1   0.750000 0.638498 0.250001 0.033569
C193  C     C_2   0.527165 0.023219 0.770148 0.237134
C194  C     C_2   0.527398 0.017547 0.224808 0.235594
C195  C     C_2   0.472547 0.016983 0.775590 0.235351
C196  C     C_2   0.472791 0.023668 0.230412 0.236432
C197  C     C_2   0.027202 0.523605 0.769670 0.237236
C198  C     C_2   0.027402 0.517499 0.224773 0.236451
C199  C     C_2   0.972593 0.517465 0.775253 0.235658
C200  C     C_2   0.972794 0.523631 0.230364 0.238113
C201  C     C_2   0.027210 0.023686 0.269568 0.237509
C202  C     C_R   0.111174 0.999756 0.749605 0.541036
C203  C     C_2   0.027395 0.017579 0.724831 0.236308
C204  C     C_2   0.972603 0.017569 0.275178 0.235752
C205  C     C_2   0.972788 0.023692 0.730442 0.237850
C206  C     C_2   0.527172 0.523292 0.270057 0.237504
C207  C     C_2   0.527426 0.517250 0.724597 0.236261
C208  C     C_2   0.472557 0.517074 0.275525 0.235646
C209  C     C_2   0.472813 0.523432 0.730116 0.238094
C210  C     C_2   0.555918 0.998001 0.752429 -0.100191
C211  C     C_2   0.555949 0.002034 0.251506 -0.101413
C212  C     C_2   0.444045 0.001947 0.748599 -0.102216
C213  C     C_R   0.111150 0.000318 0.249852 0.541500
C214  C     C_2   0.444074 0.998110 0.247656 -0.101223
C215  C     C_2   0.055925 0.498095 0.752358 -0.100719
C216  C     C_2   0.055949 0.502028 0.251497 -0.101836
C217  C     C_2   0.944050 0.502020 0.748511 -0.102052
C218  C     C_2   0.944074 0.498103 0.247649 -0.100088
C219  C     C_2   0.055926 0.998115 0.252341 -0.100418
C220  C     C_2   0.055949 0.002039 0.751513 -0.102041
C221  C     C_2   0.944051 0.002037 0.248491 -0.101859
C222  C     C_2   0.944073 0.998116 0.747662 -0.100313
C223  C     C_2   0.555920 0.498018 0.252415 -0.100546
C224  C     C_R   0.888849 0.000318 0.750149 0.541210
C225  C     C_2   0.555952 0.501988 0.751451 -0.101843
C226  C     C_2   0.444046 0.501961 0.248581 -0.101854
C227  C     C_2   0.444077 0.498053 0.747612 -0.100020
C228  C     C_R   0.717066 0.482111 0.019155 -0.131970
C229  C     C_R   0.716278 0.482906 0.980882 -0.132483
C230  C     C_R   0.277973 0.478032 0.019137 -0.132548
C231  C     C_R   0.276952 0.477362 0.980864 -0.131963
C232  C     C_R   0.218566 0.980701 0.019141 -0.132426
C233  C     C_R   0.219459 0.979931 0.980868 -0.131935
C234  C     C_R   0.781476 0.980711 0.019125 -0.132583
C235  C     C_R   0.888826 0.999755 0.250397 0.541723
C236  C     C_R   0.780590 0.979967 0.980852 -0.131947
C237  C     C_R   0.215816 0.483465 0.519158 -0.132005
C238  C     C_R   0.215093 0.484285 0.480887 -0.132451
C239  C     C_R   0.781436 0.480689 0.519127 -0.132594
C240  C     C_R   0.780537 0.479932 0.480854 -0.131973
C241  C     C_R   0.719066 0.980258 0.519147 -0.131902
C242  C     C_R   0.718190 0.981017 0.480874 -0.132498
C243  C     C_R   0.277858 0.977949 0.519139 -0.132607
C244  C     C_R   0.276842 0.977284 0.480866 -0.131848
C245  C     C_R   0.754899 0.500718 0.038679 0.039599
C246  C     C_R   0.111174 0.499752 0.249601 0.541503
C247  C     C_R   0.753351 0.502279 0.961322 0.039281
C248  C     C_R   0.247987 0.503065 0.038681 0.039745
C249  C     C_R   0.245963 0.501738 0.961325 0.039628
C250  C     C_R   0.252818 0.002663 0.038672 0.039678
C251  C     C_R   0.254596 0.001130 0.961314 0.039198
C252  C     C_R   0.747185 0.002629 0.038679 0.039450
C253  C     C_R   0.745443 0.001166 0.961322 0.039537
C254  C     C_R   0.255088 0.500436 0.538679 0.039659
C255  C     C_R   0.253673 0.502041 0.461322 0.039213
C256  C     C_R   0.747180 0.502638 0.538678 0.039480
Cl1   Cl    Cl    0.551901 0.065061 0.787921 -0.450440
Cl2   Cl    Cl    0.052628 0.031591 0.681754 -0.440911
Cl3   Cl    Cl    0.947369 0.031564 0.318261 -0.438346
Cl4   Cl    Cl    0.947963 0.065871 0.713554 -0.452390
Cl5   Cl    Cl    0.551920 0.565188 0.287691 -0.450641
Cl6   Cl    Cl    0.552738 0.530810 0.681399 -0.437926
Cl7   Cl    Cl    0.447200 0.530392 0.318787 -0.434463
Cl8   Cl    Cl    0.448038 0.565427 0.712740 -0.452246
Cl9   Cl    Cl    0.552637 0.031513 0.181717 -0.443648
Cl10  Cl    Cl    0.447167 0.030175 0.818883 -0.424140
Cl11  Cl    Cl    0.447974 0.065833 0.213485 -0.453494
Cl12  Cl    Cl    0.052004 0.565728 0.786712 -0.451187
Cl13  Cl    Cl    0.052650 0.531394 0.181663 -0.440798
Cl14  Cl    Cl    0.947336 0.531315 0.818376 -0.436362
Cl15  Cl    Cl    0.947985 0.565770 0.213366 -0.452667
Cl16  Cl    Cl    0.052030 0.065863 0.286464 -0.450450
H1    H     H_    0.690494 0.283980 0.790814 0.123413
H2    H     H_    0.191633 0.283981 0.708346 0.123661
H3    H     H_    0.808273 0.283981 0.291723 0.123657
H4    H     H_    0.809509 0.283978 0.709187 0.123410
H5    H     H_    0.690915 0.783980 0.291136 0.123304
H6    H     H_    0.691822 0.783982 0.708212 0.123536
H7    H     H_    0.308337 0.783981 0.291673 0.123229
H8    H     H_    0.310123 0.783977 0.709662 0.123341
H9    H     H_    0.690493 0.216007 0.790814 0.132213
H10   H     H_    0.691727 0.216007 0.208277 0.132020
H11   H     H_    0.308371 0.216007 0.791648 0.129820
H12   H     H_    0.691728 0.283980 0.208277 0.123733
H13   H     H_    0.308828 0.216005 0.208670 0.134130
H14   H     H_    0.189881 0.716008 0.790343 0.132829
H15   H     H_    0.191666 0.716007 0.208322 0.132018
H16   H     H_    0.808182 0.716007 0.791784 0.131688
H17   H     H_    0.809089 0.716005 0.208868 0.132057
H18   H     H_    0.191171 0.216007 0.291330 0.132810
H19   H     H_    0.191633 0.216008 0.708346 0.132172
H20   H     H_    0.808273 0.216008 0.291722 0.132018
H21   H     H_    0.809509 0.216005 0.709188 0.132334
H22   H     H_    0.690914 0.716008 0.291136 0.132183
H23   H     H_    0.308371 0.283981 0.791649 0.122964
H24   H     H_    0.691822 0.716007 0.708211 0.131765
H25   H     H_    0.308338 0.716007 0.291672 0.131306
H26   H     H_    0.310123 0.716006 0.709664 0.131996
H27   H     H_    0.538653 0.973221 0.741226 0.064617
H28   H     H_    0.538570 0.992685 0.276988 0.061762
H29   H     H_    0.461455 0.992983 0.722989 0.061307
H30   H     H_    0.461357 0.973158 0.258453 0.063752
H31   H     H_    0.038645 0.473165 0.741506 0.063974
H32   H     H_    0.038568 0.492713 0.276991 0.061178
H33   H     H_    0.961434 0.492727 0.723011 0.061425
H34   H     H_    0.308828 0.283977 0.208669 0.123858
H35   H     H_    0.961356 0.473165 0.258481 0.064056
H36   H     H_    0.038643 0.973156 0.241560 0.063832
H37   H     H_    0.038570 0.992667 0.776987 0.061120
H38   H     H_    0.961430 0.992671 0.223015 0.061844
H39   H     H_    0.961358 0.973156 0.758439 0.063938
H40   H     H_    0.538652 0.473209 0.241278 0.064334
H41   H     H_    0.538557 0.492841 0.777001 0.061183
H42   H     H_    0.461451 0.492935 0.222991 0.061423
H43   H     H_    0.461352 0.473191 0.758624 0.064147
H44   H     H_    0.686581 0.468125 0.966399 0.122867
H45   H     H_    0.189882 0.783980 0.790342 0.123631
H46   H     H_    0.687687 0.467017 0.033668 0.123196
H47   H     H_    0.300775 0.457767 0.966361 0.123409
H48   H     H_    0.302198 0.458700 0.033633 0.123238
H49   H     H_    0.192280 0.962787 0.966379 0.123227
H50   H     H_    0.191036 0.963861 0.033647 0.123188
H51   H     H_    0.807786 0.962847 0.966345 0.123274
H52   H     H_    0.809026 0.963884 0.033614 0.123002
H53   H     H_    0.184242 0.470795 0.466409 0.122689
H54   H     H_    0.185257 0.469653 0.533672 0.122975
H55   H     H_    0.807715 0.462796 0.466347 0.123260
H56   H     H_    0.191666 0.783981 0.208322 0.123380
H57   H     H_    0.808971 0.463848 0.533616 0.122944
H58   H     H_    0.690313 0.964472 0.466385 0.123012
H59   H     H_    0.691538 0.963416 0.533653 0.123329
H60   H     H_    0.300519 0.957589 0.466369 0.123483
H61   H     H_    0.301933 0.958517 0.533638 0.123151
H62   H     H_    0.849009 0.566520 0.028406 0.111149
H63   H     H_    0.870975 0.543623 0.971544 0.118883
H64   H     H_    0.146469 0.562752 0.028540 0.118651
H65   H     H_    0.175005 0.581408 0.971546 0.107827
H66   H     H_    0.364182 0.052323 0.028366 0.117797
H67   H     H_    0.808181 0.783982 0.791785 0.123518
H68   H     H_    0.339244 0.073370 0.971382 0.108996
H69   H     H_    0.635709 0.052143 0.028440 0.118393
H70   H     H_    0.660678 0.073359 0.971569 0.109595
H71   H     H_    0.354377 0.562114 0.528384 0.111956
H72   H     H_    0.374481 0.538273 0.471538 0.118630
H73   H     H_    0.635724 0.552146 0.528505 0.118846
H74   H     H_    0.660636 0.573319 0.471506 0.109558
H75   H     H_    0.840776 0.072411 0.528466 0.109961
H76   H     H_    0.865337 0.050941 0.471542 0.119163
H77   H     H_    0.147105 0.063367 0.528401 0.118721
H78   H     H_    0.809089 0.783978 0.208866 0.123305
H79   H     H_    0.175862 0.081798 0.471469 0.107619
H80   H     H_    0.191173 0.283980 0.291330 0.123722
O1    O     O_3   0.750000 0.500000 0.750000 -0.467303
O2    O     O_R   0.635430 0.478650 0.228650 -0.549257
O3    O     O_R   0.864590 0.521360 0.771360 -0.469559
O4    O     O_R   0.635410 0.021360 0.228640 -0.469478
O5    O     O_R   0.635410 0.021360 0.771360 -0.465280
O6    O     O_R   0.364590 0.021360 0.228640 -0.467780
O7    O     O_R   0.364590 0.021360 0.771360 -0.469259
O8    O     O_2   0.848098 0.531439 0.070205 -0.454193
O9    O     O_2   0.825415 0.555019 0.929683 -0.455185
O10   O     O_2   0.194794 0.566648 0.070148 -0.463809
O11   O     O_2   0.164838 0.547052 0.929797 -0.453560
O12   O     O_2   0.317246 0.060428 0.070210 -0.462832
O13   O     O_R   0.364570 0.478650 0.771350 -0.549005
O14   O     O_2   0.343513 0.038095 0.929854 -0.442885
O15   O     O_2   0.682588 0.060256 0.070298 -0.459105
O16   O     O_2   0.656815 0.038354 0.929795 -0.451841
O17   O     O_2   0.350600 0.527176 0.570213 -0.454663
O18   O     O_2   0.329937 0.551588 0.429671 -0.453184
O19   O     O_2   0.682824 0.560486 0.570204 -0.458988
O20   O     O_2   0.656593 0.538178 0.429862 -0.453106
O21   O     O_2   0.844092 0.037283 0.570160 -0.453551
O22   O     O_2   0.818547 0.059631 0.429745 -0.458150
O23   O     O_2   0.195060 0.066674 0.570271 -0.463781
O24   O     O_R   0.364570 0.478650 0.228650 -0.547901
O25   O     O_2   0.165116 0.047377 0.429847 -0.453538
O26   O     O_R   0.135430 0.978650 0.771350 -0.548809
O27   O     O_R   0.135430 0.978650 0.228650 -0.548624
O28   O     O_R   0.864570 0.978650 0.771350 -0.549280
O29   O     O_R   0.864570 0.978650 0.228650 -0.548215
O30   O     O_R   0.135430 0.478650 0.271350 -0.548376
O31   O     O_R   0.135430 0.478650 0.728650 -0.549444
O32   O     O_R   0.864570 0.478650 0.271350 -0.549194
O33   O     O_3   0.750000 0.500000 0.250000 -0.467207
O34   O     O_R   0.864570 0.478650 0.728650 -0.548275
O35   O     O_R   0.635430 0.978650 0.271350 -0.548416
O36   O     O_R   0.635430 0.978650 0.728650 -0.549183
O37   O     O_R   0.364570 0.978650 0.271350 -0.549021
O38   O     O_R   0.364570 0.978650 0.728650 -0.547579
O39   O     O_R   0.719950 0.521340 0.668530 -0.493561
O40   O     O_R   0.719950 0.521340 0.331470 -0.502796
O41   O     O_R   0.280050 0.521340 0.668530 -0.504469
O42   O     O_R   0.280050 0.521340 0.331470 -0.493547
O43   O     O_R   0.219950 0.021340 0.668530 -0.494014
O44   O     O_3   0.250000 0.500000 0.750000 -0.467232
O45   O     O_R   0.219950 0.021340 0.331470 -0.502093
O46   O     O_R   0.780050 0.021340 0.668530 -0.503194
O47   O     O_R   0.780050 0.021340 0.331470 -0.493654
O48   O     O_R   0.219950 0.521340 0.168530 -0.494178
O49   O     O_R   0.219950 0.521340 0.831470 -0.501864
O50   O     O_R   0.780050 0.521340 0.168530 -0.503962
O51   O     O_R   0.780050 0.521340 0.831470 -0.493554
O52   O     O_R   0.719950 0.021340 0.168530 -0.493727
O53   O     O_R   0.719950 0.021340 0.831470 -0.502497
O54   O     O_R   0.280050 0.021340 0.168530 -0.501556
O55   O     O_3   0.250000 0.500000 0.250000 -0.467310
O56   O     O_R   0.280050 0.021340 0.831470 -0.495877
O57   O     O_R   0.719940 0.581460 0.728640 -0.525608
O58   O     O_R   0.719940 0.581460 0.271360 -0.520510
O59   O     O_R   0.280060 0.581460 0.728640 -0.521441
O60   O     O_R   0.280060 0.581460 0.271360 -0.526683
O61   O     O_R   0.219940 0.081460 0.728640 -0.524242
O62   O     O_R   0.219940 0.081460 0.271360 -0.519850
O63   O     O_R   0.780060 0.081460 0.728640 -0.520332
O64   O     O_R   0.780060 0.081460 0.271360 -0.525425
O65   O     O_R   0.219940 0.581460 0.228640 -0.524786
O66   O     O_3   0.250000 0.000000 0.750000 -0.466938
O67   O     O_R   0.219940 0.581460 0.771360 -0.519333
O68   O     O_R   0.780060 0.581460 0.228640 -0.520833
O69   O     O_R   0.780060 0.581460 0.771360 -0.525976
O70   O     O_R   0.719940 0.081460 0.228640 -0.525347
O71   O     O_R   0.719940 0.081460 0.771360 -0.520644
O72   O     O_R   0.280060 0.081460 0.228640 -0.517044
O73   O     O_R   0.280060 0.081460 0.771360 -0.529309
O74   O     O_R   0.719980 0.418540 0.771360 -0.533930
O75   O     O_R   0.719980 0.418540 0.228640 -0.534317
O76   O     O_R   0.280020 0.418540 0.771360 -0.534763
O77   O     O_3   0.250000 0.000000 0.250000 -0.467596
O78   O     O_R   0.280020 0.418540 0.228640 -0.534135
O79   O     O_R   0.219980 0.918540 0.771360 -0.533484
O80   O     O_R   0.219980 0.918540 0.228640 -0.535188
O81   O     O_R   0.780020 0.918540 0.771360 -0.534518
O82   O     O_R   0.780020 0.918540 0.228640 -0.534155
O83   O     O_R   0.219980 0.418540 0.271360 -0.533827
O84   O     O_R   0.219980 0.418540 0.728640 -0.534278
O85   O     O_R   0.780020 0.418540 0.271360 -0.534476
O86   O     O_R   0.780020 0.418540 0.728640 -0.534072
O87   O     O_R   0.719980 0.918540 0.271360 -0.534166
O88   O     O_3   0.750000 0.000000 0.750000 -0.467317
O89   O     O_R   0.719980 0.918540 0.728640 -0.534436
O90   O     O_R   0.280020 0.918540 0.271360 -0.534995
O91   O     O_R   0.280020 0.918540 0.728640 -0.534091
O92   O     O_R   0.780050 0.478630 0.668540 -0.550431
O93   O     O_R   0.780050 0.478630 0.331460 -0.548225
O94   O     O_R   0.219950 0.478630 0.668540 -0.547475
O95   O     O_R   0.219950 0.478630 0.331460 -0.550399
O96   O     O_R   0.280050 0.978630 0.668540 -0.550467
O97   O     O_R   0.280050 0.978630 0.331460 -0.548416
O98   O     O_R   0.719950 0.978630 0.668540 -0.548138
O99   O     O_3   0.750000 0.000000 0.250000 -0.467353
O100  O     O_R   0.719950 0.978630 0.331460 -0.550398
O101  O     O_R   0.280050 0.478630 0.168540 -0.550255
O102  O     O_R   0.280050 0.478630 0.831460 -0.548745
O103  O     O_R   0.719950 0.478630 0.168540 -0.547782
O104  O     O_R   0.719950 0.478630 0.831460 -0.550479
O105  O     O_R   0.780050 0.978630 0.168540 -0.550417
O106  O     O_R   0.780050 0.978630 0.831460 -0.548261
O107  O     O_R   0.219950 0.978630 0.168540 -0.548673
O108  O     O_R   0.219950 0.978630 0.831460 -0.549561
O109  O     O_R   0.635410 0.521360 0.728640 -0.470066
O110  O     O_R   0.635430 0.478650 0.771350 -0.548247
O111  O     O_R   0.635410 0.521360 0.271360 -0.465481
O112  O     O_R   0.364590 0.521360 0.728640 -0.465068
O113  O     O_R   0.364590 0.521360 0.271360 -0.469608
O114  O     O_R   0.135410 0.021360 0.728640 -0.470446
O115  O     O_R   0.135410 0.021360 0.271360 -0.465927
O116  O     O_R   0.864590 0.021360 0.728640 -0.465455
O117  O     O_R   0.864590 0.021360 0.271360 -0.469688
O118  O     O_R   0.135410 0.521360 0.228640 -0.470389
O119  O     O_R   0.135410 0.521360 0.771360 -0.465983
O120  O     O_R   0.864590 0.521360 0.228640 -0.465242
Zn1   Zn    Zn3+2 0.792930 0.469480 0.719490 0.951279
Zn2   Zn    Zn3+2 0.292930 0.469480 0.780510 0.950136
Zn3   Zn    Zn3+2 0.707070 0.469480 0.219490 0.950632
Zn4   Zn    Zn3+2 0.707070 0.469480 0.780510 0.951118
Zn5   Zn    Zn3+2 0.792930 0.969480 0.219490 0.951010
Zn6   Zn    Zn3+2 0.792930 0.969480 0.780510 0.950288
Zn7   Zn    Zn3+2 0.207070 0.969480 0.219490 0.949479
Zn8   Zn    Zn3+2 0.207070 0.969480 0.780510 0.951406
Zn9   Zn    Zn3+2 0.707070 0.530510 0.719480 1.020250
Zn10  Zn    Zn3+2 0.707070 0.530510 0.280520 1.021192
Zn11  Zn    Zn3+2 0.292930 0.530510 0.719480 1.020556
Zn12  Zn    Zn3+2 0.792930 0.469480 0.280510 0.950524
Zn13  Zn    Zn3+2 0.292930 0.530510 0.280520 1.020356
Zn14  Zn    Zn3+2 0.207070 0.030510 0.719480 1.019693
Zn15  Zn    Zn3+2 0.207070 0.030510 0.280520 1.023019
Zn16  Zn    Zn3+2 0.792930 0.030510 0.719480 1.021113
Zn17  Zn    Zn3+2 0.792930 0.030510 0.280520 1.020728
Zn18  Zn    Zn3+2 0.207070 0.530510 0.219480 1.020094
Zn19  Zn    Zn3+2 0.207070 0.530510 0.780520 1.021870
Zn20  Zn    Zn3+2 0.792930 0.530510 0.219480 1.020679
Zn21  Zn    Zn3+2 0.792930 0.530510 0.780520 1.020335
Zn22  Zn    Zn3+2 0.707070 0.030510 0.219480 1.020561
Zn23  Zn    Zn3+2 0.207070 0.469480 0.719490 0.950434
Zn24  Zn    Zn3+2 0.707070 0.030510 0.780520 1.021653
Zn25  Zn    Zn3+2 0.292930 0.030510 0.219480 1.022917
Zn26  Zn    Zn3+2 0.292930 0.030510 0.780520 1.018118
Zn27  Zn    Zn3+2 0.207070 0.469480 0.280510 0.951021
Zn28  Zn    Zn3+2 0.292930 0.969480 0.719490 0.952720
Zn29  Zn    Zn3+2 0.292930 0.969480 0.280510 0.948589
Zn30  Zn    Zn3+2 0.707070 0.969480 0.719490 0.950367
Zn31  Zn    Zn3+2 0.707070 0.969480 0.280510 0.950881
Zn32  Zn    Zn3+2 0.292930 0.469480 0.219490 0.951909

loop_
_geom_bond_atom_site_label_1
_geom_bond_atom_site_label_2
_ccdc_geom_bond_type
C132  C144  A    
C194  C196  S    
C28   C47   T    
O31   Zn23  S    
O96   Zn28  S    
O68   Zn20  S    
C200  C218  D    
O106  Zn6   S    
C95   O82   A    
C19   C20   A    
C170  H73   S    
C198  C216  D    
C213  C219  S    
C102  C120  A    
C236  H51   S    
O88   Zn6   S    
C203  C205  S    
C11   C249  A    
C71   O49   A    
C213  O27   A    
C220  H37   S    
C59   C66   S    
C128  C145  A    
C165  O15   D    
C231  H47   S    
C216  C246  S    
C35   O35   A    
C126  C143  A    
O7    Zn26  S    
C118  C153  S    
C7    C42   S    
C197  C199  S    
C175  H79   S    
C210  H27   S    
C198  Cl13  S    
C246  O30   A    
C93   C181  S    
O65   Zn18  S    
C112  O111  A    
O79   Zn8   S    
C51   C74   S    
O109  Zn9   S    
C236  C253  A    
C69   O47   A    
C63   O94   A    
C70   O48   A    
C81   O59   A    
C167  H71   S    
C68   O38   A    
C246  O118  A    
C21   C22   A    
C159  O8    D    
C72   O103  A    
C80   C192  S    
O118  Zn18  S    
C234  C236  A    
C166  H70   S    
C228  C229  A    
O74   Zn4   S    
O51   Zn21  S    
O50   Zn20  S    
C36   C255  S    
C237  C254  A    
O88   Zn16  S    
C173  H76   S    
C98   H11   S    
C234  H52   S    
C14   C251  A    
C85   O63   A    
O110  Zn4   S    
C33   C50   T    
C46   C210  S    
C67   O46   A    
C86   O64   A    
C11   C162  S    
C29   C45   T    
C201  Cl16  S    
C225  H41   S    
O56   Zn26  S    
C136  C141  A    
C162  H65   S    
C158  C192  T    
C24   O3    A    
C114  C128  A    
C16   C253  A    
C123  C141  A    
C122  C158  S    
C31   C251  S    
O87   Zn31  S    
O35   Zn31  S    
C73   O51   A    
C180  O13   A    
C74   O52   A    
O71   Zn24  S    
C163  H66   S    
C60   C65   S    
C85   C184  S    
C31   C48   T    
O120  Zn20  S    
C105  C118  A    
C131  C149  A    
O93   Zn12  S    
C103  C121  A    
C73   O104  A    
C209  Cl8   S    
C109  C122  A    
C125  H3    S    
C89   O84   A    
O77   Zn29  S    
O40   Zn10  S    
C80   O68   A    
O88   Zn30  S    
C140  C145  A    
C230  H48   S    
C108  H21   S    
O45   Zn15  S    
C21   C172  S    
C1    O109  A    
C180  C227  S    
O6    Zn25  S    
C113  C144  S    
O95   Zn27  S    
O47   Zn17  S    
C197  Cl12  S    
C93   O90   A    
C12   C163  S    
C39   C58   T    
C95   C183  S    
O27   Zn7   S    
C44   C72   S    
C62   O93   A    
C102  C139  A    
C241  H59   S    
C164  O14   D    
C129  C147  A    
C166  O16   D    
C58   C67   S    
C86   C185  S    
O30   Zn27  S    
C84   C187  S    
C198  C200  S    
C8    C159  S    
C69   O100  A    
C161  O10   D    
C91   O78   A    
C43   C73   S    
C91   C178  S    
C161  H64   S    
C121  C156  S    
C90   C176  T    
C204  C221  D    
C45   C71   S    
O99   Zn22  S    
C136  H1    S    
O73   Zn26  S    
C219  H36   S    
C26   C44   T    
C23   C174  S    
C208  Cl7   S    
C71   O102  A    
C108  C115  A    
O57   Zn9   S    
C70   O101  A    
C110  C121  A    
O116  Zn16  S    
C204  Cl3   S    
C104  C122  A    
C100  H14   S    
C66   O97   A    
C241  C242  A    
C202  C220  S    
C195  Cl10  S    
C208  C226  D    
O60   Zn13  S    
C138  C148  A    
C124  C179  T    
O33   Zn10  S    
C80   O58   A    
C13   C218  S    
C229  H44   S    
C155  C189  T    
C206  C223  D    
C93   O80   A    
C114  C119  A    
C36   C52   T    
C3    C240  A    
C126  H2    S    
O26   Zn8   S    
C237  C238  A    
C238  H53   S    
C88   O85   A    
C72   O50   A    
C65   O96   A    
C209  C227  D    
O61   Zn14  S    
O85   Zn12  S    
C206  Cl5   S    
C17   C254  A    
C175  O25   D    
C105  C127  A    
C138  H67   S    
O119  Zn19  S    
C107  C125  A    
C152  C186  T    
O55   Zn32  S    
O99   Zn5   S    
C150  C184  T    
C9    C160  S    
C180  O112  A    
O55   Zn18  S    
C110  H24   S    
C134  H12   S    
C167  O17   D    
C29   C249  S    
C48   C77   S    
O34   Zn1   S    
C196  C214  D    
C25   C175  S    
O46   Zn16  S    
C94   O89   A    
C37   C256  S    
C17   C18   A    
C92   O91   A    
C83   C186  S    
C100  C119  A    
O113  Zn13  S    
C222  C224  S    
C34   C53   T    
C13   O120  A    
O44   Zn2   S    
O28   Zn6   S    
C135  C147  S    
C82   C189  S    
C223  H40   S    
C135  C181  T    
C212  H29   S    
C231  C249  A    
O99   Zn31  S    
C22   C173  S    
C107  H20   S    
C235  O29   A    
C62   O40   A    
C104  H17   S    
C207  Cl6   S    
O44   Zn11  S    
C13   O32   A    
O42   Zn13  S    
C228  H46   S    
O94   Zn23  S    
C41   C60   T    
C132  H34   S    
O91   Zn28  S    
C91   O83   A    
C42   C59   T    
C171  O20   D    
O1    Zn21  S    
O101  Zn32  S    
C96   H9    S    
C88   C176  S    
C238  C255  A    
C34   C254  S    
C82   O60   A    
C195  C212  D    
C53   C63   S    
C193  C210  D    
C79   C141  S    
C172  H75   S    
C202  O114  A    
C55   C61   S    
O33   Zn12  S    
C75   O106  A    
O43   Zn14  S    
C160  O9    D    
O90   Zn29  S    
C92   O79   A    
C14   C164  S    
C107  C116  A    
C10   C11   A    
O55   Zn27  S    
C37   C55   T    
O77   Zn25  S    
C10   C248  A    
C56   C69   S    
O98   Zn30  S    
C207  C209  S    
C232  H50   S    
C15   C165  S    
C87   O74   A    
C191  O113  A    
O88   Zn24  S    
C116  C151  S    
O83   Zn27  S    
C205  Cl4   S    
C68   C212  S    
C84   O72   A    
C239  C240  A    
C199  C217  D    
C19   C170  S    
O105  Zn5   S    
C211  H28   S    
O78   Zn32  S    
C96   C136  A    
O92   Zn1   S    
C140  H45   S    
C98   C133  A    
C203  C220  D    
O52   Zn22  S    
O80   Zn7   S    
O112  Zn11  S    
C206  C208  S    
C15   C252  A    
C243  C244  A    
C77   O108  A    
C205  C222  D    
C12   C250  A    
C104  C137  A    
C61   O39   A    
C28   C248  S    
O44   Zn23  S    
C78   O69   A    
O13   Zn2   S    
O77   Zn15  S    
C137  H78   S    
C111  C129  A    
O54   Zn25  S    
C89   O76   A    
C40   C56   T    
C78   C190  S    
C7    C244  A    
C109  C131  A    
C193  Cl1   S    
C242  H58   S    
C78   O57   A    
C101  C143  S    
C82   O65   A    
C5    C242  A    
C81   C188  S    
C24   C217  S    
C113  C178  T    
C2    C215  S    
C226  H42   S    
C221  C235  S    
O5    Zn24  S    
C95   O87   A    
O102  Zn2   S    
C127  H80   S    
O117  Zn17  S    
C162  O11   D    
C165  H69   S    
C146  C148  S    
C146  C182  T    
C52   C64   S    
C103  C138  A    
C163  O12   D    
C54   C62   S    
O84   Zn23  S    
C32   C51   T    
C191  O24   A    
C92   C179  S    
C134  C142  A    
C87   C168  S    
C38   C54   T    
C68   O7    A    
C139  C147  A    
C87   O86   A    
O1    Zn4   S    
C3    C20   A    
C64   O42   A    
C97   C116  A    
C57   O6    A    
C201  C219  D    
C90   C142  S    
O58   Zn10  S    
C119  C154  S    
C106  C117  A    
O104  Zn4   S    
C112  C223  S    
C171  H74   S    
C112  O2    A    
C224  O28   A    
C108  C123  A    
O66   Zn28  S    
O76   Zn2   S    
C233  C251  A    
C18   C169  S    
C1    C225  S    
C151  C185  T    
O39   Zn9   S    
C216  H32   S    
O62   Zn15  S    
C224  O116  A    
C18   C255  A    
O70   Zn22  S    
C153  C187  T    
C106  C126  A    
C7    C25   A    
O48   Zn18  S    
C2    O31   A    
O41   Zn11  S    
C50   C75   S    
C57   O37   A    
O55   Zn13  S    
C154  C188  T    
C77   O56   A    
C232  C233  A    
C202  O26   A    
C110  C130  A    
C127  C144  A    
C120  C155  S    
C230  C231  A    
C9    C247  A    
C103  H16   S    
C131  H5    S    
C101  C177  T    
C85   O71   A    
C27   C43   T    
C19   C256  A    
C20   C171  S    
C159  H62   S    
C222  H39   S    
C5    C40   S    
C239  C256  A    
C114  H26   S    
C169  H72   S    
C84   O62   A    
C94   C182  S    
C97   H10   S    
C149  C157  S    
O75   Zn3   S    
C35   O4    A    
C157  C183  T    
O89   Zn30  S    
C214  H30   S    
C156  C190  T    
C200  Cl15  S    
O1    Zn9   S    
C81   O67   A    
C83   O61   A    
C76   O54   A    
C64   O95   A    
C160  H63   S    
C233  H49   S    
C1    O110  A    
O59   Zn11  S    
C174  H77   S    
O115  Zn15  S    
C172  O21   D    
C164  H68   S    
C213  O115  A    
C76   O107  A    
C174  O23   D    
C27   C247  S    
C243  H61   S    
O69   Zn21  S    
C109  H22   S    
C15   C16   A    
C170  O19   D    
O108  Zn8   S    
C35   C211  S    
C105  H18   S    
C100  C140  A    
C194  C211  D    
C218  H35   S    
C207  C225  D    
C5    C22   A    
C3    C38   S    
C16   C166  S    
C8    C9    A    
C111  H25   S    
C6    C41   S    
C173  O22   D    
O44   Zn19  S    
O82   Zn5   S    
O4    Zn22  S    
C74   O105  A    
C89   C177  S    
C79   C168  T    
O66   Zn26  S    
C240  H55   S    
C197  C215  D    
C26   C245  S    
C169  O18   D    
C23   C25   A    
O2    Zn3   S    
C137  C149  A    
C237  H54   S    
C194  Cl9   S    
C97   C134  A    
C75   O53   A    
C83   O73   A    
C99   H13   S    
C133  C143  A    
O33   Zn20  S    
C130  C148  A    
C65   O43   A    
C24   O34   A    
O103  Zn3   S    
C17   C167  S    
C234  C252  A    
C228  C245  A    
C193  C195  S    
C30   C250  S    
C111  C120  A    
C229  C247  A    
C102  H15   S    
C130  H6    S    
C47   C70   S    
C221  H38   S    
O111  Zn10  S    
O72   Zn25  S    
C86   O70   A    
C4    C39   S    
C125  C142  A    
O32   Zn12  S    
O38   Zn28  S    
C239  H57   S    
C227  H43   S    
O114  Zn14  S    
C49   C76   S    
O107  Zn7   S    
O53   Zn24  S    
C96   C115  A    
C66   O45   A    
O66   Zn14  S    
C199  Cl14  S    
C12   C14   A    
C217  H33   S    
O64   Zn17  S    
O49   Zn19  S    
O100  Zn31  S    
C46   O36   A    
O81   Zn6   S    
C201  C204  S    
O1    Zn1   S    
C6    C243  A    
C232  C250  A    
C4    C241  A    
C230  C248  A    
C123  H4    S    
C98   C117  A    
C139  H56   S    
C30   C49   T    
C61   O92   A    
C99   C132  A    
C8    C245  A    
C203  Cl2   S    
O29   Zn5   S    
C191  C226  S    
C67   O98   A    
C124  C145  S    
C32   C252  S    
O63   Zn16  S    
C33   C253  S    
C2    O119  A    
O33   Zn3   S    
C88   O75   A    
C106  H19   S    
C99   C118  A    
C4    C21   A    
C63   O41   A    
O36   Zn30  S    
C6    C23   A    
C115  C150  S    
C244  H60   S    
C128  H8    S    
C235  O117  A    
C129  H7    S    
C117  C152  S    
C133  H23   S    
C46   O5    A    
O67   Zn19  S    
O3    Zn21  S    
C57   C214  S    
O86   Zn1   S    
O66   Zn8   S    
O97   Zn29  S    
O99   Zn17  S    
C196  Cl11  S    
C10   C161  S    
O24   Zn32  S    
C215  H31   S    
O37   Zn29  S    
C94   O81   A    
O77   Zn7   S    
