data_mof_unit_58569.cif
_audit_creation_date              2013-03-05T16:11:29-0500
_audit_creation_method            fapswitch 2.2
_symmetry_space_group_name_H-M    P1
_symmetry_Int_Tables_number       1
_space_group_crystal_system       triclinic
_cell_length_a                    9.428781
_cell_length_b                    10.734125
_cell_length_c                    17.281416
_cell_angle_alpha                 89.123038
_cell_angle_beta                  85.678633
_cell_angle_gamma                 89.453627
_cell_volume                      1743.80888441

loop_
_atom_site_label
_atom_site_type_symbol
_atom_site_description
_atom_site_fract_x
_atom_site_fract_y
_atom_site_fract_z
_atom_type_partial_charge
O1    O     O_R   0.379740 0.682430 0.499960 -0.535524
O2    O     O_R   0.620260 0.682190 0.500020 -0.610069
C1    C     C_R   0.500429 0.740170 0.497258 0.761593
O3    O     O_R   0.365800 0.500150 0.613560 -0.606150
O4    O     O_R   0.606310 0.499910 0.613620 -0.560994
C2    C     C_R   0.481148 0.494519 0.649654 0.843967
Cu1   Cu    Cu3+1 0.357600 0.500140 0.499960 0.944604
Cu2   Cu    Cu3+1 0.642400 0.499860 0.500040 0.925284
O5    O     O_R   0.379740 0.317810 0.499980 -0.605202
O6    O     O_R   0.620260 0.317570 0.500040 -0.588938
O7    O     O_R   0.393690 0.500090 0.386380 -0.545932
O8    O     O_R   0.634200 0.499850 0.386440 -0.553103
C3    C     C_R   0.500836 0.259969 0.498718 0.778730
C4    C     C_R   0.518811 0.496584 0.349171 0.832398
C5    C     C_R   0.470406 0.469620 0.732894 -0.118245
C6    C     C_R   0.555293 0.374986 0.763769 0.477984
C7    C     C_R   0.540058 0.349624 0.843818 -0.250724
C8    C     C_R   0.449280 0.422795 0.892185 0.160996
C9    C     C_R   0.364633 0.515670 0.861074 -0.113363
C10   C     C_R   0.373420 0.537660 0.781321 -0.311580
C11   C     C_R   0.408662 0.470676 0.142755 -0.299947
C12   C     C_R   0.402482 0.469753 0.223591 0.449078
C13   C     C_R   0.660101 0.495531 0.217809 0.445925
C14   C     C_R   0.663654 0.484668 0.136815 -0.231199
C15   C     C_R   0.538894 0.476636 0.099053 -0.058274
C16   C     C_2   0.453920 0.410339 0.976009 -0.345310
C17   C     C_2   0.545693 0.478251 0.013603 0.533887
C18   C     C_R   0.527881 0.487813 0.262766 -0.256851
H1    H     H_    0.294169 0.572391 0.898677 0.136687
H2    H     H_    0.310200 0.466026 0.114456 0.157727
H3    H     H_    0.307727 0.609960 0.757549 0.151320
H4    H     H_    0.381747 0.345206 0.006865 0.115072
H5    H     H_    0.601189 0.275544 0.868957 0.134054
H6    H     H_    0.765097 0.481336 0.103211 0.160380
C19   C     C_3   0.390441 0.931938 0.442625 -0.348993
H7    H     H_    0.282342 0.906049 0.467540 0.207037
H8    H     H_    0.405526 0.892529 0.383468 0.159932
C20   C     C_3   0.399821 0.075011 0.438098 -0.419224
H9    H     H_    0.438188 0.104969 0.378290 0.150312
H10   H     H_    0.291257 0.115054 0.450200 0.166205
H11   H     H_    0.362049 0.886745 0.602876 0.172285
H12   H     H_    0.344931 0.099283 0.596040 0.168510
C21   C     C_3   0.465418 0.925804 0.578822 -0.461653
C22   C     C_3   0.653810 0.929213 0.465846 0.052206
C23   C     C_3   0.502876 0.878448 0.495262 0.154371
H13   H     H_    0.734004 0.890657 0.504145 0.153278
C24   C     C_3   0.502770 0.122225 0.497116 0.138807
C25   C     C_3   0.456092 0.069401 0.578824 -0.383637
C26   C     C_3   0.654768 0.072511 0.472935 -0.367418
H14   H     H_    0.695693 0.118267 0.417490 0.169090
H15   H     H_    0.728735 0.098066 0.517334 0.146123
H16   H     H_    0.548033 0.893808 0.617562 0.159942
H17   H     H_    0.525135 0.106206 0.622550 0.197374
C27   C     C_3   0.917332 0.371066 0.494087 -0.220042
H18   H     H_    0.886515 0.325318 0.440550 0.153505
H19   H     H_    0.871279 0.314094 0.543886 0.167525
C28   C     C_3   0.084498 0.369126 0.494999 -0.322122
H20   H     H_    0.114867 0.312082 0.545566 0.166119
H21   H     H_    0.131601 0.321765 0.442259 0.145477
H22   H     H_    0.894655 0.529227 0.377527 0.185898
H23   H     H_    0.132938 0.520979 0.377715 0.138972
C29   C     C_3   0.924472 0.570655 0.431900 -0.267817
C30   C     C_3   0.906660 0.556126 0.569511 -0.201598
N1    N     N_3   0.856560 0.499750 0.498270 -0.136530
H24   H     H_    0.867020 0.653794 0.574947 0.144561
H25   H     H_    0.861727 0.504813 0.621799 0.163051
N2    N     N_3   0.143860 0.496700 0.498910 -0.145073
C31   C     C_3   0.092262 0.569120 0.431195 0.515888
C32   C     C_3   0.073677 0.553377 0.570237 -0.187983
H26   H     H_    0.102469 0.499702 0.622404 0.137588
H27   H     H_    0.113510 0.649446 0.577073 0.172698
H28   H     H_    0.882391 0.667706 0.432784 0.178910
O9    O     O_3   0.641228 0.301391 0.713765 -0.588799
C33   C     C_3   0.782016 0.297873 0.736402 -0.362629
H29   H     H_    0.792481 0.230010 0.784804 0.164758
H30   H     H_    0.819750 0.391544 0.752156 0.142291
H31   H     H_    0.853197 0.265284 0.686654 0.175102
C34   C     C_3   0.702373 0.890936 0.382073 -0.930775
H32   H     H_    0.816373 0.914270 0.369346 0.229812
H33   H     H_    0.690732 0.789571 0.373757 0.240598
H34   H     H_    0.640292 0.940919 0.338993 0.242288
O10   O     O_3   0.270997 0.456713 0.263394 -0.592075
C35   C     C_3   0.235940 0.329166 0.266882 -0.349067
H35   H     H_    0.313502 0.274519 0.299451 0.151588
H36   H     H_    0.228864 0.290249 0.207984 0.165099
H37   H     H_    0.129656 0.318924 0.298346 0.176094
O11   O     O_3   0.786845 0.498298 0.253075 -0.575720
C36   C     C_3   0.862387 0.607861 0.230805 -0.375337
H38   H     H_    0.814869 0.688821 0.262820 0.165519
H39   H     H_    0.868964 0.628821 0.167517 0.164745
H40   H     H_    0.973672 0.595073 0.246024 0.197374
O12   O     O_3   0.142817 0.693256 0.430779 -0.565678
C37   C     C_3   0.145807 0.746261 0.355242 -0.410582
H41   H     H_    0.041352 0.740555 0.330261 0.139708
H42   H     H_    0.230797 0.702457 0.316402 0.208895
H43   H     H_    0.168348 0.846930 0.358118 0.176707
O13   O     O_3   0.636433 0.562155 0.973499 -0.556232
C38   C     C_3   0.761920 0.500773 0.943740 -0.340200
H44   H     H_    0.769676 0.399877 0.959763 0.130346
H45   H     H_    0.855032 0.548324 0.965129 0.171410
H46   H     H_    0.770155 0.509707 0.879537 0.182901

loop_
_geom_bond_atom_site_label_1
_geom_bond_atom_site_label_2
_geom_bond_distance
_ccdc_geom_bond_type
C22   C26   1.545087 S    
O11   C36   1.414002 S    
C30   H24   1.112593 S    
C16   H4    1.085903 S    
C37   H41   1.107319 S    
H23   C31   1.107125 S    
O9    C33   1.411901 S    
C19   H7    1.112237 S    
C8    C16   1.456627 S    
O13   C38   1.415053 S    
Cu1   Cu2   2.685395 S    
C24   C26   1.554127 S    
Cu1   O7    1.966683 S    
C16   C17   1.346655 D    
C33   H30   1.114214 S    
C12   O10   1.378960 S    
C19   H8    1.111075 S    
O4    C2    1.293552 A    
O7    C4    1.300866 A    
C34   H33   1.107270 S    
C21   H16   1.113272 S    
C28   H21   1.111426 S    
C5    C6    1.410472 A    
H22   C29   1.102140 S    
C8    C9    1.397497 A    
C32   H27   1.111863 S    
O5    C3    1.293355 A    
C29   N1    1.475378 S    
C2    C5    1.455254 S    
C24   C25   1.547790 S    
C6    C7    1.402746 A    
C26   H15   1.114047 S    
C33   H31   1.108923 S    
C13   C14   1.404176 A    
C21   C25   1.543064 S    
C30   H25   1.109469 S    
C37   H42   1.111393 S    
C13   O11   1.382537 S    
C11   C12   1.393677 A    
H11   C21   1.113510 S    
C5    C10   1.400245 A    
C7    H5    1.082462 S    
C28   N2    1.488704 S    
O3    Cu1   1.970507 S    
C22   H13   1.114514 S    
C25   H17   1.113111 S    
C27   H19   1.111667 S    
C33   H29   1.110162 S    
C6    O9    1.389421 S    
C30   C32   1.575751 S    
C19   C20   1.539599 S    
C14   C15   1.391546 A    
O3    C2    1.294374 A    
C3    C24   1.479163 S    
C34   H32   1.110985 S    
C1    C23   1.484529 S    
C14   H6    1.081506 S    
N2    C31   1.503699 S    
N2    C32   1.489891 S    
C35   H35   1.113301 S    
C36   H40   1.107583 S    
Cu2   O8    1.970504 S    
C7    C8    1.395570 A    
C29   H28   1.111128 S    
H12   C25   1.113306 S    
C13   C18   1.420807 A    
C21   C23   1.552595 S    
C20   C24   1.553602 S    
Cu2   N1    2.017183 S    
C35   H36   1.112984 S    
O8    C4    1.306425 A    
C26   H14   1.114304 S    
C37   H43   1.105864 S    
C38   H45   1.109573 S    
O10   C35   1.410834 S    
C19   C23   1.548776 S    
C22   C23   1.574144 S    
Cu1   O5    1.966272 S    
C11   C15   1.393746 A    
C27   H18   1.112960 S    
C17   O13   1.389137 S    
O1    Cu1   1.969806 S    
O2    Cu2   1.966273 S    
C36   H39   1.110478 S    
O6    C3    1.291638 A    
O4    Cu2   1.966685 S    
C15   C17   1.473109 S    
C38   H46   1.109128 S    
C11   H2    1.083320 S    
C29   C31   1.581110 S    
C4    C18   1.493561 S    
C9    C10   1.391162 A    
C22   C34   1.545662 S    
O2    C1    1.288410 A    
C20   H10   1.112838 S    
C34   H34   1.110047 S    
C28   H20   1.112904 S    
C20   H9    1.112768 S    
C27   N1    1.491070 S    
O12   C37   1.414424 S    
C31   O12   1.419187 S    
C32   H26   1.111917 S    
Cu1   N2    2.017451 S    
C30   N1    1.490293 S    
C35   H37   1.109114 S    
C36   H38   1.109950 S    
Cu2   O6    1.969806 S    
C38   H44   1.116845 S    
C12   C18   1.422292 A    
O1    C1    1.298384 A    
C10   H3    1.083584 S    
C27   C28   1.577370 S    
C9    H1    1.083394 S    
