data_mof_unit_17930.cif
_audit_creation_date              2012-12-10T18:21:20-0500
_audit_creation_method            fapswitch 2.2
_symmetry_space_group_name_H-M    P1
_symmetry_Int_Tables_number       1
_space_group_crystal_system       triclinic
_cell_length_a                    15.026523
_cell_length_b                    14.008099
_cell_length_c                    10.829468
_cell_angle_alpha                 88.741905
_cell_angle_beta                  91.408753
_cell_angle_gamma                 90.393404
_cell_volume                      2278.24345692

loop_
_atom_site_label
_atom_site_type_symbol
_atom_type_description
_atom_site_fract_x
_atom_site_fract_y
_atom_site_fract_z
_atom_type_partial_charge
C1    C     C_R   0.326289 0.500192 0.503445 0.943810
C2    C     C_3   0.596725 0.518972 0.933433 -0.224443
C3    C     C_R   0.818019 0.587948 0.506229 0.464972
C4    C     C_R   0.770774 0.502863 0.532866 -0.244861
C5    C     C_R   0.815478 0.424253 0.591115 -0.109086
C6    C     C_R   0.909322 0.426567 0.606988 -0.115872
C7    C     C_R   0.955674 0.509180 0.566674 -0.059340
C8    C     C_R   0.909399 0.591888 0.527080 0.073506
C9    C     C_R   0.959333 0.349726 0.661102 0.391145
C10   C     C_R   0.052238 0.347092 0.647703 0.425514
C11   C     C_R   0.096535 0.425900 0.594697 -0.069757
C12   C     C_R   0.493521 0.500333 0.257906 0.885942
C13   C     C_R   0.048787 0.509326 0.562809 -0.047657
C14   C     C_R   0.093801 0.592405 0.521871 0.065359
C15   C     C_R   0.047281 0.677555 0.500987 -0.227014
C16   C     C_R   0.955783 0.677201 0.503039 -0.223592
C17   C     C_R   0.187718 0.423235 0.572829 -0.227155
C18   C     C_R   0.230842 0.502989 0.521298 -0.196977
C19   C     C_R   0.184004 0.588706 0.497787 0.449890
C20   C     C_R   0.577931 0.799015 0.486907 0.008899
C21   C     C_R   0.577648 0.202703 0.482040 0.053131
C22   C     C_R   0.422482 0.797479 0.515363 0.026404
C23   C     C_R   0.421866 0.200880 0.510485 -0.012533
C24   C     C_R   0.420265 0.898044 0.513802 -0.119251
C25   C     C_R   0.419900 0.100214 0.508652 -0.110368
C26   C     C_R   0.674059 0.500438 0.507954 0.922919
C27   C     C_R   0.500833 0.949456 0.502830 -0.050856
C28   C     C_R   0.500750 0.050454 0.501282 -0.061809
C29   C     C_R   0.581207 0.899589 0.491867 -0.118054
C30   C     C_R   0.580740 0.101940 0.485601 -0.111504
C31   C     C_R   0.339358 0.947831 0.520014 0.412346
C32   C     C_R   0.338979 0.048567 0.509956 0.404627
C33   C     C_R   0.661585 0.052355 0.473493 0.424729
C34   C     C_R   0.662335 0.951085 0.482801 0.422468
C35   C     C_R   0.500141 0.498658 0.742272 0.953859
C36   C     C_3   0.414176 0.565137 0.063020 -0.163572
C37   C     C_3   0.478305 0.390610 0.073983 -0.154291
C38   C     C_3   0.428893 0.577278 0.918535 0.446159
C39   C     C_3   0.463746 0.392783 0.928719 0.386739
C40   C     C_3   0.588325 0.538911 0.076643 -0.089729
C41   C     C_3   0.493070 0.499241 0.120729 -0.193305
C42   C     C_3   0.498708 0.496400 0.878972 -0.191748
H1    H     H_    0.225439 0.359332 0.595849 0.210900
H2    H     H_    0.080792 0.743699 0.476171 0.206408
H3    H     H_    0.921814 0.743074 0.478783 0.198127
H4    H     H_    0.637249 0.759415 0.471785 0.221951
H5    H     H_    0.637379 0.243667 0.465501 0.184378
H6    H     H_    0.362220 0.756891 0.527986 0.221756
H7    H     H_    0.360831 0.240225 0.519354 0.173420
N1    N     N_R   0.500070 0.750030 0.500050 -0.130571
N2    N     N_R   0.500070 0.249970 0.500050 -0.130359
O1    O     O_R   0.367860 0.580280 0.500020 -0.588055
O2    O     O_R   0.367860 0.419720 0.500020 -0.650837
O3    O     O_R   0.500000 0.580270 0.314790 -0.610448
O4    O     O_R   0.500000 0.419730 0.314790 -0.617205
O5    O     O_R   0.632160 0.580270 0.499960 -0.588421
O6    O     O_R   0.632160 0.419730 0.499960 -0.640882
O7    O     O_R   0.500030 0.580270 0.685200 -0.619390
O8    O     O_R   0.500030 0.419730 0.685200 -0.622970
Zn1   Zn    Zn3+2 0.500020 0.607200 0.499990 0.997635
Zn2   Zn    Zn3+2 0.500020 0.392800 0.499990 0.970476
C43   C     C_1   0.407933 0.659658 0.122689 0.113038
N3    N     N_1   0.402993 0.733385 0.168304 -0.184122
C44   C     C_1   0.554283 0.328132 0.114836 0.185146
N4    N     N_1   0.612198 0.278573 0.146774 -0.150999
O9    O     O_3   0.100620 0.270676 0.696103 -0.625236
C45   C     C_3   0.089773 0.192833 0.616828 -0.243831
H8    H     H_    0.133878 0.134436 0.651068 0.218952
H9    H     H_    0.108892 0.212701 0.521135 0.167112
H10   H     H_    0.020563 0.164440 0.616710 0.181917
O10   O     O_3   0.226314 0.670413 0.454371 -0.607985
C46   C     C_3   0.221730 0.671815 0.324300 -0.275686
H11   H     H_    0.152404 0.663022 0.287378 0.148114
H12   H     H_    0.265035 0.615782 0.288217 0.163651
H13   H     H_    0.246453 0.742131 0.290406 0.211365
O11   O     O_3   0.259605 0.898033 0.522980 -0.587316
C47   C     C_3   0.230818 0.894254 0.645890 -0.279274
H14   H     H_    0.212895 0.966431 0.677703 0.177338
H15   H     H_    0.281945 0.861626 0.709621 0.134623
H16   H     H_    0.170243 0.848696 0.650085 0.187493
O12   O     O_3   0.258922 0.095979 0.496607 -0.635931
C48   C     C_3   0.234825 0.098552 0.369688 -0.297904
H17   H     H_    0.222948 0.025462 0.334265 0.197021
H18   H     H_    0.286094 0.136221 0.313982 0.173312
H19   H     H_    0.171837 0.138457 0.356288 0.175166
O13   O     O_3   0.736555 0.102888 0.436680 -0.599881
C49   C     C_3   0.802839 0.102359 0.531245 -0.221356
H20   H     H_    0.849694 0.042757 0.518650 0.196977
H21   H     H_    0.775600 0.099499 0.626053 0.151797
H22   H     H_    0.842319 0.169245 0.522602 0.195858
O14   O     O_3   0.742353 0.903352 0.476428 -0.597739
C50   C     C_3   0.769635 0.873806 0.597300 -0.286538
H23   H     H_    0.732465 0.809344 0.628441 0.208812
H24   H     H_    0.762444 0.930797 0.666374 0.129669
H25   H     H_    0.841141 0.855122 0.596610 0.188856
C51   C     C_1   0.325285 0.523034 0.086994 0.269324
N5    N     N_1   0.255224 0.491308 0.104593 -0.209719
C52   C     C_1   0.401877 0.340902 0.132966 0.266773
N6    N     N_1   0.343080 0.301640 0.179598 -0.228681
O15   O     O_3   0.347562 0.561812 0.848387 -0.556431
C53   C     C_3   0.287207 0.639246 0.844330 -0.259497
H26   H     H_    0.304585 0.689874 0.768242 0.168670
H27   H     H_    0.284705 0.677376 0.932951 0.132880
H28   H     H_    0.219470 0.611052 0.823367 0.192462
O16   O     O_3   0.369948 0.388448 0.897295 -0.560573
C54   C     C_3   0.334113 0.298534 0.863635 -0.196230
H29   H     H_    0.354877 0.240375 0.929332 0.132639
H30   H     H_    0.352833 0.281594 0.767974 0.165971
H31   H     H_    0.260458 0.302745 0.864690 0.214639
C55   C     C_1   0.464545 0.675540 0.886925 0.151186
N7    N     N_1   0.490535 0.751463 0.862300 -0.190394
C56   C     C_1   0.512417 0.309630 0.874455 0.143208
N8    N     N_1   0.548672 0.245418 0.833194 -0.179053
C57   C     C_1   0.598977 0.642300 0.102604 0.185022
N9    N     N_1   0.608214 0.722698 0.122626 -0.184250
C58   C     C_1   0.663430 0.495571 0.150685 0.160290
N10   N     N_1   0.721861 0.461634 0.207478 -0.209987
C59   C     C_1   0.642034 0.598831 0.866214 0.191320
N11   N     N_1   0.677843 0.660337 0.813804 -0.195294
C60   C     C_1   0.658334 0.438994 0.912693 0.162913
N12   N     N_1   0.707976 0.377501 0.899767 -0.188812
O17   O     O_3   0.774805 0.669909 0.464882 -0.623147
C61   C     C_3   0.776831 0.676268 0.334841 -0.287395
H32   H     H_    0.840663 0.652246 0.295789 0.149300
H33   H     H_    0.767229 0.751938 0.305600 0.225421
H34   H     H_    0.720715 0.634907 0.295745 0.190310
C62   C     C_1   0.764757 0.342708 0.635217 0.334601
N13   N     N_1   0.724186 0.277923 0.671524 -0.187636
O18   O     O_3   0.918515 0.275130 0.723878 -0.630172
C63   C     C_3   0.922948 0.294003 0.851296 -0.235426
H35   H     H_    0.893216 0.364403 0.871573 0.161503
H36   H     H_    0.992707 0.290780 0.887847 0.189169
H37   H     H_    0.884083 0.238292 0.900982 0.197121

loop_
_geom_bond_atom_site_label_1
_geom_bond_atom_site_label_2
_ccdc_geom_bond_type
C22   H6    S    
C49   H20   S    
C53   H26   S    
C27   C29   A    
C19   O10   S    
N2    Zn2   S    
C24   C27   A    
C6    C9    A    
C57   N9    T    
C2    C59   S    
C7    C8    A    
O3    Zn1   S    
C47   H14   S    
C25   C28   A    
C32   O12   S    
C1    C18   S    
C43   N3    T    
C35   O7    A    
C15   H2    S    
C38   C42   S    
C5    C6    A    
C23   H7    S    
C54   H29   S    
O7    Zn1   S    
C15   C16   A    
C58   N10   T    
C35   O8    A    
C18   C19   A    
C35   C42   S    
C1    O2    A    
C55   N7    T    
C56   N8    T    
C20   N1    A    
O1    Zn1   S    
C59   N11   T    
O2    Zn2   S    
C40   C57   S    
C34   O14   S    
C38   C55   S    
C9    C10   A    
C3    O17   S    
C22   N1    A    
C25   C32   A    
C47   H15   S    
O9    C45   S    
C53   H27   S    
C13   C14   A    
C36   C41   S    
C46   H13   S    
C36   C43   S    
C37   C52   S    
C1    O1    A    
O12   C48   S    
C39   C42   S    
C20   C29   A    
C10   O9    S    
O8    Zn2   S    
C45   H8    S    
C61   H32   S    
O11   C47   S    
C46   H12   S    
C3    C8    A    
O14   C50   S    
C2    C60   S    
O13   C49   S    
C46   H11   S    
C61   H34   S    
C29   C34   A    
C50   H25   S    
O5    Zn1   S    
C26   O5    A    
C45   H9    S    
C63   H36   S    
C33   O13   S    
C17   H1    S    
C12   C41   S    
C36   C51   S    
C23   N2    A    
C31   C32   A    
C51   N5    T    
C5    C62   S    
C50   H24   S    
C17   C18   A    
C38   O15   S    
C40   C41   S    
C52   N6    T    
C53   H28   S    
C48   H18   S    
C49   H21   S    
C22   C24   A    
C63   H37   S    
C3    C4    A    
C21   N2    A    
C37   C44   S    
C60   N12   T    
O18   C63   S    
C21   C30   A    
C47   H16   S    
C39   O16   S    
C39   C56   S    
C30   C33   A    
C14   C19   A    
C4    C5    A    
C11   C17   A    
C16   H3    S    
C4    C26   S    
O6    Zn2   S    
C6    C7    A    
C9    O18   S    
C48   H19   S    
O16   C54   S    
C45   H10   S    
N1    Zn1   S    
C44   N4    T    
C36   C38   S    
C63   H35   S    
C24   C31   A    
O10   C46   S    
C37   C39   S    
C11   C13   A    
C31   O11   S    
C40   C58   S    
C54   H30   S    
C2    C42   S    
O4    Zn2   S    
C28   C30   A    
C50   H23   S    
C33   C34   A    
C23   C25   A    
C37   C41   S    
C26   O6    A    
C12   O3    A    
C12   O4    A    
C61   H33   S    
C10   C11   A    
C2    C40   S    
C7    C13   A    
C8    C16   A    
C48   H17   S    
C49   H22   S    
C27   C28   A    
C14   C15   A    
O15   C53   S    
O17   C61   S    
C20   H4    S    
C62   N13   T    
C21   H5    S    
C54   H31   S    
