data_mof_unit_17934.cif
_audit_creation_date              2013-03-05T15:55:19-0500
_audit_creation_method            fapswitch 2.2
_symmetry_space_group_name_H-M    P1
_symmetry_Int_Tables_number       1
_space_group_crystal_system       triclinic
_cell_length_a                    27.724835
_cell_length_b                    10.715136
_cell_length_c                    9.862322
_cell_angle_alpha                 89.99887
_cell_angle_beta                  90.201913
_cell_angle_gamma                 91.834994
_cell_volume                      2928.33237663

loop_
_atom_site_label
_atom_site_type_symbol
_atom_site_description
_atom_site_fract_x
_atom_site_fract_y
_atom_site_fract_z
_atom_type_partial_charge
O1    O     O_R   0.500000 0.316780 0.614690 -0.651612
O2    O     O_R   0.500000 0.316750 0.385360 -0.647826
C1    C     C_R   0.504330 0.260569 0.500980 0.863325
O3    O     O_R   0.428760 0.500030 0.614650 -0.643210
O4    O     O_R   0.428750 0.500010 0.385320 -0.637583
C2    C     C_R   0.406016 0.498515 0.499726 0.886100
Zn1   Zn    Zn3+2 0.500000 0.500020 0.653130 0.927498
Zn2   Zn    Zn3+2 0.500000 0.499980 0.346870 0.950186
O5    O     O_R   0.500000 0.683250 0.614640 -0.628472
O6    O     O_R   0.500000 0.683220 0.385310 -0.619825
O7    O     O_R   0.571250 0.499990 0.614680 -0.629070
O8    O     O_R   0.571240 0.499970 0.385350 -0.563603
C3    C     C_R   0.495814 0.739542 0.500773 0.891449
C4    C     C_R   0.593914 0.498168 0.500144 0.898410
C5    C     C_R   0.176193 0.360751 0.509052 0.580062
O9    O     O_2   0.199917 0.252691 0.510520 -0.536747
N1    N     N_R   0.201451 0.471972 0.501852 -0.339370
C6    C     C_R   0.179035 0.583509 0.502200 0.570567
C7    C     C_R   0.277577 0.488982 0.372813 0.363155
C8    C     C_R   0.328008 0.498478 0.375735 -0.281817
C9    C     C_R   0.328060 0.473595 0.620411 -0.198912
C10   C     C_R   0.278104 0.464185 0.619092 -0.134471
C11   C     C_R   0.252780 0.472286 0.496793 0.197093
C12   C     C_R   0.101602 0.472623 0.511985 -0.045838
C13   C     C_R   0.125739 0.358921 0.513611 -0.024086
C14   C     C_R   0.099189 0.246290 0.518104 -0.121882
C15   C     C_R   0.128703 0.585983 0.507195 -0.024366
C16   C     C_R   0.353313 0.491228 0.498837 -0.101637
H1    H     H_    0.346825 0.466976 0.716535 0.181311
H2    H     H_    0.258771 0.452351 0.713709 0.177013
H3    H     H_    0.116960 0.157671 0.517818 0.190810
C17   C     C_R   0.646412 0.489732 0.501067 -0.161086
C18   C     C_R   0.972646 0.358764 0.528258 0.047140
C19   C     C_R   0.975757 0.588603 0.503713 0.048267
C20   C     C_R   0.948969 0.473873 0.515572 0.072873
C21   C     C_R   0.944142 0.248093 0.546618 -0.210226
C22   C     C_R   0.894163 0.249824 0.546389 -0.133547
C23   C     C_R   0.870645 0.361803 0.528895 -0.024830
C24   C     C_R   0.897852 0.474252 0.514219 -0.051209
C25   C     C_R   0.873802 0.587083 0.497760 -0.027358
C26   C     C_R   0.823371 0.585339 0.495923 0.518231
N2    N     N_R   0.797899 0.475052 0.510286 -0.346176
C27   C     C_R   0.820213 0.364335 0.526602 0.513868
C28   C     C_R   0.721365 0.437393 0.392251 -0.200523
C29   C     C_R   0.671179 0.442127 0.388131 0.437277
C30   C     C_R   0.672195 0.526510 0.617909 -0.277768
C31   C     C_R   0.722063 0.519812 0.621396 -0.098191
C32   C     C_R   0.746583 0.476090 0.508481 0.259097
O10   O     O_2   0.793607 0.257463 0.541049 -0.558495
C33   C     C_R   0.023729 0.357918 0.522265 0.047273
C34   C     C_R   0.050501 0.473017 0.514720 0.075602
C35   C     C_R   0.026818 0.588557 0.509255 0.047143
C36   C     C_R   0.049200 0.245475 0.521899 -0.204940
H4    H     H_    0.740795 0.404342 0.304884 0.157126
H5    H     H_    0.873992 0.162459 0.560072 0.192142
H6    H     H_    0.959171 0.158043 0.563588 0.140185
H7    H     H_    0.031715 0.154362 0.521652 0.137937
O11   O     O_2   0.205509 0.691393 0.497516 -0.534133
C37   C     C_R   0.105206 0.699039 0.508059 -0.118361
H8    H     H_    0.347565 0.510779 0.281555 0.204856
H9    H     H_    0.125349 0.787392 0.507253 0.194256
C38   C     C_R   0.950336 0.699764 0.484655 -0.209711
C39   C     C_R   0.900374 0.698773 0.482263 -0.135397
O12   O     O_2   0.799839 0.692700 0.479285 -0.548835
C40   C     C_R   0.055278 0.700609 0.509807 -0.205633
H10   H     H_    0.967825 0.789564 0.468210 0.139912
H11   H     H_    0.653867 0.562162 0.705963 0.184717
H12   H     H_    0.882640 0.786446 0.467556 0.190046
H13   H     H_    0.741816 0.549857 0.711178 0.153860
H14   H     H_    0.040264 0.791918 0.513643 0.138823
H15   H     H_    0.505190 0.111715 0.285106 0.170289
C41   C     C_R   0.523111 0.115734 0.755805 -0.152114
H16   H     H_    0.544366 0.201913 0.761486 0.166068
C42   C     C_R   0.511502 0.056892 0.877994 -0.142309
H17   H     H_    0.521587 0.100591 0.973393 0.139469
C43   C     C_R   0.485482 0.943963 0.876885 -0.154784
H18   H     H_    0.474227 0.900828 0.971381 0.141022
C44   C     C_R   0.475308 0.884520 0.753836 -0.145816
H19   H     H_    0.454124 0.798151 0.757612 0.170490
C45   C     C_R   0.491217 0.938141 0.629488 0.098365
C46   C     C_R   0.508279 0.062084 0.630138 0.097151
C47   C     C_R   0.508584 0.127363 0.504857 -0.123001
C48   C     C_R   0.503980 0.063649 0.381798 -0.226010
H20   H     H_    0.496812 0.888706 0.284822 0.168127
C49   C     C_R   0.497383 0.936694 0.381586 -0.203963
C50   C     C_R   0.491805 0.872898 0.504287 -0.123554
H21   H     H_    0.553653 0.642069 0.126396 0.156936
C51   C     C_R   0.437214 0.334461 0.140129 -0.175410
H22   H     H_    0.434625 0.329864 0.247558 0.211036
C52   C     C_R   0.406593 0.252136 0.069383 -0.177222
H23   H     H_    0.382569 0.188432 0.123930 0.169295
C53   C     C_R   0.406573 0.252087 0.929079 -0.166804
H24   H     H_    0.382588 0.188227 0.874134 0.167421
C54   C     C_R   0.437178 0.334352 0.858824 -0.159928
H25   H     H_    0.434659 0.329318 0.751362 0.209102
C55   C     C_R   0.469078 0.418175 0.927263 0.160855
C56   C     C_R   0.469089 0.418228 0.072177 0.152569
N3    N     N_R   0.499540 0.498800 0.142780 -0.127881
C57   C     C_R   0.529562 0.578254 0.071957 -0.091686
H26   H     H_    0.553564 0.642181 0.874448 0.155302
C58   C     C_R   0.529530 0.578269 0.928494 -0.124405
N4    N     N_R   0.499520 0.498720 0.857170 -0.127793
N5    N     N_R   0.252463 0.497363 0.244867 0.218063
O13   O     O_R   0.274343 0.544847 0.139350 -0.380654
O14   O     O_R   0.208894 0.450603 0.229756 -0.374981
O15   O     O_3   0.646917 0.405874 0.271162 -0.595280
C59   C     C_3   0.635458 0.276714 0.279206 0.139279
H27   H     H_    0.615854 0.252540 0.374776 0.119483
H28   H     H_    0.668884 0.222025 0.273449 0.149589
C60   C     C_3   0.602811 0.239348 0.160646 -0.802407
H29   H     H_    0.621177 0.261260 0.063157 0.255053
H30   H     H_    0.594029 0.137566 0.164871 0.195626
H31   H     H_    0.568714 0.290836 0.165524 0.264546

loop_
_geom_bond_atom_site_label_1
_geom_bond_atom_site_label_2
_geom_bond_distance
_ccdc_geom_bond_type
C28   C32   1.396638 A    
C58   N4    1.365321 A    
C55   N4    1.375674 A    
C26   N2    1.364760 A    
C20   C24   1.417356 A    
C7    C8    1.398831 A    
C12   C15   1.408553 A    
C56   N3    1.375549 A    
C49   C50   1.396457 A    
C28   C29   1.394395 A    
Zn1   O7    2.012784 S    
N1    C11   1.424045 S    
C25   C39   1.393802 A    
C42   C43   1.388823 A    
C21   C22   1.386372 A    
C43   C44   1.394298 A    
C23   C24   1.408656 A    
O7    C4    1.294987 A    
C44   C45   1.419913 A    
C5    C13   1.399222 A    
O15   C59   1.412308 S    
C40   H14   1.076161 S    
C19   C38   1.415481 A    
C18   C21   1.415808 A    
O5    C3    1.281384 A    
C5    N1    1.364771 A    
C19   C20   1.420806 A    
C17   C29   1.414261 A    
Zn2   N3    2.012834 S    
C60   H29   1.111132 S    
C31   H13   1.083007 S    
C45   C50   1.419353 A    
C39   H12   1.083694 S    
C7    N5    1.443237 S    
C6    O11   1.350213 S    
C2    C16   1.460774 S    
C38   C39   1.385012 A    
Zn1   N4    2.012443 S    
C3    C50   1.437219 S    
C59   H27   1.116016 S    
C8    H8    1.083082 S    
H15   C48   1.083907 S    
C51   C56   1.410354 A    
C41   H16   1.080760 S    
C12   C34   1.417277 A    
C14   H3    1.083687 S    
C9    C10   1.385465 A    
C59   H28   1.113824 S    
O3    Zn1   2.009938 S    
C46   C47   1.419727 A    
H21   C57   1.081743 S    
C43   H18   1.082737 S    
C37   H9    1.083690 S    
C33   C36   1.415931 A    
C42   H17   1.082768 S    
C38   H10   1.076081 S    
C34   C35   1.420746 A    
C12   C13   1.408732 A    
C41   C42   1.393914 A    
C4    C17   1.461163 S    
C24   C25   1.408360 A    
C36   H7    1.076023 S    
C44   H19   1.080815 S    
C27   O10   1.349974 S    
C8    C16   1.403469 A    
C33   C34   1.421010 A    
C18   C33   1.418025 A    
C9    H1    1.083200 S    
O1    C1    1.280791 A    
C7    C11   1.413418 A    
C22   C23   1.394247 A    
C21   H6    1.076053 S    
C52   C53   1.383725 A    
C31   C32   1.395528 A    
Zn2   O8    2.009935 S    
C55   C56   1.429189 A    
C1    C47   1.436430 S    
C53   C54   1.390429 A    
N1    C6    1.364617 A    
N5    O14   1.300884 A    
N2    C32   1.423173 S    
H20   C49   1.083862 S    
C54   C55   1.410476 A    
C60   H31   1.110899 S    
O3    C2    1.294914 A    
C25   C26   1.397760 A    
C48   C49   1.366766 A    
C9    C16   1.400327 A    
O8    C4    1.293465 A    
C47   C48   1.395948 A    
C59   C60   1.521872 S    
N2    C27   1.364677 A    
C14   C36   1.386336 A    
C29   O15   1.382721 S    
Zn1   O5    1.999688 S    
C30   C31   1.387032 A    
C10   H2    1.083196 S    
C57   C58   1.414875 A    
O1    Zn1   1.999714 S    
C17   C30   1.403698 A    
O2    Zn2   1.999686 S    
C6    C15   1.397588 A    
C41   C46   1.420171 A    
C51   C52   1.390539 A    
C45   C46   1.395469 A    
O6    C3    1.296083 A    
O4    Zn2   2.012787 S    
C19   C35   1.416555 A    
O2    C1    1.296415 A    
C13   C14   1.394133 A    
C30   H11   1.083441 S    
C15   C37   1.393760 A    
C37   C40   1.385049 A    
C52   H23   1.082758 S    
O4    C2    1.294205 A    
C53   H24   1.082767 S    
C18   C20   1.420961 A    
C54   H25   1.063138 S    
C60   H30   1.110636 S    
C22   H5    1.083651 S    
C28   H4    1.083295 S    
C23   C27   1.399443 A    
C51   H22   1.063211 S    
Zn2   O6    1.999713 S    
N3    C57   1.365357 A    
N5    O13   1.301718 A    
C10   C11   1.397575 A    
H26   C58   1.081836 S    
C26   O12   1.350285 S    
C35   C40   1.415445 A    
C5    O9    1.349891 S    
