data_mof_unit_16184.cif
_audit_creation_date              2012-10-26T21:11:06-0400
_audit_creation_method            fapswitch 2.2
_symmetry_space_group_name_H-M    P1
_symmetry_Int_Tables_number       1
_space_group_crystal_system       triclinic
_cell_length_a                    10.939374
_cell_length_b                    10.93506
_cell_length_c                    13.110232
_cell_angle_alpha                 91.104101
_cell_angle_beta                  91.730153
_cell_angle_gamma                 91.046591
_cell_volume                      1566.9967437

loop_
_atom_site_label
_atom_site_type_symbol
_atom_type_description
_atom_site_fract_x
_atom_site_fract_y
_atom_site_fract_z
_atom_type_partial_charge
Br1   Br    Br    0.304284 0.816909 0.155112 -0.478600
Br2   Br    Br    0.696828 0.183799 0.845958 -0.478025
Br3   Br    Br    0.183501 0.780415 0.385804 -0.384580
Br4   Br    Br    0.816852 0.219771 0.614916 -0.383632
Br5   Br    Br    0.998066 0.302465 0.251899 -0.505954
Br6   Br    Br    0.001274 0.698615 0.747220 -0.505974
Br7   Br    Br    0.264990 0.120119 0.290889 -0.348591
Br8   Br    Br    0.734319 0.880991 0.710230 -0.348587
C1    C     C_R   0.500611 0.259407 0.498855 0.595002
C2    C     C_R   0.571343 0.857624 0.756465 0.231873
C3    C     C_R   0.530522 0.113646 0.305412 0.039955
C4    C     C_R   0.468813 0.886295 0.694516 0.039661
C5    C     C_R   0.648409 0.132480 0.268607 -0.095875
C6    C     C_R   0.350739 0.866895 0.730768 -0.095476
C7    C     C_R   0.663654 0.179723 0.171419 -0.093256
C8    C     C_R   0.335080 0.819590 0.827877 -0.093656
C9    C     C_R   0.561489 0.207704 0.110473 -0.125988
C10   C     C_R   0.437003 0.792066 0.889282 -0.126146
C11   C     C_R   0.514997 0.931915 0.410378 -0.079949
C12   C     C_R   0.499327 0.740587 0.501146 0.594975
C13   C     C_R   0.484842 0.068071 0.589629 -0.079842
C14   C     C_R   0.499418 0.873000 0.502912 0.035496
C15   C     C_R   0.500431 0.126988 0.497091 0.035423
C16   C     C_R   0.259326 0.498267 0.498245 0.591301
C17   C     C_R   0.740673 0.501793 0.501752 0.591256
C18   C     C_R   0.484080 0.941706 0.593707 0.003680
C19   C     C_R   0.515653 0.058272 0.406283 0.003602
C20   C     C_1   0.499972 0.500268 0.173555 0.143465
C21   C     C_1   0.500031 0.499743 0.826445 0.143386
C22   C     C_1   0.499861 0.500177 0.050684 -0.081398
C23   C     C_R   0.873157 0.501943 0.504202 0.042583
C24   C     C_1   0.500141 0.499845 0.949316 -0.081468
C25   C     C_R   0.216999 0.669505 0.186500 0.181045
C26   C     C_R   0.783499 0.331347 0.814003 0.180881
C27   C     C_R   0.169673 0.651377 0.283433 0.194504
C28   C     C_R   0.830634 0.349176 0.716963 0.194468
C29   C     C_R   0.109034 0.540159 0.304285 0.010163
C30   C     C_R   0.890991 0.460417 0.695742 0.010023
C31   C     C_R   0.090408 0.450551 0.225687 0.147572
C32   C     C_R   0.909359 0.550456 0.774013 0.147627
C33   C     C_R   0.136347 0.469879 0.127499 -0.005323
C34   C     C_R   0.126841 0.498193 0.495780 0.042630
C35   C     C_R   0.863480 0.531511 0.872274 -0.005296
C36   C     C_R   0.200678 0.579784 0.109787 -0.133868
C37   C     C_R   0.799581 0.421477 0.890410 -0.134171
C38   C     C_R   0.930391 0.523690 0.412191 -0.081732
C39   C     C_R   0.069603 0.476490 0.587797 -0.081880
C40   C     C_3   0.112839 0.372532 0.044082 -0.246645
C41   C     C_3   0.165543 0.399036 0.939913 -0.452354
C42   C     C_3   0.886577 0.629405 0.955308 -0.246721
C43   C     C_3   0.833732 0.603419 0.059519 -0.452323
C44   C     C_R   0.943528 0.479628 0.593903 0.040064
C45   C     C_R   0.056474 0.520590 0.406080 0.040177
C46   C     C_R   0.443887 0.189625 0.146623 -0.065864
C47   C     C_R   0.554790 0.810695 0.853680 -0.065947
C48   C     C_R   0.427748 0.142782 0.243926 0.232476
Cu1   Cu    Cu3+1 0.499990 0.499990 0.592680 1.055448
Cu2   Cu    Cu3+1 0.500010 0.500010 0.407320 1.055485
H1    H     H_    0.237962 0.598132 0.036133 0.143554
H2    H     H_    0.123462 0.457888 0.656457 0.144381
H3    H     H_    0.573260 0.244547 0.035485 0.165222
H4    H     H_    0.424893 0.755156 0.964200 0.164860
H5    H     H_    0.365413 0.212367 0.098976 0.137932
H6    H     H_    0.633087 0.788304 0.901679 0.137904
H7    H     H_    0.129255 0.485217 0.908892 0.165718
H8    H     H_    0.266677 0.404366 0.946021 0.159350
H9    H     H_    0.139067 0.323491 0.885396 0.170761
H10   H     H_    0.151420 0.284911 0.070416 0.207305
H11   H     H_    0.012495 0.358558 0.032690 0.184702
H12   H     H_    0.762463 0.403345 0.964165 0.143979
H13   H     H_    0.732628 0.597363 0.053189 0.159406
H14   H     H_    0.870567 0.517755 0.091120 0.165860
H15   H     H_    0.859486 0.679603 0.113679 0.170923
H16   H     H_    0.986857 0.643728 0.966785 0.184540
H17   H     H_    0.847776 0.716728 0.928538 0.207848
H18   H     H_    0.728191 0.110060 0.315007 0.176577
H19   H     H_    0.271129 0.888933 0.684001 0.177119
H20   H     H_    0.754555 0.194159 0.143061 0.181221
H21   H     H_    0.244045 0.804746 0.855825 0.180887
H22   H     H_    0.526586 0.879402 0.340375 0.169535
H23   H     H_    0.473244 0.120584 0.659630 0.169259
H24   H     H_    0.876523 0.542361 0.343551 0.144614
N1    N     N_1   0.500030 0.500030 0.268070 -0.169044
N2    N     N_1   0.499970 0.499970 0.731930 -0.169061
O1    O     O_R   0.499980 0.319630 0.578260 -0.490473
O2    O     O_R   0.500020 0.680370 0.421740 -0.490480
O3    O     O_R   0.500000 0.319650 0.421740 -0.490157
O4    O     O_R   0.500000 0.680350 0.578260 -0.490154
O5    O     O_R   0.319630 0.500000 0.578260 -0.508367
O6    O     O_R   0.680370 0.500000 0.421740 -0.508248
O7    O     O_R   0.319650 0.500020 0.421740 -0.481287
O8    O     O_R   0.680350 0.499980 0.578260 -0.481283

loop_
_geom_bond_atom_site_label_1
_geom_bond_atom_site_label_2
_ccdc_geom_bond_type
C17   C23   S    
C30   C32   A    
C13   C18   A    
Br4   C28   S    
Cu1   O8    S    
C16   C34   S    
C23   C44   A    
C16   O5    A    
Br1   C25   S    
C31   C33   A    
C17   O6    A    
C41   H7    S    
C27   C29   A    
C21   C24   S    
Br6   C32   S    
C42   H16   S    
C34   C45   A    
C9    H3    S    
C7    H20   S    
C30   C44   S    
C46   H5    S    
C36   H1    S    
C6    H19   S    
C1    O1    A    
C39   H2    S    
C38   H24   S    
C32   C35   A    
C23   C38   A    
C12   O2    A    
C3    C19   S    
C11   C19   A    
Cu2   O7    S    
C40   H11   S    
C29   C45   S    
Br2   C26   S    
Cu2   O3    S    
C20   N1    T    
C43   H13   S    
Br7   C48   S    
Cu2   O2    S    
C2    C4    A    
C46   C48   A    
C41   H8    S    
C11   C14   A    
C21   N2    T    
C1    C15   S    
C4    C18   S    
C35   C37   A    
C5    H18   S    
Br3   C27   S    
C47   H6    S    
C42   C43   S    
Cu1   N2    S    
C26   C37   A    
C40   H10   S    
C2    C47   A    
Cu2   O6    S    
Cu1   O5    S    
C10   C47   A    
Br8   C2    S    
C40   C41   S    
C13   H23   S    
C15   C19   A    
C5    C7    A    
C33   C36   A    
C6    C8    A    
C43   H14   S    
C28   C30   A    
C16   O7    A    
C7    C9    A    
Br5   C31   S    
C17   O8    A    
C41   H9    S    
C37   H12   S    
C25   C36   A    
C10   H4    S    
C43   H15   S    
C12   C14   S    
C35   C42   S    
C39   C44   A    
Cu1   O4    S    
C8    H21   S    
C13   C15   A    
C4    C6    A    
C29   C31   A    
C42   H17   S    
C1    O3    A    
C22   C24   T    
C3    C5    A    
Cu1   Cu2   S    
C12   O4    A    
C38   C45   A    
C20   C22   S    
C25   C27   A    
C33   C40   S    
Cu1   O1    S    
C26   C28   A    
C34   C39   A    
C11   H22   S    
C8    C10   A    
C14   C18   A    
Cu2   N1    S    
C9    C46   A    
C3    C48   A    
