data_mof_unit_39187.cif
_audit_creation_date              2013-03-05T16:17:52-0500
_audit_creation_method            fapswitch 2.2
_symmetry_space_group_name_H-M    P1
_symmetry_Int_Tables_number       1
_space_group_crystal_system       triclinic
_cell_length_a                    8.271518
_cell_length_b                    22.900307
_cell_length_c                    27.150948
_cell_angle_alpha                 96.990343
_cell_angle_beta                  92.326856
_cell_angle_gamma                 89.891402
_cell_volume                      5100.47860666

loop_
_atom_site_label
_atom_site_type_symbol
_atom_site_description
_atom_site_fract_x
_atom_site_fract_y
_atom_site_fract_z
_atom_type_partial_charge
P1    P     P_3+3 0.092730 0.547450 0.611370 0.483678
O1    O     O_2   0.919820 0.530450 0.618560 -0.367711
O2    O     O_3   0.151800 0.530410 0.558380 -0.389489
O3    O     O_3   0.654050 0.426350 0.586890 -0.350410
O4    O     O_2   0.810444 0.463507 0.672521 -0.415560
O5    O     O_3   0.096805 0.623416 0.628933 -0.556661
O6    O     O_3   0.656038 0.366497 0.671693 -0.502570
H1    H     H_    0.452582 0.344957 0.625012 0.070974
C1    C     C_3   0.519900 0.274400 0.666394 -0.810250
H2    H     H_    0.605045 0.254460 0.638549 0.283786
H3    H     H_    0.566288 0.267197 0.704136 0.248711
P2    P     P_3+3 0.606840 0.368620 0.459370 0.509437
P3    P     P_3+3 0.068822 0.320052 0.559155 0.455990
O7    O     O_2   0.782760 0.360070 0.473730 -0.386070
O8    O     O_3   0.056430 0.397060 0.562000 -0.407478
O9    O     O_2   0.928195 0.292326 0.524963 -0.371316
O10   O     O_3   0.605801 0.353113 0.394603 -0.525710
O11   O     O_3   0.033226 0.297604 0.617147 -0.516726
C2    C     C_3   0.061988 0.345771 0.653565 0.478154
H4    H     H_    0.968593 0.379396 0.649608 0.182725
H5    H     H_    0.182033 0.365923 0.650219 -0.024320
C3    C     C_3   0.053256 0.325935 0.704818 -0.892135
H6    H     H_    0.072222 0.364396 0.733656 0.245118
H7    H     H_    0.932393 0.306395 0.709076 0.278327
C4    C     C_3   0.150667 0.347698 0.415650 0.198105
H8    H     H_    0.235515 0.375533 0.441063 0.056812
H9    H     H_    0.043620 0.336766 0.436063 0.113018
C5    C     C_3   0.239255 0.291461 0.396563 0.152762
H10   H     H_    0.335949 0.304398 0.373255 0.145373
H11   H     H_    0.292043 0.270215 0.427778 0.031444
Ba1   Ba    Ba6+2 0.848110 0.472730 0.522970 1.598087
C6    C     C_3   0.022312 0.652612 0.592150 0.384679
H12   H     H_    0.907778 0.630773 0.577902 0.108947
H13   H     H_    0.106388 0.653813 0.561533 0.094871
C7    C     C_3   0.985507 0.715059 0.615091 -0.878846
H14   H     H_    0.912763 0.713782 0.648450 0.283636
H15   H     H_    0.915356 0.739218 0.588569 0.224881
H16   H     H_    0.100159 0.739186 0.626165 0.252307
C8    C     C_3   0.707098 0.304320 0.380030 0.351312
H17   H     H_    0.764208 0.283091 0.410863 0.118236
H18   H     H_    0.806898 0.320077 0.359038 0.166073
C9    C     C_3   0.614564 0.255744 0.346781 -0.749298
H19   H     H_    0.700135 0.221263 0.331206 0.268583
H20   H     H_    0.549157 0.274101 0.315500 0.281474
H21   H     H_    0.528935 0.234071 0.369623 0.259278
P4    P     P_3+3 0.096970 0.452510 0.388620 0.534120
O12   O     O_2   0.269870 0.469530 0.381410 -0.296774
O13   O     O_3   0.037890 0.469550 0.441610 -0.381748
O14   O     O_3   0.535640 0.573600 0.413100 -0.369214
O15   O     O_3   0.102789 0.375805 0.374515 -0.554250
P5    P     P_3+3 0.129101 0.680319 0.447637 0.457415
O16   O     O_3   0.647280 0.568810 0.525990 -0.383517
O17   O     O_3   0.133260 0.602900 0.438000 -0.397953
O18   O     O_2   0.301544 0.702616 0.463978 -0.391547
O19   O     O_3   0.096808 0.709690 0.391743 -0.548172
Ba2   Ba    Ba6+2 0.341700 0.527220 0.477020 1.617872
P6    P     P_3+3 0.647438 0.436304 0.651896 0.456945
C10   C     C_3   0.503709 0.339826 0.662789 0.327144
H22   H     H_    0.421173 0.358923 0.691694 0.110254
H23   H     H_    0.399867 0.252763 0.659013 0.239409
O20   O     O_3   0.542410 0.431140 0.474010 -0.341101
C11   C     C_3   0.536303 0.616575 0.629091 0.405231
H24   H     H_    0.414591 0.603538 0.612813 0.110015
H25   H     H_    0.617940 0.577842 0.625689 0.102113
C12   C     C_3   0.519065 0.638444 0.683827 -0.916630
H26   H     H_    0.443787 0.678839 0.687773 0.280303
H27   H     H_    0.459440 0.604630 0.702802 0.223024
H28   H     H_    0.640223 0.648566 0.701973 0.258762
P7    P     P_3+3 0.591909 0.642487 0.541579 0.452500
O21   O     O_2   0.406930 0.639920 0.526240 -0.361460
O22   O     O_3   0.602000 0.662068 0.605943 -0.556732
H29   H     H_    0.148397 0.292579 0.710075 0.251572
C13   C     C_3   0.105478 0.665286 0.351762 0.289253
H30   H     H_    0.215961 0.638211 0.354891 0.175832
H31   H     H_    0.997852 0.636397 0.350311 0.033748
C14   C     C_3   0.110667 0.693959 0.303990 -0.640130
H32   H     H_    0.113580 0.659076 0.272086 0.231243
H33   H     H_    0.223726 0.719904 0.304141 0.194664
P8    P     P_3+3 0.560189 0.571061 0.349175 0.516610
C15   C     C_3   0.600572 0.682628 0.364194 0.397685
H34   H     H_    0.731122 0.676023 0.357198 0.050229
O23   O     O_2   0.427955 0.529602 0.322622 -0.320220
O24   O     O_3   0.506068 0.640600 0.333714 -0.532026
H35   H     H_    0.579384 0.680466 0.404089 0.116210
H36   H     H_    0.636766 0.776707 0.374073 0.257415
C16   C     C_3   0.553846 0.743903 0.352880 -0.906671
H37   H     H_    0.428353 0.754007 0.364289 0.261699
H38   H     H_    0.562634 0.747110 0.312536 0.280109
C17   C     C_R   0.039001 0.477332 0.182159 0.600632
O25   O     O_2   0.045883 0.433118 0.203152 -0.533002
N1    N     N_R   0.993397 0.530657 0.208050 -0.163549
C18   C     C_R   0.974270 0.579094 0.182052 0.512043
C19   C     C_2   0.820104 0.561503 0.279318 -0.117260
C20   C     C_3   0.771384 0.550099 0.330850 -0.065939
C21   C     C_1   0.980380 0.482804 0.337168 0.013492
C22   C     C_2   0.051378 0.498801 0.296960 -0.157678
C23   C     C_2   0.957329 0.534490 0.261239 0.093878
C24   C     C_R   0.056588 0.522144 0.104989 -0.062974
C25   C     C_R   0.073385 0.472791 0.130961 -0.091169
C26   C     C_R   0.122139 0.419412 0.105040 -0.039779
C27   C     C_R   0.006373 0.575535 0.130899 -0.049538
C28   C     C_2   0.820159 0.487867 0.336912 0.243356
H39   H     H_    0.165209 0.478810 0.285929 0.221394
H40   H     H_    0.135721 0.380391 0.123728 0.180924
C29   C     C_2   0.334662 0.480513 0.641275 -0.487982
C30   C     C_R   0.172811 0.459816 0.975626 0.042028
C31   C     C_R   0.094922 0.563772 0.975167 0.042503
C32   C     C_R   0.149392 0.509797 0.949720 0.085177
C33   C     C_R   0.229712 0.407525 0.948551 -0.196291
C34   C     C_R   0.260993 0.404313 0.898202 -0.081482
C35   C     C_R   0.237404 0.452982 0.872133 -0.051793
C36   C     C_R   0.180999 0.505803 0.897771 -0.065493
C37   C     C_R   0.156691 0.554706 0.871471 -0.063316
C38   C     C_R   0.190380 0.550448 0.820363 0.530835
N2    N     N_R   0.247078 0.498444 0.795566 -0.163362
C39   C     C_R   0.270012 0.449881 0.820979 0.515789
C40   C     C_2   0.439181 0.481364 0.728824 -0.227589
C41   C     C_3   0.482451 0.485836 0.675588 0.152985
C42   C     C_1   0.204654 0.508626 0.656995 0.318607
C43   C     C_2   0.164509 0.510824 0.704318 -0.219703
C44   C     C_2   0.287447 0.495646 0.743354 0.135033
O26   O     O_2   0.318274 0.403772 0.799046 -0.606960
C45   C     C_R   0.139289 0.463672 0.027355 0.038036
C46   C     C_R   0.087906 0.517978 0.052995 0.090037
C47   C     C_R   0.066769 0.568149 0.027216 0.042055
C48   C     C_R   0.154547 0.414886 0.054684 -0.194827
H41   H     H_    0.533284 0.472405 0.755911 0.167256
H42   H     H_    0.304641 0.363061 0.879662 0.169585
H43   H     H_    0.253219 0.367895 0.965177 0.131584
H44   H     H_    0.190023 0.371890 0.038254 0.132676
O27   O     O_2   0.928404 0.625745 0.203224 -0.567626
C49   C     C_R   0.988648 0.624760 0.105182 -0.065189
H45   H     H_    0.737382 0.584246 0.256255 0.207034
H46   H     H_    0.951418 0.666753 0.124067 0.180165
C50   C     C_R   0.069906 0.611672 0.947275 -0.197651
C51   C     C_R   0.100207 0.607161 0.896853 -0.079536
O28   O     O_2   0.171750 0.593481 0.798185 -0.584258
C52   C     C_R   0.018222 0.621314 0.054794 -0.204865
H47   H     H_    0.025543 0.653715 0.963073 0.130442
H48   H     H_    0.079141 0.645482 0.877697 0.171337
H49   H     H_    0.045099 0.525391 0.715330 0.186603
H50   H     H_    0.002583 0.661763 0.038783 0.131689
H51   H     H_    0.331055 0.451137 0.606737 0.158334
H52   H     H_    0.666064 0.053382 0.385612 0.179402
H53   H     H_    0.755889 0.952414 0.383683 0.172642
C53   C     C_R   0.366964 0.334267 0.519326 -0.495782
C54   C     C_R   0.646670 0.946336 0.548522 -0.079726
C55   C     C_R   0.683397 0.885150 0.544174 0.544108
O29   O     O_2   0.662260 0.857174 0.578872 -0.549424
N3    N     N_R   0.740575 0.856229 0.500518 -0.169865
C56   C     C_R   0.756548 0.885851 0.459522 0.519029
O30   O     O_2   0.810384 0.860270 0.421561 -0.606457
C57   C     C_R   0.708340 0.945110 0.460829 -0.044728
C58   C     C_R   0.652771 0.975455 0.505364 -0.022626
C59   C     C_R   0.598711 0.979362 0.593642 -0.065000
C60   C     C_R   0.547551 0.037756 0.593614 -0.201928
C61   C     C_R   0.549232 0.066189 0.550647 -0.021408
C62   C     C_R   0.602666 0.035173 0.506465 -0.018448
C63   C     C_R   0.713416 0.974548 0.418298 -0.118928
C64   C     C_R   0.661414 0.032671 0.419357 -0.089158
C65   C     C_R   0.605078 0.063650 0.463205 -0.062986
C66   C     C_R   0.550671 0.122422 0.464658 0.550597
N4    N     N_R   0.502060 0.153282 0.508733 -0.168443
C67   C     C_R   0.501825 0.125632 0.551466 0.530839
C68   C     C_2   0.933460 0.774672 0.488784 -0.150700
C69   C     C_3   0.975916 0.710443 0.491909 0.168530
C70   C     C_1   0.695590 0.693978 0.507559 0.264759
C71   C     C_2   0.654366 0.749826 0.507047 -0.197176
C72   C     C_2   0.780535 0.793964 0.497749 0.119062
C73   C     C_R   0.304963 0.233760 0.531133 -0.167944
C74   C     C_R   0.262948 0.293421 0.535354 0.194733
C75   C     C_R   0.504271 0.315733 0.493981 0.246058
C76   C     C_R   0.550992 0.256297 0.491329 -0.224333
C77   C     C_R   0.452846 0.214679 0.510555 0.149526
O31   O     O_2   0.544598 0.145810 0.426499 -0.577402
O32   O     O_2   0.462023 0.153004 0.590540 -0.603084
C78   C     C_2   0.825229 0.672856 0.485478 -0.482656
H54   H     H_    0.510013 0.061771 0.628192 0.166782
H55   H     H_    0.223156 0.202388 0.543751 0.169198
H56   H     H_    0.531714 0.764026 0.514720 0.173568
H57   H     H_    0.028623 0.805743 0.483800 0.154892
H58   H     H_    0.661952 0.242119 0.474052 0.174874
H59   H     H_    0.333753 0.380249 0.522931 0.169095
H60   H     H_    0.823682 0.629576 0.464027 0.162347
S1    S     S_3+6 0.116975 0.237240 0.359817 -0.023827
O33   O     O_2   0.993346 0.213822 0.391480 -0.337230
O34   O     O_2   0.034982 0.262611 0.316889 -0.256101
O35   O     O_3   0.238079 0.181902 0.337738 -0.487400
H61   H     H_    0.163361 0.149292 0.324404 0.380458
C79   C     C_2   0.969481 0.734651 0.299101 0.678675
H62   H     H_    0.955251 0.772717 0.326608 0.068622
O36   O     O_2   0.870655 0.725788 0.264398 -0.535745
S2    S     S_3+6 0.704156 0.432722 0.298187 0.042666
O37   O     O_2   0.560277 0.415608 0.324909 -0.209234
O38   O     O_2   0.641123 0.457469 0.252475 -0.239447
O39   O     O_3   0.813199 0.372810 0.278881 -0.448825
H63   H     H_    0.905088 0.372044 0.303313 0.355104
C80   C     C_2   0.606306 0.957091 0.642788 0.670438
H64   H     H_    0.508527 0.966952 0.668084 -0.027749
O40   O     O_2   0.726399 0.931753 0.657019 -0.524396

loop_
_geom_bond_atom_site_label_1
_geom_bond_atom_site_label_2
_geom_bond_distance
_ccdc_geom_bond_type
O5    C6    1.391055 S    
C57   C63   1.408274 A    
C68   C69   1.523142 S    
N2    C44   1.463393 S    
C53   C75   1.390719 A    
C33   C34   1.394716 A    
C13   H30   1.109583 S    
Ba1   O20   2.914796 S    
C21   C22   1.349464 D    
P1    Ba1   3.376657 S    
Ba1   O16   2.749663 S    
C15   H35   1.111281 S    
C38   N2    1.385573 Am   
C45   C46   1.422379 A    
C8    H18   1.107203 S    
C76   C77   1.413633 A    
C75   C76   1.408383 A    
C4    C5    1.526041 S    
C24   C46   1.437329 A    
C19   C20   1.524238 S    
C39   O26   1.222126 D    
C53   H59   1.081614 S    
C17   C25   1.421562 A    
C26   C48   1.395348 A    
C5    H10   1.102524 S    
C7    H15   1.105964 S    
C14   H33   1.108503 S    
C1    C10   1.518625 S    
C19   H45   1.083868 S    
O10   C8    1.422282 S    
H53   C63   1.083421 S    
C16   H38   1.112025 S    
O39   H63   0.989888 S    
S1    O34   1.501718 D    
N3    C72   1.456780 S    
C73   C74   1.401388 A    
C48   H44   1.075733 S    
C49   C52   1.392323 A    
N2    C39   1.387152 Am   
C26   H40   1.083473 S    
P1    O1    1.509471 D    
P1    C42   1.831361 S    
C38   O28   1.222224 D    
P7    O22   1.749145 S    
C54   C58   1.419649 A    
C40   C44   1.358325 D    
C4    O15   1.398791 S    
C15   C16   1.518552 S    
O16   P7    1.753455 S    
C54   C55   1.424989 A    
H1    C10   1.112912 S    
C34   C35   1.400444 A    
C60   H54   1.085173 S    
C61   C62   1.404752 A    
P4    C21   1.867305 S    
C2    H4    1.101096 S    
S2    O38   1.500309 D    
C37   C51   1.399517 A    
C30   C45   1.434798 A    
C11   H25   1.110909 S    
C31   C32   1.422495 A    
C80   H64   1.087883 S    
Ba1   Ba2   4.538079 S    
C17   N1    1.392309 Am   
C54   C59   1.429292 A    
C1    H2    1.110877 S    
O7    Ba1   2.800486 S    
O6    C10   1.400462 S    
O19   C13   1.398170 S    
C62   C65   1.411937 A    
C21   C28   1.329927 D    
C51   H48   1.083567 S    
C12   H28   1.110760 S    
P6    C41   1.857587 S    
C57   C58   1.412661 A    
C53   C74   1.391788 A    
C13   H31   1.106698 S    
C9    H20   1.113315 S    
C15   O24   1.406658 S    
C3    H29   1.112792 S    
C36   C37   1.409464 A    
C65   C66   1.414834 A    
C8    C9    1.530008 S    
C3    H6    1.111809 S    
C68   C72   1.360572 D    
P4    O13   1.542962 S    
P1    O5    1.746972 S    
O3    Ba1   2.719914 S    
C6    C7    1.524013 S    
C50   C51   1.393222 A    
C2    C3    1.519925 S    
C14   H32   1.105559 S    
C31   C47   1.432999 A    
P8    C20   1.881203 S    
P2    C75   1.848066 S    
C52   H50   1.075506 S    
C70   C71   1.324543 D    
C16   H37   1.111175 S    
O11   C2    1.402667 S    
S1    O35   1.681598 S    
C66   O31   1.222097 D    
C12   H27   1.107899 S    
C4    H8    1.109183 S    
C71   H56   1.085269 S    
N1    C23   1.478600 S    
C32   C36   1.436864 A    
O1    Ba1   2.806749 S    
P1    O2    1.542937 S    
C9    H21   1.115598 S    
C6    H13   1.108154 S    
P2    O10   1.750780 S    
C50   H47   1.075430 S    
P7    C70   1.819998 S    
C79   H62   1.086189 S    
C11   H24   1.109446 S    
C1    H3    1.110616 S    
O2    Ba2   2.755785 S    
C63   C64   1.395340 A    
C35   C36   1.408792 A    
C56   O30   1.221906 D    
S2    O39   1.682070 S    
C22   C23   1.530689 S    
C7    H16   1.110606 S    
C69   C78   1.508229 S    
C55   O29   1.220347 D    
O2    Ba1   2.913154 S    
C40   H41   1.085589 S    
C61   C67   1.413712 A    
H36   C16   1.109295 S    
C35   C39   1.418843 A    
C59   C80   1.484360 S    
C18   C27   1.417173 A    
P3    O11   1.750813 S    
C71   C72   1.504010 S    
C70   C78   1.312602 D    
O12   Ba2   2.807143 S    
P2    O7    1.509692 D    
C76   H58   1.079164 S    
C24   C25   1.406898 A    
Ba2   O21   2.800912 S    
Ba1   O13   2.755204 S    
P3    O8    1.758760 S    
P2    Ba1   3.374141 S    
C33   H43   1.075693 S    
C4    H9    1.108301 S    
C13   C14   1.525545 S    
C3    H7    1.112073 S    
C29   C41   1.502526 S    
C22   H39   1.083364 S    
H52   C64   1.083794 S    
C9    H19   1.115437 S    
C24   C27   1.405262 A    
C28   S2    1.794536 S    
C19   C23   1.371376 D    
N1    C18   1.390849 Am   
C43   C44   1.509635 S    
C37   C38   1.418110 A    
C73   C77   1.411874 A    
O17   Ba2   2.717691 S    
O13   Ba2   2.913901 S    
P4    O12   1.509626 D    
C60   C61   1.404058 A    
C79   O36   1.220120 D    
C11   C12   1.521683 S    
C2    H5    1.107449 S    
N3    C56   1.382975 Am   
C31   C50   1.417091 A    
C29   C42   1.311791 D    
C43   H49   1.083820 S    
C55   N3    1.385817 Am   
C15   H34   1.110895 S    
C45   C48   1.417151 A    
C29   H51   1.084935 S    
P8    O23   1.546224 D    
C42   C43   1.335106 D    
O8    Ba1   2.717044 S    
C18   O27   1.217529 D    
C47   C52   1.415930 A    
C66   N4    1.387537 Am   
C78   H60   1.086564 S    
P4    O15   1.752688 S    
C25   C26   1.401425 A    
O4    P6    1.541613 D    
C73   H55   1.082569 S    
C1    H23   1.110387 S    
C68   H57   1.085530 S    
C6    H12   1.105541 S    
P5    O18   1.545417 D    
C5    H11   1.102363 S    
C10   H22   1.109990 S    
C12   H26   1.110864 S    
O14   Ba2   2.719298 S    
C40   C41   1.518527 S    
C64   C65   1.405703 A    
P8    O24   1.748515 S    
P2    O20   1.538716 S    
S1    O33   1.502675 D    
C30   C32   1.423496 A    
C11   O22   1.401750 S    
C67   O32   1.221687 D    
P5    O19   1.744037 S    
C56   C57   1.410405 A    
P7    O21   1.568636 D    
N4    C67   1.387852 Am   
C14   C79   1.504382 S    
C8    H17   1.107413 S    
C27   C49   1.400862 A    
O14   P8    1.749571 S    
P3    C74   1.830968 S    
C20   C28   1.506793 S    
C49   H46   1.083605 S    
S2    O37   1.495798 D    
P3    O9    1.545832 D    
P4    Ba2   3.377076 S    
C59   C60   1.401914 A    
C58   C62   1.425421 A    
Ba2   O20   2.749074 S    
O35   H61   0.994222 S    
P5    C69   1.855994 S    
C80   O40   1.222275 D    
C7    H14   1.110858 S    
P5    O17   1.760814 S    
C17   O25   1.221026 D    
C5    S1    1.783661 S    
N4    C77   1.458613 S    
O6    P6    1.747883 S    
O16   Ba2   2.914058 S    
O3    P6    1.754979 S    
C34   H42   1.083448 S    
C46   C47   1.423196 A    
C30   C33   1.416889 A    
