data_mof_unit_56992.cif
_audit_creation_date              2012-12-11T15:54:59-0500
_audit_creation_method            fapswitch 2.2
_symmetry_space_group_name_H-M    P1
_symmetry_Int_Tables_number       1
_space_group_crystal_system       triclinic
_cell_length_a                    17.628062
_cell_length_b                    24.344671
_cell_length_c                    15.137032
_cell_angle_alpha                 89.880882
_cell_angle_beta                  125.932491
_cell_angle_gamma                 90.320312
_cell_volume                      5259.82028933

loop_
_atom_site_label
_atom_site_type_symbol
_atom_type_description
_atom_site_fract_x
_atom_site_fract_y
_atom_site_fract_z
_atom_type_partial_charge
C1    C     C_R   0.941185 0.848058 0.090765 -0.148274
C2    C     C_R   0.146311 0.847697 0.092652 -0.090277
C3    C     C_R   0.327013 0.651516 0.000804 -0.012880
C4    C     C_R   0.691973 0.999067 0.642173 -0.018610
C5    C     C_R   0.175080 0.498961 0.714264 -0.079905
C6    C     C_R   0.983634 0.998241 0.307312 0.009516
C7    C     C_R   0.481085 0.498069 0.305525 0.004683
C8    C     C_R   0.267857 0.953541 0.253379 -0.103161
C9    C     C_R   0.269680 0.045578 0.263124 -0.142347
C10   C     C_R   0.755905 0.453580 0.301455 -0.118432
C11   C     C_R   0.756085 0.545311 0.303735 -0.143070
C12   C     C_R   0.945258 0.045888 0.693931 -0.045513
C13   C     C_R   0.690503 0.623217 0.092450 -0.120727
C14   C     C_R   0.945236 0.953874 0.694387 -0.021137
C15   C     C_R   0.445102 0.545887 0.693987 -0.041208
C16   C     C_R   0.441365 0.454003 0.692813 -0.040792
C17   C     C_2   0.313590 0.834788 0.084723 1.004415
C18   C     C_2   0.273208 0.126598 0.881066 1.012906
C19   C     C_2   0.819395 0.331288 0.082277 1.012337
C20   C     C_2   0.780038 0.625338 0.882925 1.012112
C21   C     C_2   0.911263 0.102869 0.657560 0.919450
C22   C     C_2   0.896741 0.900451 0.650779 0.914854
C23   C     C_2   0.407153 0.601699 0.655817 0.928366
C24   C     C_R   0.651315 0.349001 0.092197 -0.084052
C25   C     C_2   0.380731 0.404668 0.647440 0.929764
C26   C     C_R   0.324653 0.999632 0.287400 0.022722
C27   C     C_R   0.803011 0.499103 0.364485 -0.011084
C28   C     C_R   0.928476 0.999599 0.630256 -0.171851
C29   C     C_R   0.425251 0.499831 0.629221 -0.166055
C30   C     C_R   0.115818 0.815707 0.003176 -0.051337
C31   C     C_R   0.183219 0.142137 0.000574 -0.031846
C32   C     C_R   0.623224 0.318283 0.001323 -0.040352
C33   C     C_R   0.906583 0.129863 0.091000 -0.139592
C34   C     C_R   0.688316 0.635791 0.001360 -0.009051
C35   C     C_3   0.874285 0.029322 0.348007 -0.399969
C36   C     C_3   0.956032 0.938098 0.416647 -0.444202
C37   C     C_3   0.373921 0.531609 0.348574 -0.399313
C38   C     C_3   0.447128 0.438031 0.410985 -0.435791
C39   C     C_3   0.853585 0.025946 0.433596 -0.371488
C40   C     C_3   0.941985 0.938446 0.505980 -0.378099
C41   C     C_3   0.354940 0.530392 0.435857 -0.374935
C42   C     C_3   0.431295 0.438622 0.499434 -0.365069
C43   C     C_3   0.049762 0.025334 0.493458 -0.420359
C44   C     C_R   0.444269 0.347307 0.090727 -0.150520
C45   C     C_3   0.548663 0.522330 0.493559 -0.412653
C46   C     C_3   0.965681 0.997703 0.389245 0.393311
C47   C     C_3   0.462420 0.497402 0.387469 0.388056
C48   C     C_3   0.937197 0.998273 0.538677 0.350992
C49   C     C_3   0.434134 0.498442 0.537586 0.335462
C50   C     C_R   0.812539 0.127119 0.907667 -0.102205
C51   C     C_R   0.848701 0.848404 0.908377 -0.152090
C52   C     C_R   0.320527 0.635685 0.908966 -0.117761
C53   C     C_R   0.353509 0.347188 0.908895 -0.158069
C54   C     C_3   0.032275 0.026560 0.580384 -0.312336
C55   C     C_R   0.411829 0.634408 0.092156 -0.141233
C56   C     C_3   0.531916 0.523229 0.581296 -0.316327
C57   C     C_3   0.657655 0.182703 0.901037 -0.403904
C58   C     C_3   0.748202 0.784185 0.995372 -0.391093
C59   C     C_3   0.163155 0.683254 0.907903 -0.398024
C60   C     C_3   0.253743 0.287564 0.997548 -0.386873
C61   C     C_3   0.105239 0.731115 0.904825 -0.418635
C62   C     C_3   0.197749 0.239906 0.997253 -0.407966
C63   C     C_3   0.604199 0.232379 0.900920 -0.408404
C64   C     C_3   0.696918 0.734435 0.997746 -0.399945
C65   C     C_3   0.300677 0.748853 0.986325 -0.481665
C66   C     C_R   0.055456 0.846620 0.911747 -0.118011
C67   C     C_3   0.299892 0.229548 0.897108 -0.479160
C68   C     C_3   0.805029 0.241261 0.993166 -0.468895
C69   C     C_3   0.801543 0.728820 0.899556 -0.477835
C70   C     C_3   0.767173 0.186254 0.105676 -0.379822
C71   C     C_3   0.900320 0.731073 0.104172 -0.385995
C72   C     C_3   0.279125 0.692239 0.111464 -0.382293
C73   C     C_3   0.401581 0.229954 0.101859 -0.390743
C74   C     C_3   0.762319 0.186926 0.999602 0.385250
C75   C     C_3   0.834049 0.765868 0.999602 0.380271
C76   C     C_3   0.268306 0.692869 0.001651 0.386129
C77   C     C_R   0.097072 0.125857 0.908902 -0.075723
C78   C     C_3   0.337056 0.266117 0.999071 0.382864
C79   C     C_3   0.169404 0.770007 0.003896 0.293170
C80   C     C_3   0.241787 0.184586 0.999166 0.280766
C81   C     C_3   0.671812 0.269783 0.001545 0.287998
C82   C     C_3   0.744956 0.680430 0.000604 0.272786
C83   C     C_3   0.246420 0.795116 0.993848 -0.184144
C84   C     C_3   0.241371 0.181489 0.895323 -0.201314
C85   C     C_3   0.752096 0.290472 0.994080 -0.199725
C86   C     C_3   0.745368 0.679064 0.897257 -0.201038
C87   C     C_3   0.213804 0.734448 0.108434 -0.379037
C88   C     C_R   0.561127 0.348895 0.909869 -0.134131
C89   C     C_3   0.344461 0.182826 0.103943 -0.362709
C90   C     C_3   0.710345 0.233885 0.104612 -0.376900
C91   C     C_3   0.847361 0.681108 0.105685 -0.366197
C92   C     C_3   0.472891 0.946474 0.374545 -0.438882
C93   C     C_3   0.475639 0.049371 0.370136 -0.396712
C94   C     C_3   0.922054 0.445462 0.530848 -0.402274
C95   C     C_3   0.962096 0.501495 0.422096 -0.396851
C96   C     C_R   0.739212 0.953395 0.703828 -0.085863
C97   C     C_R   0.741384 0.045412 0.699913 -0.131189
C98   C     C_R   0.231883 0.453180 0.747128 -0.050810
C99   C     C_R   0.599581 0.622549 0.909489 -0.113197
C100  C     C_R   0.230441 0.545270 0.739661 -0.074283
C101  C     C_3   0.576965 0.947917 0.470673 -0.354961
C102  C     C_3   0.576577 0.051235 0.473318 -0.407252
C103  C     C_3   0.026215 0.444811 0.627222 -0.403575
C104  C     C_3   0.064806 0.502273 0.518618 -0.378615
C105  C     C_3   0.430974 0.000853 0.482884 -0.396640
C106  C     C_3   0.920943 0.548645 0.537744 -0.399108
C107  C     C_3   0.424091 0.999037 0.375927 0.390613
C108  C     C_3   0.899517 0.498666 0.462617 0.388064
C109  C     C_3   0.596970 0.998936 0.543181 0.381400
C110  C     C_R   0.184794 0.130749 0.091265 -0.119049
C111  C     C_3   0.074533 0.498322 0.627065 0.395316
C112  C     C_3   0.532591 0.997718 0.581110 -0.406238
C113  C     C_3   0.024182 0.547629 0.636921 -0.399565
C114  C     C_R   0.003723 0.045115 0.273001 -0.145277
C115  C     C_R   0.998409 0.952517 0.265783 -0.147514
C116  C     C_R   0.501800 0.545007 0.271525 -0.141563
C117  C     C_R   0.497234 0.452470 0.264931 -0.145243
C118  C     C_R   0.879040 0.816875 0.999448 0.010024
C119  C     C_R   0.818210 0.142873 0.999489 -0.021176
C120  C     C_R   0.385307 0.315341 0.999655 0.011178
H1    H     H_    0.983839 0.835036 0.174873 0.085415
H2    H     H_    0.875583 0.915932 0.474215 0.184523
H3    H     H_    0.572589 0.629466 0.825727 0.124200
H4    H     H_    0.233308 0.146441 0.172549 0.084660
H5    H     H_    0.188150 0.835668 0.177349 0.079670
H6    H     H_    0.746217 0.630892 0.177011 0.090531
H7    H     H_    0.695509 0.337085 0.176973 0.085982
H8    H     H_    0.881594 0.073183 0.333090 0.162859
H9    H     H_    0.020452 0.914153 0.445863 0.160498
H10   H     H_    0.383734 0.574943 0.333417 0.158616
H11   H     H_    0.509741 0.412347 0.439879 0.157219
H12   H     H_    0.060505 0.068224 0.477317 0.165305
H13   H     H_    0.286363 0.509988 0.402081 0.160002
H14   H     H_    0.115374 0.002371 0.524222 0.166840
H15   H     H_    0.562502 0.565053 0.480037 0.165393
H16   H     H_    0.612349 0.497758 0.522250 0.163911
H17   H     H_    0.035058 0.069838 0.604221 0.221282
H18   H     H_    0.090691 0.005110 0.654636 0.180585
H19   H     H_    0.538673 0.566266 0.608904 0.219096
H20   H     H_    0.588040 0.499403 0.653280 0.178402
H21   H     H_    0.626464 0.143959 0.905876 0.164148
H22   H     H_    0.770585 0.811339 0.066047 0.158335
H23   H     H_    0.138744 0.643875 0.921056 0.164945
H24   H     H_    0.362068 0.419235 0.465843 0.178806
H25   H     H_    0.279549 0.313836 0.070357 0.159025
H26   H     H_    0.420685 0.845670 0.243134 0.311661
H27   H     H_    0.379166 0.073707 0.932300 0.324148
H28   H     H_    0.919661 0.346005 0.241800 0.318551
H29   H     H_    0.888717 0.574696 0.934152 0.324358
H30   H     H_    0.857398 0.170626 0.677737 0.313916
H31   H     H_    0.904178 0.821288 0.617537 0.316652
H32   H     H_    0.327769 0.662337 0.651985 0.313180
H33   H     H_    0.366623 0.324826 0.605012 0.319216
H34   H     H_    0.837140 0.067243 0.446944 0.202552
H35   H     H_    0.002360 0.916521 0.577182 0.200791
H36   H     H_    0.348296 0.572995 0.454805 0.196769
H37   H     H_    0.487546 0.413631 0.568780 0.193226
H38   H     H_    0.649349 0.182279 0.822427 0.148732
H39   H     H_    0.699239 0.808209 0.919708 0.160105
H40   H     H_    0.150935 0.680490 0.827208 0.146189
H41   H     H_    0.939832 0.144206 0.172981 0.095781
H42   H     H_    0.206760 0.313328 0.923878 0.158279
H43   H     H_    0.544713 0.218159 0.902197 0.169627
H44   H     H_    0.696118 0.737308 0.070647 0.166492
H45   H     H_    0.046618 0.714987 0.906007 0.168934
H46   H     H_    0.196221 0.243628 0.069547 0.166407
H47   H     H_    0.074025 0.753288 0.826479 0.171052
H48   H     H_    0.123921 0.242616 0.923327 0.164564
H49   H     H_    0.574156 0.254874 0.823211 0.165807
H50   H     H_    0.622603 0.735485 0.924551 0.164766
H51   H     H_    0.287645 0.750386 0.904873 0.155820
H52   H     H_    0.486618 0.334679 0.175082 0.085331
H53   H     H_    0.253768 0.253324 0.820653 0.148432
H54   H     H_    0.800777 0.242262 0.916761 0.155711
H55   H     H_    0.755255 0.751772 0.822035 0.148098
H56   H     H_    0.757684 0.135690 0.823274 0.093255
H57   H     H_    0.804448 0.836049 0.823762 0.099888
H58   H     H_    0.272236 0.650744 0.827050 0.097948
H59   H     H_    0.311670 0.334359 0.824553 0.106198
H60   H     H_    0.210063 0.818440 0.915638 0.126163
H61   H     H_    0.168312 0.188085 0.822041 0.111127
H62   H     H_    0.718554 0.311837 0.914116 0.120823
H63   H     H_    0.445978 0.647396 0.175188 0.095208
H64   H     H_    0.672109 0.684699 0.823759 0.117423
H65   H     H_    0.840167 0.191246 0.179539 0.173632
H66   H     H_    0.961982 0.717206 0.107457 0.171732
H67   H     H_    0.351920 0.703148 0.180691 0.188546
H68   H     H_    0.460093 0.213148 0.101720 0.174939
H69   H     H_    0.739924 0.146494 0.113181 0.150898
H70   H     H_    0.926799 0.755484 0.178997 0.140591
H71   H     H_    0.263144 0.650638 0.127463 0.147564
H72   H     H_    0.432909 0.253996 0.178153 0.139849
H73   H     H_    0.651212 0.217489 0.104527 0.154577
H74   H     H_    0.814393 0.011613 0.269397 0.156286
H75   H     H_    0.848548 0.684604 0.179623 0.138321
H76   H     H_    0.157749 0.713100 0.108366 0.158781
H77   H     H_    0.346734 0.188065 0.178316 0.137590
H78   H     H_    0.254883 0.758981 0.184537 0.183414
H79   H     H_    0.377579 0.142641 0.112567 0.195847
H80   H     H_    0.755971 0.257511 0.181324 0.188272
H81   H     H_    0.884217 0.642456 0.114406 0.199283
H82   H     H_    0.377801 0.753894 0.047909 0.179184
H83   H     H_    0.359875 0.214891 0.897630 0.176900
H84   H     H_    0.880971 0.243487 0.061933 0.179726
H85   H     H_    0.895448 0.917240 0.342843 0.163174
H86   H     H_    0.863692 0.715825 0.903008 0.177759
H87   H     H_    0.441476 0.909054 0.383273 0.155792
H88   H     H_    0.441766 0.088842 0.364161 0.143150
H89   H     H_    0.877931 0.443141 0.561211 0.158280
H90   H     H_    0.946308 0.539086 0.372022 0.161020
H91   H     H_    0.465161 0.943423 0.296285 0.182369
H92   H     H_    0.475425 0.046247 0.296634 0.169608
H93   H     H_    0.907708 0.408129 0.481138 0.154606
H94   H     H_    0.948409 0.465391 0.369397 0.171783
H95   H     H_    0.620914 0.949661 0.440011 0.184347
H96   H     H_    0.312152 0.514771 0.270392 0.158520
H97   H     H_    0.626312 0.054352 0.450845 0.160162
H98   H     H_    0.058129 0.407973 0.618329 0.156976
H99   H     H_    0.101303 0.467328 0.511211 0.190172
H100  H     H_    0.721875 0.910545 0.683377 0.125522
H101  H     H_    0.727103 0.087605 0.673301 0.129049
H102  H     H_    0.211922 0.410410 0.733176 0.102062
H103  H     H_    0.207144 0.586349 0.710213 0.105808
H104  H     H_    0.593220 0.908960 0.516626 0.160030
H105  H     H_    0.584431 0.088896 0.519484 0.151284
H106  H     H_    0.033907 0.440872 0.705372 0.156627
H107  H     H_    0.385628 0.418873 0.335509 0.162018
H108  H     H_    0.097732 0.540854 0.516069 0.162857
H109  H     H_    0.391281 0.966022 0.485901 0.156648
H110  H     H_    0.400070 0.039576 0.487463 0.158161
H111  H     H_    0.874678 0.547746 0.565293 0.159974
H112  H     H_    0.908357 0.587924 0.493678 0.148870
H113  H     H_    0.543694 0.959190 0.627076 0.158299
H114  H     H_    0.548676 0.032854 0.636797 0.156944
H115  H     H_    0.028934 0.544104 0.713348 0.159805
H116  H     H_    0.056649 0.587492 0.640258 0.143595
H117  H     H_    0.009344 0.086470 0.301440 0.089542
H118  H     H_    0.788952 0.001070 0.400456 0.152388
H119  H     H_    0.994549 0.909514 0.280234 0.094210
H120  H     H_    0.506115 0.586401 0.299115 0.088705
H121  H     H_    0.493174 0.409478 0.279329 0.093216
H122  H     H_    0.287694 0.910884 0.267508 0.098963
H123  H     H_    0.292894 0.086287 0.296128 0.082327
H124  H     H_    0.769043 0.410792 0.324292 0.087522
H125  H     H_    0.770019 0.587598 0.330455 0.086356
H126  H     H_    0.009561 0.830850 0.830888 0.149331
H127  H     H_    0.070323 0.132348 0.825181 0.116241
H128  H     H_    0.522222 0.335985 0.826547 0.154210
N1    N     N_R   0.950530 0.896220 0.057200 -0.036841
N2    N     N_R   0.818150 0.028600 0.792440 -0.029769
N3    N     N_R   0.318150 0.471400 0.792440 -0.037824
N4    N     N_R   0.318150 0.528600 0.792440 -0.022385
N5    N     N_R   0.025710 0.028600 0.207560 -0.036513
N6    N     N_R   0.025710 0.971400 0.207560 -0.038997
N7    N     N_R   0.525710 0.528600 0.207560 -0.035270
N8    N     N_R   0.525710 0.471400 0.207560 -0.037578
N9    N     N_R   0.181850 0.971400 0.207560 -0.045577
N10   N     N_R   0.181850 0.028600 0.207560 -0.038245
N11   N     N_R   0.681850 0.471400 0.207560 -0.033386
N12   N     N_R   0.950530 0.103780 0.057200 -0.042687
N13   N     N_R   0.681850 0.528600 0.207560 -0.033556
N14   N     N_R   0.974290 0.028600 0.792440 -0.056754
N15   N     N_R   0.974290 0.971400 0.792440 -0.074554
N16   N     N_R   0.474290 0.528600 0.792440 -0.062519
N17   N     N_R   0.474290 0.471400 0.792440 -0.074019
N18   N     N_R   0.049470 0.896220 0.942800 -0.036287
N19   N     N_R   0.049470 0.103780 0.942800 -0.026687
N20   N     N_R   0.549470 0.396220 0.942800 -0.037549
N21   N     N_R   0.549470 0.603780 0.942800 -0.037759
N22   N     N_R   0.106670 0.103780 0.057200 -0.042521
N23   N     N_R   0.450530 0.396220 0.057200 -0.037973
N24   N     N_R   0.106670 0.896220 0.057200 -0.029956
N25   N     N_R   0.606670 0.603780 0.057200 -0.044856
N26   N     N_R   0.606670 0.396220 0.057200 -0.033566
N27   N     N_R   0.450530 0.603780 0.057200 -0.041474
N28   N     N_R   0.893330 0.103780 0.942800 -0.023374
N29   N     N_R   0.893330 0.896220 0.942800 -0.041509
N30   N     N_R   0.393330 0.603780 0.942800 -0.027949
N31   N     N_R   0.393330 0.396220 0.942800 -0.042633
N32   N     N_R   0.818150 0.971400 0.792440 -0.051195
Ni1   Ni    Ni4+2 0.065600 0.934400 0.131190 0.207415
Ni2   Ni    Ni4+2 0.065600 0.065600 0.131190 0.213234
Ni3   Ni    Ni4+2 0.565600 0.434400 0.131190 0.207703
Ni4   Ni    Ni4+2 0.565600 0.565600 0.131190 0.210064
Ni5   Ni    Ni4+2 0.934400 0.065600 0.868810 0.264434
Ni6   Ni    Ni4+2 0.934400 0.934400 0.868810 0.238155
Ni7   Ni    Ni4+2 0.434400 0.565600 0.868810 0.264249
Ni8   Ni    Ni4+2 0.434400 0.434400 0.868810 0.246607
O1    O     O_2   0.312051 0.883580 0.064332 -0.649835
O2    O     O_R   0.876171 0.131670 0.706022 -0.825437
O3    O     O_2   0.811893 0.897687 0.601769 -0.683798
O4    O     O_R   0.945921 0.854732 0.654178 -0.853239
O5    O     O_2   0.432072 0.630198 0.610528 -0.687863
O6    O     O_R   0.347543 0.623312 0.679239 -0.819736
O7    O     O_2   0.298457 0.408045 0.612709 -0.666210
O8    O     O_R   0.415596 0.355142 0.638915 -0.856710
O9    O     O_R   0.378330 0.815545 0.190873 -0.830677
O10   O     O_2   0.216393 0.096129 0.806524 -0.678561
O11   O     O_R   0.367220 0.111133 0.950990 -0.821013
O12   O     O_2   0.821873 0.378734 0.057314 -0.642446
O13   O     O_R   0.878907 0.314833 0.191327 -0.826474
O14   O     O_2   0.724806 0.594392 0.808327 -0.672198
O15   O     O_R   0.874804 0.611459 0.952957 -0.820439
O16   O     O_2   0.919565 0.126347 0.592359 -0.687895

loop_
_geom_bond_atom_site_label_1
_geom_bond_atom_site_label_2
_ccdc_geom_bond_type
C85   H62   S    
C8    C26   A    
C64   H44   S    
C79   C87   S    
C63   H43   S    
C32   C81   S    
C70   H65   S    
C69   H86   S    
C83   H60   S    
C98   N3    A    
C56   H20   S    
C117  N8    A    
C112  H113  S    
C51   C118  A    
C60   C62   S    
N17   Ni8   S    
C4    C96   A    
C45   C56   S    
C70   C74   S    
C24   H7    S    
C18   C84   S    
C72   H71   S    
C13   N25   A    
C41   H36   S    
N23   N31   A    
C18   O11   S    
N20   Ni8   S    
C41   C49   S    
C9    C26   A    
C104  H108  S    
N28   Ni5   S    
C45   C47   S    
C59   C61   S    
N30   Ni7   S    
C39   H34   S    
C96   N32   A    
C31   C80   S    
C88   N20   A    
C19   C85   S    
C96   H100  S    
C102  H105  S    
C20   O14   D    
C82   C91   S    
C77   H127  S    
C78   C120  S    
C44   H52   S    
N13   Ni4   S    
C91   H75   S    
C59   H40   S    
C43   C54   S    
C5    C100  A    
C11   C27   A    
C34   C99   A    
C111  C113  S    
C12   N14   A    
C81   C90   S    
C105  C112  S    
C42   H37   S    
C73   H68   S    
C66   H126  S    
C16   C25   S    
C40   C48   S    
C95   H90   S    
C9    N10   A    
N11   N13   A    
C3    C52   A    
C57   H21   S    
C40   H2    S    
C105  H110  S    
C115  H119  S    
C90   H73   S    
C27   C108  S    
C101  H95   S    
C31   C110  A    
N1    N29   A    
C71   H70   S    
C67   H83   S    
C95   C108  S    
N20   N26   A    
C10   N11   A    
C102  C109  S    
C21   O2    S    
C69   H55   S    
C87   H78   S    
C10   C27   A    
C113  H116  S    
C62   H48   S    
C4    C109  S    
C68   H84   S    
C7    C117  A    
C41   H13   S    
C72   H67   S    
C24   N26   A    
C106  H111  S    
C105  C107  S    
C60   C78   S    
C62   C80   S    
C58   H39   S    
N5    N6    A    
N19   N22   A    
C1    N1    A    
C68   C74   S    
C32   C88   A    
C51   N29   A    
H31   O4    S    
C6    C114  A    
C35   H74   S    
C3    C55   A    
N16   N17   A    
H29   O15   S    
C60   H42   S    
C36   C46   S    
C37   C47   S    
C23   O6    S    
C37   H96   S    
C16   N17   A    
C102  H97   S    
C59   H23   S    
C4    C97   A    
C25   O7    D    
N9    Ni1   S    
C68   C85   S    
C53   H59   S    
C57   C63   S    
C58   C64   S    
C17   O9    S    
C45   H15   S    
C106  C113  S    
N27   N30   A    
C110  N22   A    
C100  H103  S    
N2    N32   A    
C7    C116  A    
C104  H99   S    
N27   Ni4   S    
C88   H128  S    
N23   Ni3   S    
C91   H81   S    
N22   Ni2   S    
C22   O3    D    
C30   C79   S    
C101  H104  S    
C62   H46   S    
H27   O11   S    
H30   O2    S    
C9    H123  S    
N9    N10   A    
C72   C87   S    
C28   C48   S    
N8    Ni3   S    
N25   Ni4   S    
N26   Ni3   S    
N14   N15   A    
C89   H77   S    
C2    C30   A    
C14   C22   S    
C92   H87   S    
C106  C108  S    
C61   C79   S    
C112  H114  S    
C98   H102  S    
C61   H45   S    
C37   C41   S    
C1    H1    S    
C73   H72   S    
C103  H98   S    
N12   N28   A    
C2    H5    S    
N19   Ni5   S    
C95   H94   S    
C34   C82   S    
C51   H57   S    
C93   H88   S    
C59   C76   S    
C81   C85   S    
C38   H107  S    
C57   H38   S    
C80   C84   S    
C53   C120  A    
N3    N4    A    
C65   C76   S    
N1    Ni1   S    
C12   C28   A    
C54   H17   S    
C44   C120  A    
C101  C109  S    
C19   O12   D    
C103  C111  S    
C80   C89   S    
C110  H4    S    
C65   H82   S    
C20   C86   S    
C40   H35   S    
C31   C77   A    
C86   H64   S    
C75   C118  S    
C15   C29   A    
H33   O8    S    
C89   H79   S    
C10   H124  S    
C56   H19   S    
C29   C49   S    
C82   C86   S    
C99   N21   A    
C61   H47   S    
C11   H125  S    
C43   H14   S    
C35   C39   S    
N18   Ni6   S    
C93   H92   S    
N10   Ni2   S    
C92   C101  S    
C44   N23   A    
C13   H6    S    
C65   H51   S    
C94   C103  S    
C18   O10   D    
C42   H24   S    
N3    Ni8   S    
N4    Ni7   S    
C2    N24   A    
N5    Ni2   S    
C52   N30   A    
N24   Ni1   S    
C53   N31   A    
C114  N5    A    
C43   H12   S    
C94   H93   S    
C93   C102  S    
C97   N2    A    
C55   N27   A    
N21   N25   A    
C21   O16   D    
C73   C89   S    
C13   C34   A    
N18   N24   A    
C36   H9    S    
C38   H11   S    
C79   C83   S    
C115  N6    A    
C67   H53   S    
N2    Ni5   S    
C69   C75   S    
C36   H85   S    
C35   H8    S    
C52   H58   S    
C6    C115  A    
C63   H49   S    
C14   N15   A    
C71   C91   S    
C55   H63   S    
C23   O5    D    
C35   C46   S    
C70   H69   S    
C7    C47   S    
C39   C48   S    
C116  N7    A    
C33   H41   S    
C72   C76   S    
C24   C32   A    
C103  H106  S    
C48   C54   S    
C74   C119  S    
C94   C108  S    
C63   C81   S    
C84   H61   S    
C87   H76   S    
C38   C42   S    
C65   C83   S    
C90   H80   S    
C37   H10   S    
C50   H56   S    
C8    N9    A    
C58   H22   S    
C15   N16   A    
C106  H112  S    
N7    Ni4   S    
C73   C78   S    
C19   O13   S    
C22   O4    S    
C66   N18   A    
C15   C23   S    
C67   C84   S    
N15   Ni6   S    
C64   H50   S    
C70   C90   S    
C67   C78   S    
C58   C75   S    
N32   Ni6   S    
C113  H115  S    
C20   O15   S    
C105  H109  S    
C50   C119  A    
C36   C40   S    
C109  C112  S    
C68   H54   S    
C5    C111  S    
C16   C29   A    
C12   C21   S    
C77   N19   A    
C17   C83   S    
C57   C74   S    
H32   O6    S    
C92   C107  S    
H28   O13   S    
C8    H122  S    
C3    C76   S    
C64   C82   S    
C38   C47   S    
C30   C66   A    
C114  H117  S    
C33   C119  A    
C25   O8    S    
C71   H66   S    
N7    N8    A    
C95   C104  S    
C99   H3    S    
H26   O9    S    
C45   H16   S    
C6    C46   S    
N16   Ni7   S    
N21   Ni7   S    
C100  N4    A    
C26   C107  S    
C104  C111  S    
N12   Ni2   S    
C49   C56   S    
N29   Ni6   S    
C116  H120  S    
N31   Ni8   S    
N11   Ni3   S    
C93   C107  S    
C71   C75   S    
C54   H18   S    
C17   O1    D    
C33   N12   A    
C97   H101  S    
C1    C118  A    
C11   N13   A    
C43   C46   S    
C42   C49   S    
N6    Ni1   S    
N14   Ni5   S    
C5    C98   A    
C94   H89   S    
C60   H25   S    
C50   N28   A    
C92   H91   S    
C14   C28   A    
C39   H118  S    
C69   C86   S    
C117  H121  S    
