data_mof_unit_31248.cif
_audit_creation_date              2012-12-10T18:07:05-0500
_audit_creation_method            fapswitch 2.2
_symmetry_space_group_name_H-M    P1
_symmetry_Int_Tables_number       1
_space_group_crystal_system       triclinic
_cell_length_a                    10.815964
_cell_length_b                    12.786332
_cell_length_c                    13.868383
_cell_angle_alpha                 98.78378
_cell_angle_beta                  89.112739
_cell_angle_gamma                 92.384967
_cell_volume                      1893.7317073

loop_
_atom_site_label
_atom_site_type_symbol
_atom_type_description
_atom_site_fract_x
_atom_site_fract_y
_atom_site_fract_z
_atom_type_partial_charge
C1    C     C_R   0.498227 0.483074 0.315775 0.789034
C2    C     C_3   0.878605 0.494763 0.492831 -0.133366
C3    C     C_3   0.922951 0.510684 0.601644 0.705336
C4    C     C_3   0.930516 0.589153 0.441587 -0.590457
C5    C     C_1   0.510789 0.527518 0.787790 -0.205550
C6    C     C_2   0.512093 0.549237 0.980734 0.483584
C7    C     C_2   0.501421 0.460573 0.020883 -0.241679
C8    C     C_1   0.498807 0.465879 0.124875 0.060678
C9    C     C_1   0.512410 0.537564 0.875247 -0.195476
C10   C     C_1   0.497907 0.473168 0.212140 -0.179153
C11   C     C_2   0.469786 0.027053 0.464958 0.023724
C12   C     C_R   0.259560 0.500922 0.495823 0.835019
C13   C     C_2   0.524966 0.971921 0.528468 -0.309951
C14   C     C_1   0.522236 0.854487 0.520040 0.188318
C15   C     C_1   0.477092 0.145265 0.478267 0.147636
C16   C     C_R   0.506970 0.516871 0.684048 0.851953
C17   C     C_R   0.740150 0.498038 0.493936 0.951099
C18   C     C_3   0.070204 0.393568 0.429077 -0.333570
C19   C     C_3   0.922673 0.385934 0.433408 0.742674
C20   C     C_3   0.069242 0.506168 0.598459 0.191502
C21   C     C_3   0.075072 0.604109 0.447548 0.560999
C22   C     C_3   0.120839 0.502494 0.490214 -0.169872
Cu1   Cu    Cu3+1 0.491980 0.395330 0.493960 0.972975
Cu2   Cu    Cu3+1 0.508020 0.604670 0.506040 0.990406
H1    H     H_    0.106490 0.332952 0.468464 0.161067
H2    H     H_    0.883223 0.662253 0.469815 0.201177
H3    H     H_    0.496424 0.383086 0.975864 0.114815
H4    H     H_    0.573258 0.016121 0.590765 0.146879
H5    H     H_    0.098734 0.431968 0.622197 -0.014832
H6    H     H_    0.899994 0.574229 0.364373 0.194984
N1    N     N_1   0.479930 0.238040 0.484880 -0.173327
N2    N     N_1   0.520070 0.761960 0.515120 -0.157251
O1    O     O_R   0.492240 0.399110 0.356330 -0.584956
O2    O     O_R   0.505790 0.575900 0.366540 -0.574460
O3    O     O_R   0.310920 0.411610 0.494880 -0.614626
O4    O     O_R   0.324460 0.588390 0.505090 -0.517466
O5    O     O_R   0.494210 0.424100 0.633460 -0.566670
O6    O     O_R   0.507760 0.600890 0.643670 -0.577936
O7    O     O_R   0.675540 0.411610 0.494910 -0.513928
O8    O     O_R   0.689080 0.588390 0.505120 -0.589190
O9    O     O_3   0.119773 0.597970 0.658331 -0.514169
C23   C     C_3   0.194148 0.573862 0.733867 0.096687
H7    H     H_    0.268300 0.520783 0.704224 0.131025
H8    H     H_    0.138910 0.535227 0.787199 0.096101
C24   C     C_3   0.250872 0.676732 0.787770 -0.758242
H9    H     H_    0.176720 0.732046 0.813811 0.236149
H10   H     H_    0.302823 0.660755 0.851891 0.198218
H11   H     H_    0.314470 0.714534 0.738468 0.260000
O10   O     O_3   0.886468 0.614888 0.642133 -0.583326
C25   C     C_3   0.859683 0.631206 0.743102 0.151711
H12   H     H_    0.942601 0.621220 0.786070 0.152781
H13   H     H_    0.781425 0.578368 0.761162 0.164888
C26   C     C_3   0.821294 0.744798 0.772458 -0.854378
H14   H     H_    0.735228 0.757989 0.734066 0.256647
H15   H     H_    0.804731 0.761003 0.852326 0.191829
H16   H     H_    0.895890 0.800699 0.753587 0.249831
O11   O     O_3   0.514066 0.647188 0.041576 -0.569400
C27   C     C_3   0.558788 0.730850 0.993312 0.084970
H17   H     H_    0.492468 0.745359 0.936722 0.151501
H18   H     H_    0.650943 0.713009 0.959534 0.140008
C28   C     C_3   0.573324 0.831386 0.067193 -0.808423
H19   H     H_    0.639599 0.819657 0.124629 0.249668
H20   H     H_    0.608834 0.897791 0.030100 0.198076
H21   H     H_    0.482534 0.852014 0.101758 0.246015
C29   C     C_3   0.405575 0.966445 0.375348 -0.367123
C30   C     C_3   0.321383 0.035311 0.325755 -0.367843
C31   C     C_3   0.242066 0.969887 0.246977 -0.881215
H22   H     H_    0.298224 0.911483 0.199769 0.267011
H23   H     H_    0.165087 0.929502 0.281826 0.254750
H24   H     H_    0.199558 0.021604 0.200682 0.247657
H25   H     H_    0.258530 0.077798 0.381211 0.211373
H26   H     H_    0.380196 0.093632 0.292298 0.228381
H27   H     H_    0.477246 0.933396 0.322244 0.198703
H28   H     H_    0.348885 0.898966 0.396387 0.209495
C32   C     C_3   0.128872 0.369181 0.323341 -0.353095
C33   C     C_3   0.183555 0.260279 0.294848 -0.371691
C34   C     C_3   0.240073 0.251311 0.191964 -0.857458
H29   H     H_    0.166177 0.252055 0.137353 0.247645
H30   H     H_    0.307340 0.317979 0.186667 0.258561
H31   H     H_    0.290186 0.177208 0.173298 0.244958
H32   H     H_    0.257063 0.250968 0.347402 0.243845
H33   H     H_    0.111967 0.196123 0.294720 0.207590
H34   H     H_    0.063812 0.380086 0.265257 0.244349
H35   H     H_    0.209134 0.424112 0.317240 0.183366
O12   O     O_3   0.871680 0.381351 0.337945 -0.633258
C35   C     C_3   0.822973 0.281189 0.294876 0.120500
H36   H     H_    0.743490 0.254767 0.338217 0.200927
H37   H     H_    0.895332 0.221794 0.284967 0.138414
C36   C     C_3   0.776272 0.289781 0.193731 -0.848916
H38   H     H_    0.853979 0.313329 0.147245 0.244370
H39   H     H_    0.735215 0.212220 0.159379 0.204187
H40   H     H_    0.704782 0.349993 0.198926 0.259148
O13   O     O_3   0.869291 0.303724 0.483893 -0.562429
C37   C     C_3   0.933385 0.209179 0.482198 0.033639
H41   H     H_    0.999795 0.218395 0.543356 0.136763
H42   H     H_    0.983476 0.185001 0.413424 0.114797
C38   C     C_3   0.840857 0.119959 0.496979 -0.785206
H43   H     H_    0.773447 0.106440 0.436343 0.231635
H44   H     H_    0.890176 0.045790 0.498658 0.191657
H45   H     H_    0.790024 0.140499 0.567057 0.253835
O14   O     O_3   0.855442 0.430905 0.646566 -0.591630
C39   C     C_3   0.913267 0.389273 0.722315 0.031933
H46   H     H_    0.963019 0.450225 0.773386 0.103297
H47   H     H_    0.976946 0.326689 0.691772 0.147815
C40   C     C_3   0.814177 0.337667 0.780585 -0.773263
H48   H     H_    0.761974 0.274424 0.732012 0.257922
H49   H     H_    0.857860 0.302138 0.839215 0.191668
H50   H     H_    0.748773 0.397643 0.814376 0.235555
O15   O     O_3   0.122953 0.695618 0.511753 -0.493671
C41   C     C_3   0.049689 0.785855 0.531302 0.138240
H51   H     H_    0.977413 0.773926 0.586272 0.208876
H52   H     H_    0.005837 0.806299 0.465429 0.091902
C42   C     C_3   0.131066 0.880326 0.575456 -0.815580
H53   H     H_    0.204812 0.897061 0.522984 0.241932
H54   H     H_    0.074414 0.951312 0.593306 0.188722
H55   H     H_    0.174388 0.863570 0.643300 0.264499
C43   C     C_3   0.128862 0.611592 0.342790 -0.413687
C44   C     C_3   0.106445 0.713937 0.302450 -0.366874
C45   C     C_3   0.149019 0.704837 0.195749 -0.845594
H56   H     H_    0.251174 0.698878 0.190403 0.278011
H57   H     H_    0.104477 0.634083 0.151222 0.252734
H58   H     H_    0.122031 0.775292 0.164528 0.243492
H59   H     H_    0.006281 0.730249 0.305838 0.209455
H60   H     H_    0.159780 0.779942 0.346146 0.241572
H61   H     H_    0.230337 0.601585 0.340945 0.199344
H62   H     H_    0.084610 0.549492 0.289332 0.185697

loop_
_geom_bond_atom_site_label_1
_geom_bond_atom_site_label_2
_ccdc_geom_bond_type
C18   C32   S    
C11   C13   D    
O9    C23   S    
C26   H15   S    
C6    C9    S    
C38   H43   S    
C3    O10   S    
C1    O1    A    
C7    C8    S    
C26   H14   S    
C40   H49   S    
O13   C37   S    
O12   C35   S    
C39   H47   S    
C35   H37   S    
C32   H35   S    
C26   H16   S    
C27   H18   S    
C12   C22   S    
C29   H27   S    
C39   C40   S    
C18   C19   S    
C17   O7    A    
C28   H20   S    
C41   H51   S    
C5    C16   S    
C21   C43   S    
C39   H46   S    
C44   C45   S    
C11   C15   S    
C30   H26   S    
Cu1   O1    S    
Cu2   O6    S    
Cu1   Cu2   S    
C13   H4    S    
C12   O4    A    
C43   H62   S    
C19   O13   S    
C16   O5    A    
C42   H55   S    
C3    O14   S    
C27   C28   S    
C34   H30   S    
C30   C31   S    
C13   C14   S    
C2    C17   S    
C6    O11   S    
C28   H19   S    
C18   H1    S    
C23   H8    S    
C38   H44   S    
C1    O2    A    
C20   O9    S    
C20   H5    S    
C24   H10   S    
C40   H50   S    
C25   C26   S    
C31   H22   S    
O14   C39   S    
C33   C34   S    
C33   H33   S    
C35   H36   S    
C24   H11   S    
C37   C38   S    
C27   H17   S    
C34   H29   S    
Cu2   O2    S    
C29   H28   S    
C12   O3    A    
C23   C24   S    
Cu1   N1    S    
C28   H21   S    
C2    C4    S    
C32   C33   S    
Cu2   N2    S    
C5    C9    T    
C25   H13   S    
C30   H25   S    
C25   H12   S    
C3    C20   S    
C44   H60   S    
C36   H40   S    
C37   H42   S    
C41   C42   S    
C45   H57   S    
C20   C22   S    
C29   C30   S    
Cu1   O3    S    
C36   H39   S    
C23   H7    S    
C38   H45   S    
C42   H53   S    
C45   H58   S    
C2    C19   S    
C18   C22   S    
C1    C10   S    
C14   N2    T    
C19   O12   S    
C35   C36   S    
C33   H32   S    
C4    H2    S    
C45   H56   S    
C15   N1    T    
C6    C7    D    
C40   H48   S    
C43   C44   S    
Cu2   O4    S    
C7    H3    S    
C31   H24   S    
C2    C3    S    
Cu1   O5    S    
O15   C41   S    
C4    C21   S    
C34   H31   S    
C32   H34   S    
O11   C27   S    
Cu1   O7    S    
Cu2   O8    S    
C44   H59   S    
C37   H41   S    
C41   H52   S    
C24   H9    S    
C8    C10   T    
O10   C25   S    
C31   H23   S    
C36   H38   S    
C21   C22   S    
C43   H61   S    
C17   O8    A    
C4    H6    S    
C11   C29   S    
C16   O6    A    
C21   O15   S    
C42   H54   S    
