data_mof_unit_12126.cif
_audit_creation_date              2012-12-11T15:17:54-0500
_audit_creation_method            fapswitch 2.2
_symmetry_space_group_name_H-M    P1
_symmetry_Int_Tables_number       1
_space_group_crystal_system       triclinic
_cell_length_a                    15.758781
_cell_length_b                    15.758609
_cell_length_c                    34.547248
_cell_angle_alpha                 89.998278
_cell_angle_beta                  90.001385
_cell_angle_gamma                 120.00045
_cell_volume                      7429.89403569

loop_
_atom_site_label
_atom_site_type_symbol
_atom_type_description
_atom_site_fract_x
_atom_site_fract_y
_atom_site_fract_z
_atom_type_partial_charge
C1    C     C_R   0.578607 0.441375 0.554980 0.556472
C2    C     C_R   0.558626 0.137231 0.554980 0.556470
C3    C     C_R   0.862769 0.421393 0.554980 0.556482
C4    C     C_R   0.441375 0.578606 0.054980 0.556469
C5    C     C_R   0.137232 0.558622 0.054980 0.556474
C6    C     C_R   0.421393 0.862767 0.054980 0.556468
C7    C     C_R   0.989674 0.501147 0.711537 0.347169
C8    C     C_R   0.498843 0.488536 0.711536 0.347169
C9    C     C_R   0.511420 0.010205 0.711526 0.347180
C10   C     C_R   0.501134 0.989644 0.211541 0.347172
C11   C     C_R   0.488529 0.498843 0.211538 0.347183
C12   C     C_R   0.010481 0.511537 0.211552 0.347159
C13   C     C_R   0.997269 0.436120 0.853956 -0.088733
C14   C     C_R   0.563878 0.561184 0.853952 -0.088735
C15   C     C_R   0.438754 0.002631 0.853937 -0.088731
C16   C     C_R   0.436113 0.997259 0.353958 -0.088732
C17   C     C_R   0.561179 0.563890 0.353952 -0.088733
C18   C     C_R   0.002894 0.439017 0.353983 -0.088730
C19   C     C_R   0.026837 0.445198 0.892557 0.084973
C20   C     C_R   0.554802 0.581664 0.892553 0.084980
C21   C     C_R   0.418294 0.973100 0.892542 0.084990
C22   C     C_R   0.445194 0.026833 0.392558 0.084976
C23   C     C_R   0.581665 0.554812 0.392554 0.084971
C24   C     C_R   0.973275 0.418489 0.392578 0.084948
C25   C     C_R   0.090542 0.620820 0.888451 -0.142045
C26   C     C_R   0.379188 0.469719 0.888453 -0.142047
C27   C     C_R   0.530291 0.909491 0.888455 -0.142040
C28   C     C_R   0.620813 0.090540 0.388453 -0.142056
C29   C     C_R   0.469703 0.379198 0.388457 -0.142043
C30   C     C_R   0.909339 0.530206 0.388437 -0.142055
C31   C     C_R   0.060145 0.610869 0.850118 -0.117310
C32   C     C_R   0.389137 0.449279 0.850119 -0.117315
C33   C     C_R   0.550717 0.939862 0.850119 -0.117307
C34   C     C_R   0.610860 0.060137 0.350122 -0.117326
C35   C     C_R   0.449257 0.389149 0.350124 -0.117309
C36   C     C_R   0.939769 0.550680 0.350110 -0.117324
C37   C     C_R   0.017808 0.519187 0.832001 0.009482
C38   C     C_R   0.480814 0.498644 0.831999 0.009484
C39   C     C_R   0.501315 0.982127 0.831991 0.009494
C40   C     C_R   0.519177 0.017794 0.332004 0.009488
C41   C     C_R   0.498629 0.480826 0.332002 0.009491
C42   C     C_R   0.982259 0.501457 0.332011 0.009480
C43   C     C_R   0.079278 0.539331 0.909461 0.026029
C44   C     C_R   0.460671 0.539953 0.909460 0.026029
C45   C     C_R   0.460038 0.920717 0.909458 0.026022
C46   C     C_R   0.539327 0.079278 0.409462 0.026037
C47   C     C_R   0.539949 0.460679 0.409462 0.026024
C48   C     C_R   0.920711 0.460069 0.409461 0.026052
C49   C     C_R   0.577583 0.442516 0.445719 0.567826
C50   C     C_R   0.557486 0.135070 0.445719 0.567834
C51   C     C_R   0.864929 0.422420 0.445719 0.567858
C52   C     C_R   0.442514 0.577584 0.945719 0.567836
C53   C     C_R   0.135069 0.557486 0.945719 0.567838
C54   C     C_R   0.422415 0.864931 0.945719 0.567827
C55   C     C_R   0.916944 0.454932 0.591630 0.024859
C56   C     C_R   0.545066 0.462008 0.591629 0.024855
C57   C     C_R   0.537992 0.083037 0.591625 0.024853
C58   C     C_R   0.454930 0.916935 0.091631 0.024856
C59   C     C_R   0.462007 0.545060 0.091630 0.024856
C60   C     C_R   0.083082 0.537983 0.091636 0.024862
C61   C     C_R   0.945419 0.395076 0.611162 -0.122303
C62   C     C_R   0.604906 0.550349 0.611157 -0.122306
C63   C     C_R   0.449626 0.054466 0.611143 -0.122316
C64   C     C_R   0.395077 0.945412 0.111162 -0.122298
C65   C     C_R   0.550349 0.604897 0.111157 -0.122308
C66   C     C_R   0.054723 0.449695 0.111184 -0.122284
C67   C     C_R   0.974613 0.413534 0.649708 -0.114125
C68   C     C_R   0.586445 0.561088 0.649702 -0.114128
C69   C     C_R   0.438871 0.025231 0.649685 -0.114123
C70   C     C_R   0.413530 0.974596 0.149709 -0.114130
C71   C     C_R   0.561087 0.586436 0.149703 -0.114123
C72   C     C_R   0.025584 0.438983 0.149736 -0.114132
C73   C     C_R   0.976356 0.492458 0.669288 0.034638
C74   C     C_R   0.507535 0.483899 0.669286 0.034631
C75   C     C_R   0.516075 0.023556 0.669276 0.034626
C76   C     C_R   0.492447 0.976329 0.169291 0.034636
C77   C     C_R   0.483894 0.507530 0.169287 0.034639
C78   C     C_R   0.023761 0.516135 0.169302 0.034657
C79   C     C_R   0.956743 0.557594 0.648709 -0.113659
C80   C     C_R   0.442415 0.399134 0.648711 -0.113661
C81   C     C_R   0.600872 0.043274 0.648710 -0.113666
C82   C     C_R   0.557580 0.956713 0.148714 -0.113659
C83   C     C_R   0.399129 0.442412 0.148713 -0.113659
C84   C     C_R   0.043250 0.600830 0.148710 -0.113646
C85   C     C_R   0.927046 0.538848 0.610138 -0.126032
C86   C     C_R   0.461163 0.388182 0.610141 -0.126028
C87   C     C_R   0.611835 0.073000 0.610143 -0.126035
C88   C     C_R   0.538838 0.927024 0.110142 -0.126032
C89   C     C_R   0.388179 0.461160 0.110142 -0.126038
C90   C     C_R   0.072909 0.611765 0.110134 -0.126034
C91   C     C_R   0.003013 0.511361 0.789818 0.350033
C92   C     C_R   0.488638 0.491679 0.789816 0.350024
C93   C     C_R   0.508262 0.996884 0.789807 0.350016
C94   C     C_R   0.511348 0.002991 0.289821 0.350035
C95   C     C_R   0.491664 0.488648 0.289818 0.350038
C96   C     C_R   0.997110 0.508455 0.289830 0.350057
Cr1   Cr    Cr6+3 0.522350 0.263930 0.500020 1.057287
Cr2   Cr    Cr6+3 0.736070 0.258420 0.500020 1.057267
Cr3   Cr    Cr6+3 0.741580 0.477650 0.500020 1.057294
Cr4   Cr    Cr6+3 0.263930 0.522350 0.000020 1.057279
Cr5   Cr    Cr6+3 0.258420 0.736070 0.000020 1.057293
Cr6   Cr    Cr6+3 0.477650 0.741580 0.000020 1.057287
H1    H     H_    0.939284 0.330401 0.597471 0.140584
H2    H     H_    0.669569 0.608896 0.597463 0.140585
H3    H     H_    0.391066 0.060550 0.597443 0.140586
H4    H     H_    0.330408 0.939286 0.097469 0.140588
H5    H     H_    0.608898 0.669559 0.097462 0.140583
H6    H     H_    0.060916 0.391181 0.097501 0.140581
H7    H     H_    0.906129 0.586584 0.595643 0.134249
H8    H     H_    0.413439 0.319520 0.595650 0.134259
H9    H     H_    0.680517 0.093990 0.595660 0.134256
H10   H     H_    0.586572 0.906105 0.095649 0.134249
H11   H     H_    0.319516 0.413438 0.095651 0.134236
H12   H     H_    0.093740 0.680384 0.095627 0.134231
H13   H     H_    0.991290 0.363199 0.664641 0.143658
H14   H     H_    0.636767 0.628110 0.664631 0.143662
H15   H     H_    0.371825 0.008477 0.664606 0.143686
H16   H     H_    0.363198 0.991276 0.164641 0.143651
H17   H     H_    0.628109 0.636756 0.164632 0.143668
H18   H     H_    0.008998 0.372013 0.164683 0.143614
H19   H     H_    0.958523 0.619662 0.662964 0.143325
H20   H     H_    0.380358 0.338840 0.662969 0.143330
H21   H     H_    0.661178 0.041544 0.662972 0.143344
H22   H     H_    0.619642 0.958485 0.162971 0.143320
H23   H     H_    0.338833 0.380358 0.162971 0.143327
H24   H     H_    0.041412 0.661093 0.162960 0.143296
H25   H     H_    0.960986 0.364111 0.840789 0.163819
H26   H     H_    0.635884 0.596923 0.840782 0.163804
H27   H     H_    0.402990 0.038866 0.840759 0.163784
H28   H     H_    0.364104 0.960971 0.340791 0.163806
H29   H     H_    0.596923 0.635896 0.340781 0.163805
H30   H     H_    0.039285 0.403381 0.340833 0.163847
H31   H     H_    0.129192 0.693861 0.900699 0.158502
H32   H     H_    0.306149 0.435314 0.900703 0.158488
H33   H     H_    0.564721 0.870885 0.900712 0.158494
H34   H     H_    0.693854 0.129194 0.400700 0.158461
H35   H     H_    0.435293 0.306159 0.400708 0.158488
H36   H     H_    0.870586 0.564507 0.400669 0.158501
H37   H     H_    0.075505 0.676075 0.834078 0.157775
H38   H     H_    0.323935 0.399426 0.834080 0.157756
H39   H     H_    0.600582 0.924527 0.834082 0.157745
H40   H     H_    0.676063 0.075496 0.334081 0.157742
H41   H     H_    0.399396 0.323948 0.334086 0.157755
H42   H     H_    0.924330 0.600458 0.334060 0.157791
N1    N     N_R   0.988804 0.429915 0.770858 -0.216785
N2    N     N_R   0.570040 0.558977 0.770850 -0.216791
N3    N     N_R   0.440816 0.010732 0.770828 -0.216770
N4    N     N_R   0.429903 0.988781 0.270859 -0.216801
N5    N     N_R   0.558969 0.570045 0.270851 -0.216780
N6    N     N_R   0.011816 0.441507 0.270896 -0.216807
N7    N     N_R   0.981987 0.424811 0.732503 -0.218707
N8    N     N_R   0.575139 0.557254 0.732495 -0.218728
N9    N     N_R   0.442545 0.017540 0.732472 -0.218743
N10   N     N_R   0.424799 0.981959 0.232504 -0.218724
N11   N     N_R   0.557250 0.575139 0.232496 -0.218714
N12   N     N_R   0.018647 0.443202 0.232541 -0.218665
N13   N     N_R   0.003492 0.582561 0.730476 -0.219447
N14   N     N_R   0.417472 0.420882 0.730481 -0.219467
N15   N     N_R   0.579216 0.996737 0.730486 -0.219471
N16   N     N_R   0.582546 0.003462 0.230482 -0.219471
N17   N     N_R   0.420867 0.417477 0.230484 -0.219453
N18   N     N_R   0.996181 0.578854 0.230464 -0.219430
N19   N     N_R   0.010741 0.587835 0.768877 -0.214554
N20   N     N_R   0.412202 0.422864 0.768882 -0.214559
N21   N     N_R   0.577228 0.989497 0.768887 -0.214520
N22   N     N_R   0.587820 0.010715 0.268883 -0.214583
N23   N     N_R   0.422846 0.412211 0.268885 -0.214542
N24   N     N_R   0.988919 0.576896 0.268864 -0.214617
O1    O     O_R   0.498680 0.159540 0.541860 -0.512087
O2    O     O_R   0.840460 0.339140 0.541860 -0.512095
O3    O     O_R   0.660860 0.501320 0.541860 -0.512093
O4    O     O_R   0.159540 0.498680 0.041860 -0.512113
O5    O     O_R   0.339140 0.840460 0.041860 -0.512091
O6    O     O_R   0.501320 0.660860 0.041860 -0.512093
O7    O     O_R   0.532760 0.358060 0.540030 -0.506216
O8    O     O_R   0.641940 0.174700 0.540030 -0.506229
O9    O     O_R   0.825300 0.467240 0.540030 -0.506214
O10   O     O_R   0.358060 0.532760 0.040030 -0.506228
O11   O     O_R   0.174700 0.641940 0.040030 -0.506208
O12   O     O_R   0.467240 0.825300 0.040030 -0.506220
O13   O     O_R   0.498590 0.161190 0.456930 -0.481244
O14   O     O_R   0.838810 0.337400 0.456930 -0.481256
O15   O     O_R   0.662600 0.501410 0.456930 -0.481261
O16   O     O_R   0.161190 0.498590 0.956930 -0.481243
O17   O     O_R   0.337400 0.838810 0.956930 -0.481243
O18   O     O_R   0.501410 0.662600 0.956930 -0.481240
O19   O     O_R   0.532680 0.359580 0.461300 -0.507652
O20   O     O_R   0.640420 0.173100 0.461300 -0.507668
O21   O     O_R   0.826900 0.467320 0.461300 -0.507661
O22   O     O_R   0.359580 0.532680 0.961300 -0.507657
O23   O     O_R   0.173100 0.640420 0.961300 -0.507654
O24   O     O_R   0.467320 0.826900 0.961300 -0.507655
O25   O     O_3   0.666667 0.333333 0.499990 -0.262070
O26   O     O_3   0.333333 0.666667 0.999990 -0.262064
I1    I     I_    0.989353 0.312804 0.922276 -0.312337
I2    I     I_    0.687196 0.676591 0.922268 -0.312350
I3    I     I_    0.323343 0.010547 0.922248 -0.312354
I4    I     I_    0.312804 0.989352 0.422276 -0.312340
I5    I     I_    0.676608 0.687205 0.422265 -0.312353
I6    I     I_    0.010875 0.323706 0.422327 -0.312328

loop_
_geom_bond_atom_site_label_1
_geom_bond_atom_site_label_2
_ccdc_geom_bond_type
C25   C31   A    
C19   I1    S    
C30   H36   S    
C23   I5    S    
C17   H29   S    
Cr6   O12   S    
C6    C58   S    
C18   H30   S    
Cr3   O9    S    
C91   N1    A    
C51   O14   A    
C8    N14   A    
C25   C43   A    
C2    C57   S    
C14   H26   S    
C7    C73   S    
C80   H20   S    
C27   C33   A    
C26   C32   A    
C79   H19   S    
C28   C46   A    
C17   C23   A    
N4    N10   A    
C29   C47   A    
C18   C24   A    
C30   C48   A    
C61   H1    S    
C1    C56   S    
C12   N12   A    
C32   H38   S    
C85   H7    S    
C18   C42   A    
Cr5   O17   S    
Cr3   O3    S    
C27   C45   A    
C9    N15   A    
C68   C74   A    
C38   C92   S    
C11   N17   A    
Cr1   O1    S    
N17   N23   A    
C59   C89   A    
Cr1   O25   S    
C67   H13   S    
C5    O11   A    
C1    O7    A    
C80   C86   A    
C69   H15   S    
C11   C77   S    
C2    O8    A    
C49   O15   A    
Cr5   O5    S    
C43   C53   S    
C48   C51   S    
C66   C72   A    
C63   C69   A    
C39   C93   S    
C54   O17   A    
C12   C78   S    
Cr4   O16   S    
Cr6   O24   S    
C96   N24   A    
C69   C75   A    
C95   N5    A    
C32   C38   A    
C63   H3    S    
C25   H31   S    
N13   N19   A    
C13   C37   A    
C51   O21   A    
C11   N11   A    
C6    O12   A    
C44   C52   S    
C12   N18   A    
C93   N21   A    
C74   C80   A    
Cr4   O4    S    
C58   C64   A    
C94   N22   A    
C84   C90   A    
C83   H23   S    
N3    N9    A    
Cr6   O26   S    
C82   H22   S    
C20   C44   A    
C19   C43   A    
C46   C50   S    
C57   C63   A    
C21   C45   A    
C36   C42   A    
C84   H24   S    
C83   C89   A    
C89   H11   S    
C23   C47   A    
C37   C91   S    
C26   C44   A    
Cr3   O15   S    
C24   C48   A    
C14   C20   A    
C60   C90   A    
C47   C49   S    
C53   O16   A    
C76   C82   A    
Cr1   O7    S    
Cr3   O21   S    
C13   C19   A    
C75   C81   A    
C52   O22   A    
C91   N19   A    
C94   N4    A    
C33   H39   S    
C65   C71   A    
C92   N2    A    
C1    O3    A    
C62   H2    S    
N15   N21   A    
Cr2   O25   S    
C58   C88   A    
C88   H10   S    
C55   C85   A    
C30   C36   A    
Cr6   O18   S    
C26   H32   S    
C13   H25   S    
C57   C87   A    
Cr5   O11   S    
C14   C38   A    
Cr2   O8    S    
C61   C67   A    
C56   C86   A    
N16   N22   A    
C15   H27   S    
C15   C21   A    
C66   H6    S    
C96   N6    A    
C72   H18   S    
C8    C74   S    
C73   C79   A    
C49   O19   A    
C33   C39   A    
C64   H4    S    
C53   O23   A    
C15   C39   A    
N1    N7    A    
C54   O24   A    
C16   C40   A    
C60   C66   A    
C7    N7    A    
C67   C73   A    
C22   C46   A    
C68   H14   S    
C45   C54   S    
N6    N12   A    
C64   C70   A    
C70   C76   A    
C9    N9    A    
N18   N24   A    
Cr4   O26   S    
C50   O13   A    
C31   H37   S    
C52   O18   A    
C10   N16   A    
C40   C94   S    
C71   C77   A    
C16   H28   S    
Cr5   O26   S    
Cr1   O19   S    
C29   C35   A    
N5    N11   A    
C34   H40   S    
C16   C22   A    
C5    C60   S    
C86   H8    S    
C28   H34   S    
C10   C76   S    
C22   I4    S    
Cr4   O10   S    
Cr4   O22   S    
C77   C83   A    
C4    O10   A    
Cr5   O23   S    
C95   N23   A    
C50   O20   A    
C3    O2    A    
Cr1   O13   S    
C7    N13   A    
C6    O5    A    
N14   N20   A    
Cr2   O14   S    
Cr6   O6    S    
C29   H35   S    
Cr3   O25   S    
C3    C55   S    
C71   H17   S    
C42   C96   S    
C27   H33   S    
C3    O9    A    
C59   C65   A    
C10   N10   A    
C81   C87   A    
C92   N20   A    
C41   C95   S    
C8    N8    A    
N2    N8    A    
C82   C88   A    
C55   C61   A    
C4    C59   S    
C21   I3    S    
C79   C85   A    
C20   I2    S    
C93   N3    A    
C56   C62   A    
C62   C68   A    
C90   H12   S    
C36   H42   S    
C35   C41   A    
C17   C41   A    
C78   C84   A    
C81   H21   S    
C2    O1    A    
C28   C34   A    
Cr2   O2    S    
C31   C37   A    
C70   H16   S    
C87   H9    S    
C24   I6    S    
C72   C78   A    
C5    O4    A    
C34   C40   A    
C4    O6    A    
C9    C75   S    
Cr2   O20   S    
C65   H5    S    
C35   H41   S    
