data_mof_unit_31789.cif
_audit_creation_date              2012-12-11T17:06:31-0500
_audit_creation_method            fapswitch 2.2
_symmetry_space_group_name_H-M    P1
_symmetry_Int_Tables_number       1
_space_group_crystal_system       triclinic
_cell_length_a                    6.95814
_cell_length_b                    14.496248
_cell_length_c                    15.978652
_cell_angle_alpha                 90.47194
_cell_angle_beta                  89.975563
_cell_angle_gamma                 89.885674
_cell_volume                      1611.65942086

loop_
_atom_site_label
_atom_site_type_symbol
_atom_type_description
_atom_site_fract_x
_atom_site_fract_y
_atom_site_fract_z
_atom_type_partial_charge
O1    O     O_R   0.494400 0.415450 0.412630 -0.541708
O2    O     O_R   0.823940 0.405730 0.586760 -0.516403
O3    O     O_R   0.994240 0.584550 0.587370 -0.548485
C1    C     C_R   0.655327 0.383137 0.614932 0.751748
O4    O     O_R   0.824110 0.404430 0.413240 -0.547650
O5    O     O_R   0.994420 0.583240 0.412620 -0.545240
C2    C     C_R   0.655547 0.382166 0.384265 0.678356
O6    O     O_R   0.494230 0.416760 0.587380 -0.541687
O7    O     O_3   0.660800 0.558670 0.500000 -0.370670
V1    V     V_3+5 0.935650 0.489120 0.500000 1.436663
O8    O     O_R   0.324140 0.594270 0.413240 -0.540123
C3    C     C_R   0.155069 0.616237 0.384387 0.694192
O9    O     O_R   0.323960 0.595570 0.586760 -0.522035
C4    C     C_R   0.154732 0.617550 0.615499 0.756508
V2    V     V_3+5 0.435660 0.510880 0.500000 1.453567
O10   O     O_3   0.160640 0.441330 0.500000 -0.370902
C5    C     C_3   0.956309 0.713238 0.733613 -0.212273
C6    C     C_3   0.066634 0.705933 0.817994 -0.215141
H1    H     H_    0.013946 0.671676 0.875469 0.112842
H2    H     H_    0.811103 0.684532 0.721303 0.157726
C7    C     C_3   0.123228 0.808936 0.810582 -0.107218
C8    C     C_3   0.011381 0.816986 0.727304 -0.167663
C9    C     C_3   0.196457 0.788719 0.680692 0.341858
C10   C     C_3   0.311020 0.783212 0.762890 -0.263292
C11   C     C_3   0.251156 0.680880 0.768985 0.422706
C12   C     C_3   0.142350 0.686785 0.685747 -0.072633
H3    H     H_    0.913765 0.874308 0.709710 0.110737
H4    H     H_    0.456192 0.812662 0.773666 0.119547
C13   C     C_R   0.274395 0.749476 0.186842 0.095117
C14   C     C_R   0.118447 0.810021 0.178825 -0.110399
C15   C     C_R   0.966070 0.800380 0.236164 -0.177167
H5    H     H_    0.843014 0.845698 0.232642 0.131203
C16   C     C_R   0.977521 0.736973 0.302468 -0.169201
H6    H     H_    0.861949 0.734571 0.347625 0.133532
C17   C     C_R   0.142292 0.681779 0.313756 -0.100794
C18   C     C_R   0.286140 0.687061 0.252648 0.091758
C19   C     C_3   0.496235 0.702852 0.262971 -0.411170
C20   C     C_3   0.483513 0.770425 0.190986 -0.394429
H7    H     H_    0.582243 0.640220 0.247748 0.167819
H8    H     H_    0.530191 0.736476 0.323931 0.178312
H9    H     H_    0.561414 0.746668 0.133978 0.169665
H10   H     H_    0.510931 0.843149 0.210024 0.169656
C21   C     C_R   0.509365 0.322081 0.746843 0.042785
C22   C     C_R   0.648774 0.315476 0.683792 -0.196574
C23   C     C_R   0.787269 0.244047 0.690257 0.404824
C24   C     C_R   0.777585 0.180351 0.756766 -0.278792
H11   H     H_    0.884229 0.125981 0.760210 0.129034
C25   C     C_R   0.624477 0.182667 0.814466 -0.151976
C26   C     C_R   0.496225 0.256900 0.809829 0.082806
C27   C     C_3   0.281874 0.259212 0.809096 -0.389392
C28   C     C_3   0.296350 0.331264 0.740668 -0.352930
H12   H     H_    0.221555 0.287077 0.868578 0.165231
H13   H     H_    0.218220 0.193040 0.787127 0.182947
H14   H     H_    0.245505 0.400702 0.760910 0.186166
H15   H     H_    0.241121 0.307310 0.679096 0.220746
C29   C     C_R   0.490327 0.251882 0.308373 0.106304
C30   C     C_R   0.647849 0.311075 0.317195 -0.110109
C31   C     C_R   0.800841 0.299599 0.260368 -0.184083
H16   H     H_    0.924398 0.344345 0.264266 0.132029
C32   C     C_R   0.789119 0.235231 0.193983 -0.178854
H17   H     H_    0.905230 0.231377 0.149123 0.131246
C33   C     C_R   0.623459 0.180910 0.182202 -0.110353
C34   C     C_R   0.478425 0.188250 0.242611 0.101527
C35   C     C_3   0.269568 0.206253 0.230712 -0.414656
C36   C     C_3   0.282729 0.275488 0.302244 -0.402790
H18   H     H_    0.180448 0.145034 0.245815 0.174853
H19   H     H_    0.239008 0.238669 0.169325 0.169958
H20   H     H_    0.201712 0.254375 0.358678 0.176532
H21   H     H_    0.259572 0.348039 0.282489 0.164841
O11   O     O_R   0.771650 0.079500 0.908680 -0.539382
O12   O     O_R   0.441690 0.091800 0.082800 -0.539355
O13   O     O_R   0.271460 0.912980 0.083410 -0.536941
C37   C     C_R   0.610638 0.114281 0.111606 0.694464
O14   O     O_R   0.441930 0.090510 0.909280 -0.541107
O15   O     O_R   0.271690 0.911670 0.908660 -0.541540
C38   C     C_R   0.610852 0.112604 0.880795 0.721657
O16   O     O_R   0.771410 0.080810 0.083440 -0.539770
O17   O     O_3   0.605100 0.937580 0.996050 -0.371474
V3    V     V_3+5 0.330220 0.007110 0.996030 1.388146
O18   O     O_R   0.941980 0.900620 0.909250 -0.540123
C39   C     C_R   0.111205 0.878470 0.880613 0.711429
O19   O     O_R   0.941740 0.901920 0.082770 -0.543234
C40   C     C_R   0.110524 0.880080 0.111739 0.693087
V4    V     V_3+5 0.830220 0.985300 0.996000 1.385822
O20   O     O_3   0.105210 0.054870 0.996020 -0.369780
O21   O     O_3   0.928395 0.234737 0.629849 -0.556948
C41   C     C_3   0.884667 0.158410 0.577777 0.083321
H22   H     H_    0.729584 0.156781 0.559835 0.101768
H23   H     H_    0.923053 0.092992 0.609698 0.119221
C42   C     C_3   0.001594 0.165064 0.497730 -0.706518
H24   H     H_    0.972408 0.104383 0.456845 0.175985
H25   H     H_    0.960870 0.228706 0.463826 0.222001
H26   H     H_    0.157486 0.167200 0.512590 0.213831
O22   O     O_3   0.262803 0.830607 0.607723 -0.650650
H27   H     H_    0.284972 0.896073 0.623234 0.278313
O23   O     O_3   0.373494 0.605527 0.785739 -0.562268
C43   C     C_3   0.470724 0.620749 0.861947 0.091230
H28   H     H_    0.367214 0.629083 0.914661 0.112788
H29   H     H_    0.564130 0.682828 0.858286 0.122325
C44   C     C_3   0.598576 0.537996 0.879832 -0.721186
H30   H     H_    0.703895 0.528090 0.828225 0.221620
H31   H     H_    0.677974 0.549466 0.939272 0.170692
H32   H     H_    0.509697 0.474797 0.885594 0.224021

loop_
_geom_bond_atom_site_label_1
_geom_bond_atom_site_label_2
_ccdc_geom_bond_type
C41   H22   S    
C6    C7    S    
C25   C38   S    
C17   C18   A    
O18   V4    S    
O12   V3    S    
C43   H28   S    
C42   H24   S    
C23   C24   A    
C13   C18   A    
C33   C34   A    
O14   C38   A    
C5    C12   S    
C18   C19   S    
C19   C20   S    
C20   H10   S    
C19   H8    S    
O5    C3    A    
C14   C15   A    
C31   C32   A    
V2    O10   S    
C5    H2    S    
C29   C30   A    
C32   C33   A    
C6    H1    S    
C9    C12   S    
C14   C40   S    
C41   C42   S    
O8    V2    S    
C13   C20   S    
C27   H12   S    
C9    C10   S    
C15   C16   A    
C33   C37   S    
O1    V2    S    
O11   V4    S    
O7    V1    S    
C1    O6    A    
O1    C2    A    
O9    C4    A    
C6    C11   S    
C43   H29   S    
C16   H6    S    
C24   C25   A    
C27   H13   S    
C35   H19   S    
V4    O20   S    
C20   H9    S    
O4    C2    A    
O21   C41   S    
C21   C26   A    
C1    C22   S    
O16   V4    S    
C27   C28   S    
C11   C12   S    
C44   H32   S    
C4    C12   S    
C32   H17   S    
C35   H18   S    
O2    C1    A    
C21   C22   A    
C13   C14   A    
C42   H25   S    
C15   H5    S    
C36   H20   S    
O23   C43   S    
C44   H31   S    
C5    C6    S    
C29   C34   A    
C10   C11   S    
C3    C17   S    
O3    C4    A    
C25   C26   A    
C7    C39   S    
O19   C40   A    
O6    V2    S    
O19   V4    S    
O14   V3    S    
C41   H23   S    
O11   C38   A    
C31   H16   S    
O2    V1    S    
V3    O20   S    
C43   C44   S    
C22   C23   A    
C42   H26   S    
O12   C37   A    
C24   H11   S    
O17   V3    S    
O15   C39   A    
C10   H4    S    
O18   C39   A    
O5    V1    S    
O8    C3    A    
O13   V3    S    
C5    C8    S    
C9    O22   S    
C8    H3    S    
C28   H14   S    
C35   C36   S    
O9    V2    S    
C23   O21   S    
O7    V2    S    
O4    V1    S    
C19   H7    S    
O3    V1    S    
V1    O10   S    
C21   C28   S    
C30   C31   A    
C36   H21   S    
C44   H30   S    
C16   C17   A    
C28   H15   S    
O22   H27   S    
O13   C40   A    
C34   C35   S    
O17   V4    S    
C11   O23   S    
C26   C27   S    
C7    C10   S    
C37   O16   A    
C8    C9    S    
C7    C8    S    
O15   V3    S    
C2    C30   S    
C29   C36   S    
