data_mof_unit_48043.cif
_audit_creation_date              2012-12-10T19:58:54-0500
_audit_creation_method            fapswitch 2.2
_symmetry_space_group_name_H-M    P1
_symmetry_Int_Tables_number       1
_space_group_crystal_system       triclinic
_cell_length_a                    18.468424
_cell_length_b                    18.475113
_cell_length_c                    22.393245
_cell_angle_alpha                 89.999904
_cell_angle_beta                  89.999904
_cell_angle_gamma                 90.126741
_cell_volume                      7640.6957938

loop_
_atom_site_label
_atom_site_type_symbol
_atom_type_description
_atom_site_fract_x
_atom_site_fract_y
_atom_site_fract_z
_atom_type_partial_charge
C1    C     C_R   0.500004 0.999999 0.340157 0.820182
C2    C     C_R   0.859586 0.639464 0.500721 0.830838
C3    C     C_3   0.429917 0.646473 0.452718 0.132866
C4    C     C_3   0.474207 0.689094 0.498972 -0.317659
C5    C     C_3   0.491223 0.643096 0.553574 -1.055848
C6    C     C_3   0.348144 0.417773 0.452568 0.140942
C7    C     C_3   0.307717 0.463212 0.499327 -0.308050
C8    C     C_3   0.357080 0.487766 0.549947 -1.055566
C9    C     C_3   0.574342 0.353785 0.448493 0.138333
C10   C     C_3   0.529484 0.312194 0.495092 -0.321792
C11   C     C_3   0.509331 0.360144 0.547768 -1.060358
C12   C     C_3   0.314235 0.579712 0.337443 0.147033
C13   C     C_R   0.359954 0.859867 0.500390 0.828959
C14   C     C_3   0.255045 0.535215 0.306430 -0.294703
C15   C     C_3   0.284253 0.495780 0.251790 -0.976380
C16   C     C_3   0.584534 0.689677 0.334666 0.144425
C17   C     C_3   0.538846 0.744610 0.300047 -0.304868
C18   C     C_3   0.502721 0.710085 0.245715 -0.945202
C19   C     C_3   0.700900 0.418249 0.333162 0.142117
C20   C     C_3   0.765313 0.461465 0.308647 -0.292422
C21   C     C_3   0.745818 0.500805 0.251272 -0.974854
C22   C     C_3   0.414906 0.313033 0.334094 0.145048
C23   C     C_3   0.459130 0.258382 0.297908 -0.319360
C24   C     C_R   0.140132 0.360229 0.500555 0.821688
C25   C     C_3   0.486221 0.291357 0.239500 -0.941449
C26   C     C_3   0.151856 0.082229 0.952568 0.140937
C27   C     C_3   0.192283 0.036791 0.999326 -0.308055
C28   C     C_3   0.142920 0.012235 0.049947 -1.055559
C29   C     C_3   0.925659 0.146215 0.948493 0.138330
C30   C     C_3   0.970516 0.187806 0.995093 -0.321791
C31   C     C_3   0.990669 0.139856 0.047768 -1.060358
C32   C     C_3   0.846240 0.915505 0.949600 0.137190
C33   C     C_3   0.807486 0.963980 0.995111 -0.311281
C34   C     C_3   0.857510 0.988305 0.045296 -1.063000
C35   C     C_R   0.359295 0.139330 0.499638 0.857949
C36   C     C_3   0.070084 0.853530 0.952716 0.132873
C37   C     C_3   0.025792 0.810909 0.998969 -0.317672
C38   C     C_3   0.008778 0.856905 0.053572 -1.055851
C39   C     C_3   0.799105 0.081753 0.833161 0.142117
C40   C     C_3   0.734695 0.038536 0.808644 -0.292424
C41   C     C_3   0.754194 0.999200 0.751266 -0.974862
C42   C     C_3   0.085094 0.186972 0.834094 0.145048
C43   C     C_3   0.040870 0.241623 0.797910 -0.319354
C44   C     C_3   0.013775 0.208648 0.739502 -0.941447
C45   C     C_3   0.185783 0.920295 0.837444 0.146993
C46   C     C_R   0.138813 0.641202 0.498694 0.851208
C47   C     C_3   0.244979 0.964800 0.806445 -0.294654
C48   C     C_3   0.215781 0.004251 0.751809 -0.976353
C49   C     C_3   0.915466 0.810323 0.834666 0.144420
C50   C     C_3   0.961156 0.755390 0.800048 -0.304862
C51   C     C_3   0.997284 0.789915 0.745717 -0.945200
C52   C     C_3   0.780302 0.900671 0.599354 0.193462
C53   C     C_3   0.847138 0.890965 0.638972 -0.362994
C54   C     C_3   0.894582 0.958543 0.639213 -1.037338
C55   C     C_3   0.076744 0.812359 0.516630 0.122412
C56   C     C_3   0.000477 0.822927 0.541078 -0.288462
C57   C     C_R   0.640194 0.860123 0.500190 0.864848
C58   C     C_3   0.948310 0.845329 0.491547 -1.006082
C59   C     C_3   0.209766 0.086980 0.580552 0.184514
C60   C     C_3   0.137652 0.088256 0.614121 -0.370596
C61   C     C_3   0.098114 0.015884 0.608460 -0.966088
C62   C     C_3   0.926349 0.198785 0.538571 0.161020
C63   C     C_3   0.924497 0.116173 0.542482 -0.360768
C64   C     C_3   0.975666 0.082338 0.496904 -1.018241
C65   C     C_3   0.276768 0.846437 0.634475 0.131432
C66   C     C_3   0.232180 0.798996 0.677166 -0.361332
C67   C     C_3   0.280003 0.767488 0.726032 -0.975205
C68   C     C_R   0.861124 0.358799 0.499061 0.843462
C69   C     C_3   0.803915 0.667645 0.639216 0.115899
C70   C     C_3   0.751009 0.694485 0.686925 -0.316674
C71   C     C_3   0.724270 0.632243 0.725948 -0.988091
C72   C     C_3   0.704098 0.166696 0.638281 0.125450
C73   C     C_3   0.741410 0.218181 0.682320 -0.344839
C74   C     C_3   0.687429 0.247507 0.727697 -0.974894
C75   C     C_3   0.181364 0.317781 0.639588 0.130079
C76   C     C_3   0.236652 0.289737 0.684986 -0.329796
C77   C     C_3   0.263804 0.350835 0.725020 -0.985103
C78   C     C_3   0.290233 0.413025 0.080545 0.184497
C79   C     C_R   0.140044 0.640134 0.000392 0.828947
C80   C     C_3   0.362353 0.411751 0.114106 -0.370572
C81   C     C_3   0.401890 0.484123 0.108437 -0.966126
C82   C     C_3   0.573653 0.301217 0.038570 0.161019
C83   C     C_3   0.575509 0.383829 0.042479 -0.360768
C84   C     C_3   0.524346 0.417665 0.996897 -1.018244
C85   C     C_3   0.719704 0.599329 0.099358 0.193466
C86   C     C_3   0.652871 0.609030 0.138980 -0.363018
C87   C     C_3   0.605427 0.541452 0.139219 -1.037311
C88   C     C_3   0.423235 0.687632 0.016671 0.122398
C89   C     C_3   0.499507 0.677086 0.041116 -0.288423
C90   C     C_R   0.359869 0.139772 0.000554 0.821688
C91   C     C_3   0.551671 0.654677 0.991584 -1.006038
C92   C     C_3   0.795902 0.333303 0.138281 0.125449
C93   C     C_3   0.758590 0.281818 0.182321 -0.344838
C94   C     C_3   0.812571 0.252491 0.227697 -0.974894
C95   C     C_3   0.318638 0.182222 0.139587 0.130080
C96   C     C_3   0.263350 0.210266 0.184985 -0.329796
C97   C     C_3   0.236197 0.149169 0.225020 -0.985102
C98   C     C_3   0.223184 0.653587 0.134490 0.131426
C99   C     C_3   0.267744 0.701050 0.177184 -0.361302
C100  C     C_3   0.219895 0.732556 0.226033 -0.975187
C101  C     C_R   0.860189 0.359694 0.000607 0.827037
C102  C     C_3   0.696083 0.832355 0.139216 0.115895
C103  C     C_3   0.748988 0.805515 0.186926 -0.316676
C104  C     C_3   0.775725 0.867758 0.225949 -0.988091
C105  C     C_R   0.999993 0.499990 0.340153 0.822751
C106  C     C_R   0.640414 0.860536 0.000721 0.830835
C107  C     C_R   0.859806 0.639877 0.000190 0.864852
C108  C     C_R   0.638876 0.141200 0.999061 0.843461
C109  C     C_R   0.140705 0.360670 0.999638 0.857945
C110  C     C_R   0.361186 0.858798 0.998696 0.851215
C111  C     C_R   0.703488 0.755023 0.456164 -0.133631
C112  C     C_R   0.258349 0.688244 0.467952 -0.088823
C113  C     C_R   0.299069 0.247563 0.457850 -0.129991
C114  C     C_R   0.744051 0.309056 0.466087 -0.090662
C115  C     C_R   0.312382 0.739729 0.470139 -0.167540
C116  C     C_R   0.999996 0.500000 0.840157 0.820183
C117  C     C_R   0.753243 0.701141 0.457921 -0.175243
C118  C     C_R   0.689617 0.258594 0.468122 -0.174128
C119  C     C_R   0.249154 0.301284 0.459933 -0.171727
C120  C     C_R   0.200932 0.252439 0.957849 -0.129992
C121  C     C_R   0.755949 0.190943 0.966087 -0.090662
C122  C     C_R   0.796511 0.744976 0.956163 -0.133633
C123  C     C_R   0.241650 0.811756 0.967954 -0.088822
C124  C     C_R   0.810383 0.241406 0.968122 -0.174125
C125  C     C_R   0.250847 0.198718 0.959932 -0.171727
C126  C     C_R   0.187616 0.760273 0.970141 -0.167540
C127  C     C_R   0.500007 0.000009 0.840153 0.822754
C128  C     C_R   0.746756 0.798859 0.957921 -0.175248
C129  C     C_R   0.695580 0.804239 0.502591 -0.239862
C130  C     C_R   0.193706 0.697915 0.498812 -0.285361
C131  C     C_R   0.303150 0.194434 0.501567 -0.253016
C132  C     C_R   0.806163 0.302120 0.500441 -0.288100
C133  C     C_R   0.305345 0.802837 0.503729 -0.286436
C134  C     C_R   0.801924 0.692773 0.504256 -0.247407
C135  C     C_R   0.693580 0.197981 0.504773 -0.286186
C136  C     C_R   0.197134 0.306198 0.504114 -0.265095
C137  C     C_R   0.196851 0.305567 0.001567 -0.253020
C138  C     C_R   0.500006 0.000012 0.659859 0.833959
C139  C     C_R   0.693837 0.197879 0.000441 -0.288100
C140  C     C_R   0.804420 0.695760 0.002591 -0.239859
C141  C     C_R   0.306289 0.802090 0.998820 -0.285359
C142  C     C_R   0.806420 0.302018 0.004773 -0.286184
C143  C     C_R   0.302867 0.193803 0.004114 -0.265097
C144  C     C_R   0.194648 0.697169 0.003737 -0.286430
C145  C     C_R   0.698076 0.807227 0.004256 -0.247411
C146  C     C_R   0.742281 0.795964 0.553049 0.359769
C147  C     C_R   0.185548 0.760986 0.534094 0.357241
C148  C     C_R   0.251736 0.198043 0.549225 0.368594
C149  C     C_R   0.999995 0.500000 0.659853 0.820473
C150  C     C_R   0.810392 0.242674 0.540694 0.381695
C151  C     C_R   0.243763 0.809126 0.541289 0.400357
C152  C     C_R   0.792365 0.737778 0.555007 0.397593
C153  C     C_R   0.750990 0.195424 0.546925 0.401305
C154  C     C_R   0.202065 0.256210 0.552241 0.395085
C155  C     C_R   0.248266 0.301959 0.049223 0.368600
C156  C     C_R   0.689608 0.257325 0.040694 0.381698
C157  C     C_R   0.757719 0.704036 0.053050 0.359766
C158  C     C_R   0.314437 0.739027 0.034116 0.357259
C159  C     C_R   0.749010 0.304575 0.046925 0.401300
C160  C     C_R   0.999994 0.499988 0.159859 0.833957
C161  C     C_R   0.297937 0.243792 0.052240 0.395085
C162  C     C_R   0.256221 0.690888 0.041308 0.400339
C163  C     C_R   0.707635 0.762221 0.055007 0.397607
C164  C     C_1   0.999972 0.499978 0.276736 -0.174418
C165  C     C_1   0.500008 0.999998 0.276734 -0.174609
C166  C     C_1   0.500028 0.000022 0.776736 -0.174419
C167  C     C_1   0.999992 0.500002 0.776734 -0.174610
C168  C     C_1   0.500027 0.000023 0.723283 -0.168473
C169  C     C_1   0.999991 0.500001 0.723278 -0.167888
C170  C     C_1   0.999973 0.499977 0.223282 -0.168476
C171  C     C_R   0.500005 1.000000 0.159853 0.820475
C172  C     C_1   0.500009 0.999999 0.223278 -0.167888
C173  C     C_3   0.731821 0.670836 0.398332 0.519939
C174  C     C_3   0.338645 0.723192 0.407816 0.524046
C175  C     C_3   0.270276 0.332044 0.400462 0.519648
C176  C     C_3   0.664830 0.274537 0.405307 0.527748
C177  C     C_3   0.273860 0.669762 0.403558 0.502190
C178  C     C_3   0.678396 0.736470 0.393866 0.498818
C179  C     C_3   0.730999 0.326482 0.401402 0.507191
C180  C     C_3   0.323200 0.266152 0.395293 0.503016
C181  C     C_3   0.229724 0.167959 0.900461 0.519649
C182  C     C_R   0.639811 0.140306 0.500607 0.827035
C183  C     C_3   0.835171 0.225464 0.905307 0.527745
C184  C     C_3   0.768179 0.829164 0.898332 0.519941
C185  C     C_3   0.161356 0.776809 0.907817 0.524055
C186  C     C_3   0.769002 0.173517 0.901402 0.507189
C187  C     C_3   0.176801 0.233851 0.895293 0.503018
C188  C     C_3   0.226143 0.830239 0.903560 0.502189
C189  C     C_3   0.821603 0.763529 0.893865 0.498820
C190  C     C_3   0.653759 0.584494 0.449600 0.137189
C191  C     C_3   0.692514 0.536019 0.495112 -0.311283
C192  C     C_3   0.642489 0.511694 0.545297 -1.063003
H1    H     H_    0.605905 0.554635 0.432255 0.133361
H2    H     H_    0.525327 0.708234 0.478721 0.274512
H3    H     H_    0.172054 0.871828 0.809911 0.141704
H4    H     H_    0.267653 0.005057 0.838070 0.280573
H5    H     H_    0.289813 0.928853 0.792292 0.200603
H6    H     H_    0.192340 0.964762 0.719940 0.257934
H7    H     H_    0.260415 0.034016 0.729331 0.282946
H8    H     H_    0.173458 0.043658 0.765223 0.267718
H9    H     H_    0.948514 0.859664 0.842826 0.156488
H10   H     H_    0.868466 0.827453 0.806725 0.134629
H11   H     H_    0.003590 0.732952 0.829770 0.270393
H12   H     H_    0.926353 0.709934 0.784770 0.212516
H13   H     H_    0.444388 0.737049 0.514712 0.235718
H14   H     H_    0.955714 0.811943 0.714936 0.266176
H15   H     H_    0.029362 0.748511 0.721454 0.283584
H16   H     H_    0.034314 0.834206 0.759833 0.259164
H17   H     H_    0.820586 0.626165 0.357078 0.225424
H18   H     H_    0.826441 0.715960 0.363794 0.136054
H19   H     H_    0.381206 0.811534 0.363280 0.232602
H20   H     H_    0.293257 0.821183 0.380365 0.135060
H21   H     H_    0.182399 0.378049 0.358687 0.227155
H22   H     H_    0.174687 0.288472 0.366303 0.135062
H23   H     H_    0.620620 0.186738 0.361418 0.231491
H24   H     H_    0.441111 0.633265 0.579805 0.282467
H25   H     H_    0.707686 0.174635 0.380086 0.134803
H26   H     H_    0.171911 0.655548 0.368042 0.202008
H27   H     H_    0.193984 0.742677 0.376963 0.138120
H28   H     H_    0.662745 0.836349 0.356144 0.197498
H29   H     H_    0.749932 0.814000 0.360851 0.148171
H30   H     H_    0.835528 0.335708 0.370283 0.191987
H31   H     H_    0.808370 0.250037 0.376835 0.140771
H32   H     H_    0.336943 0.165936 0.357761 0.195794
H33   H     H_    0.250167 0.189460 0.363185 0.142904
H34   H     H_    0.317604 0.121956 0.858689 0.227149
H35   H     H_    0.531062 0.671636 0.582368 0.277550
H36   H     H_    0.325311 0.211534 0.866299 0.135061
H37   H     H_    0.879380 0.313263 0.861418 0.231490
H38   H     H_    0.792314 0.325365 0.880086 0.134803
H39   H     H_    0.679413 0.873834 0.857078 0.225423
H40   H     H_    0.673559 0.784039 0.863793 0.136052
H41   H     H_    0.118795 0.688468 0.863281 0.232603
H42   H     H_    0.206743 0.678816 0.880369 0.135070
H43   H     H_    0.664474 0.164291 0.870282 0.191990
H44   H     H_    0.691629 0.249961 0.876835 0.140770
H45   H     H_    0.163057 0.334066 0.857761 0.195794
H46   H     H_    0.514095 0.590506 0.539600 0.274118
H47   H     H_    0.249833 0.310544 0.863185 0.142902
H48   H     H_    0.328094 0.844450 0.868048 0.202008
H49   H     H_    0.306018 0.757321 0.876969 0.138132
H50   H     H_    0.837254 0.663651 0.856143 0.197498
H51   H     H_    0.750067 0.686000 0.860850 0.148169
H52   H     H_    0.749350 0.947860 0.616411 0.193498
H53   H     H_    0.796546 0.914979 0.552805 0.101982
H54   H     H_    0.829954 0.877797 0.685207 0.230307
H55   H     H_    0.880466 0.845719 0.622322 0.264086
H56   H     H_    0.917626 0.967370 0.594052 0.283567
H57   H     H_    0.395001 0.449863 0.436094 0.133823
H58   H     H_    0.939656 0.951231 0.671436 0.269119
H59   H     H_    0.863112 0.007023 0.652243 0.287052
H60   H     H_    0.072963 0.779085 0.475125 0.110928
H61   H     H_    0.099860 0.866362 0.505090 0.131365
H62   H     H_    0.980905 0.771655 0.561409 0.277203
H63   H     H_    0.001863 0.865176 0.576325 0.220384
H64   H     H_    0.966870 0.896281 0.470152 0.259971
H65   H     H_    0.893634 0.853917 0.510343 0.264718
H66   H     H_    0.944452 0.802091 0.457203 0.260534
H67   H     H_    0.240253 0.038188 0.594969 0.203766
H68   H     H_    0.371440 0.369227 0.474243 0.168515
H69   H     H_    0.199629 0.080519 0.531614 0.090134
H70   H     H_    0.147501 0.099916 0.662095 0.239751
H71   H     H_    0.102707 0.131650 0.595690 0.246616
H72   H     H_    0.088603 0.002420 0.560818 0.272088
H73   H     H_    0.045279 0.019187 0.631787 0.270323
H74   H     H_    0.130310 0.971689 0.628808 0.289858
H75   H     H_    0.979647 0.217716 0.555631 0.184964
H76   H     H_    0.923794 0.216267 0.490850 0.095496
H77   H     H_    0.940704 0.099502 0.588210 0.238897
H78   H     H_    0.868918 0.095822 0.533657 0.250478
H79   H     H_    0.283029 0.511110 0.478042 0.291004
H80   H     H_    0.957173 0.094809 0.450846 0.266225
H81   H     H_    0.976089 0.022732 0.502640 0.271431
H82   H     H_    0.031539 0.103417 0.502898 0.271423
H83   H     H_    0.290685 0.897600 0.657925 0.166601
H84   H     H_    0.329573 0.819950 0.623964 0.123831
H85   H     H_    0.188258 0.831789 0.697498 0.223225
H86   H     H_    0.206962 0.753080 0.652954 0.252535
H87   H     H_    0.319116 0.728480 0.706533 0.261199
H88   H     H_    0.245865 0.738432 0.759046 0.293778
H89   H     H_    0.310626 0.811219 0.748727 0.271992
H90   H     H_    0.263934 0.431397 0.519929 0.213601
H91   H     H_    0.849996 0.640482 0.661852 0.172328
H92   H     H_    0.777360 0.625591 0.610858 0.097088
H93   H     H_    0.778251 0.735558 0.715504 0.243605
H94   H     H_    0.703536 0.720072 0.665091 0.242114
H95   H     H_    0.695960 0.591102 0.698233 0.266491
H96   H     H_    0.685724 0.653248 0.759787 0.272102
H97   H     H_    0.770460 0.606361 0.749410 0.265564
H98   H     H_    0.686605 0.117501 0.662899 0.168727
H99   H     H_    0.653410 0.191766 0.620731 0.114766
H100  H     H_    0.785508 0.188978 0.705871 0.231143
H101  H     H_    0.371994 0.440810 0.578308 0.281252
H102  H     H_    0.765511 0.264811 0.658129 0.241268
H103  H     H_    0.645854 0.280970 0.704909 0.260572
H104  H     H_    0.716240 0.281989 0.760658 0.287128
H105  H     H_    0.660110 0.202237 0.751325 0.270219
H106  H     H_    0.133537 0.338371 0.664396 0.174506
H107  H     H_    0.204156 0.365052 0.614822 0.101419
H108  H     H_    0.211275 0.246884 0.712941 0.241458
H109  H     H_    0.283852 0.266142 0.661315 0.241123
H110  H     H_    0.291536 0.392898 0.697853 0.263871
H111  H     H_    0.303057 0.328963 0.757909 0.275302
H112  H     H_    0.632129 0.632781 0.472782 0.167723
H113  H     H_    0.328291 0.527848 0.578207 0.275120
H114  H     H_    0.217916 0.375957 0.749409 0.266542
H115  H     H_    0.259748 0.461815 0.094967 0.203768
H116  H     H_    0.300362 0.419488 0.031607 0.090134
H117  H     H_    0.352513 0.400093 0.162081 0.239752
H118  H     H_    0.397295 0.368355 0.095672 0.246610
H119  H     H_    0.411394 0.497582 0.060794 0.272065
H120  H     H_    0.454727 0.480823 0.131759 0.270334
H121  H     H_    0.369696 0.528318 0.128785 0.289876
H122  H     H_    0.520354 0.282289 0.055631 0.184958
H123  H     H_    0.576207 0.283733 0.990849 0.095499
H124  H     H_    0.406806 0.513243 0.531968 0.269078
H125  H     H_    0.559300 0.400502 0.088206 0.238893
H126  H     H_    0.631090 0.404176 0.033656 0.250484
H127  H     H_    0.542845 0.405194 0.950840 0.266226
H128  H     H_    0.523925 0.477271 0.002634 0.271432
H129  H     H_    0.468472 0.396588 0.002887 0.271424
H130  H     H_    0.750660 0.552141 0.116413 0.193499
H131  H     H_    0.703456 0.585021 0.052809 0.101982
H132  H     H_    0.670059 0.622194 0.185215 0.230303
H133  H     H_    0.619542 0.654279 0.122335 0.264090
H134  H     H_    0.582373 0.532633 0.094060 0.283563
H135  H     H_    0.540024 0.397660 0.429919 0.126736
H136  H     H_    0.560359 0.548758 0.171450 0.269113
H137  H     H_    0.636902 0.492969 0.152239 0.287052
H138  H     H_    0.427009 0.720880 0.975151 0.110927
H139  H     H_    0.400120 0.633619 0.005157 0.131380
H140  H     H_    0.519073 0.728370 0.061434 0.277216
H141  H     H_    0.498132 0.634848 0.076374 0.220366
H142  H     H_    0.533101 0.603729 0.970186 0.259948
H143  H     H_    0.606344 0.646075 0.010380 0.264721
H144  H     H_    0.555539 0.697916 0.957242 0.260531
H145  H     H_    0.813396 0.382497 0.162899 0.168725
H146  H     H_    0.620480 0.381432 0.470454 0.179054
H147  H     H_    0.846590 0.308232 0.120732 0.114767
H148  H     H_    0.714492 0.311021 0.205871 0.231143
H149  H     H_    0.734488 0.235188 0.158130 0.241267
H150  H     H_    0.854145 0.219028 0.204909 0.260572
H151  H     H_    0.783759 0.218010 0.260659 0.287128
H152  H     H_    0.839890 0.297761 0.251325 0.270220
H153  H     H_    0.366466 0.161633 0.164396 0.174507
H154  H     H_    0.295846 0.134950 0.114822 0.101419
H155  H     H_    0.288727 0.253120 0.212939 0.241460
H156  H     H_    0.216150 0.233861 0.161314 0.241122
H157  H     H_    0.479664 0.290697 0.474386 0.281388
H158  H     H_    0.208466 0.107106 0.197854 0.263870
H159  H     H_    0.196945 0.171041 0.257909 0.275303
H160  H     H_    0.282086 0.124047 0.249409 0.266542
H161  H     H_    0.209274 0.602425 0.157946 0.166614
H162  H     H_    0.170376 0.680057 0.123962 0.123828
H163  H     H_    0.311667 0.668273 0.197532 0.223246
H164  H     H_    0.292958 0.746966 0.152969 0.252491
H165  H     H_    0.180773 0.771545 0.206516 0.261188
H166  H     H_    0.254013 0.761635 0.259047 0.293757
H167  H     H_    0.189280 0.688821 0.248732 0.271982
H168  H     H_    0.559769 0.265821 0.513188 0.232426
H169  H     H_    0.650000 0.859516 0.161851 0.172330
H170  H     H_    0.722637 0.874408 0.110857 0.097088
H171  H     H_    0.721746 0.764442 0.215504 0.243604
H172  H     H_    0.796462 0.779929 0.165092 0.242117
H173  H     H_    0.804035 0.908899 0.198233 0.266491
H174  H     H_    0.814271 0.846754 0.259788 0.272103
H175  H     H_    0.729534 0.893639 0.249410 0.265565
H176  H     H_    0.558133 0.372217 0.575007 0.283980
H177  H     H_    0.469086 0.331902 0.576375 0.276988
H178  H     H_    0.485723 0.411503 0.531603 0.272286
H179  H     H_    0.364375 0.546776 0.340535 0.157152
H180  H     H_    0.715238 0.488027 0.472627 0.291373
H181  H     H_    0.327973 0.628181 0.309916 0.141693
H182  H     H_    0.232366 0.494949 0.338045 0.280562
H183  H     H_    0.210213 0.571166 0.292278 0.200626
H184  H     H_    0.307698 0.535279 0.219931 0.257955
H185  H     H_    0.239623 0.466021 0.229301 0.282947
H186  H     H_    0.326573 0.456370 0.265201 0.267712
H187  H     H_    0.551485 0.640336 0.342826 0.156485
H188  H     H_    0.631534 0.672545 0.306726 0.134628
H189  H     H_    0.496410 0.767048 0.329768 0.270394
H190  H     H_    0.573649 0.790066 0.284770 0.212518
H191  H     H_    0.737457 0.565446 0.516268 0.215619
H192  H     H_    0.544292 0.688058 0.214936 0.266171
H193  H     H_    0.470644 0.751489 0.221451 0.283590
H194  H     H_    0.465689 0.665794 0.259829 0.259163
H195  H     H_    0.651705 0.452759 0.332155 0.161590
H196  H     H_    0.689281 0.370580 0.304106 0.138589
H197  H     H_    0.783078 0.501812 0.342356 0.281200
H198  H     H_    0.811458 0.424795 0.299432 0.206350
H199  H     H_    0.729554 0.461062 0.216673 0.262265
H200  H     H_    0.793412 0.531792 0.234853 0.282205
H201  H     H_    0.700708 0.539028 0.259762 0.276080
H202  H     H_    0.630198 0.558067 0.575139 0.281197
H203  H     H_    0.448325 0.362316 0.341414 0.152976
H204  H     H_    0.366838 0.330299 0.307493 0.139447
H205  H     H_    0.506205 0.240036 0.324660 0.269453
H206  H     H_    0.425331 0.210320 0.287290 0.216754
H207  H     H_    0.439764 0.308537 0.211413 0.267503
H208  H     H_    0.518022 0.250461 0.214413 0.288307
H209  H     H_    0.521593 0.338807 0.248637 0.261348
H210  H     H_    0.104999 0.050140 0.936094 0.133826
H211  H     H_    0.128561 0.130775 0.974243 0.168517
H212  H     H_    0.216973 0.988893 0.978042 0.291006
H213  H     H_    0.669542 0.469063 0.572154 0.276450
H214  H     H_    0.236066 0.068607 0.019930 0.213600
H215  H     H_    0.128006 0.059190 0.078308 0.281251
H216  H     H_    0.171709 0.972153 0.078206 0.275120
H217  H     H_    0.093194 0.986758 0.031967 0.269076
H218  H     H_    0.959977 0.102341 0.929919 0.126735
H219  H     H_    0.879521 0.118568 0.970453 0.179055
H220  H     H_    0.020336 0.209303 0.974387 0.281386
H221  H     H_    0.940231 0.234179 0.013188 0.232426
H222  H     H_    0.941866 0.127782 0.075007 0.283979
H223  H     H_    0.030914 0.168098 0.076375 0.276988
H224  H     H_    0.591498 0.489470 0.526800 0.270022
H225  H     H_    0.014277 0.088497 0.031603 0.272286
H226  H     H_    0.894095 0.945363 0.932255 0.133363
H227  H     H_    0.867870 0.867217 0.972781 0.167721
H228  H     H_    0.784762 0.011971 0.972626 0.291374
H229  H     H_    0.762543 0.934554 0.016268 0.215618
H230  H     H_    0.869803 0.941932 0.075138 0.281197
H231  H     H_    0.830458 0.030936 0.072153 0.276450
H232  H     H_    0.908501 0.010530 0.026799 0.270021
H233  H     H_    0.035423 0.897541 0.934812 0.122191
H234  H     H_    0.116263 0.881032 0.974750 0.178423
H235  H     H_    0.464578 0.602462 0.434814 0.122192
H236  H     H_    0.974671 0.791772 0.978718 0.274510
H237  H     H_    0.055609 0.762952 0.014708 0.235723
H238  H     H_    0.058891 0.866734 0.079803 0.282467
H239  H     H_    0.968939 0.828365 0.082365 0.277550
H240  H     H_    0.985908 0.909496 0.039599 0.274119
H241  H     H_    0.848301 0.047243 0.832156 0.161586
H242  H     H_    0.810725 0.129422 0.804107 0.138591
H243  H     H_    0.716931 0.998185 0.842350 0.281197
H244  H     H_    0.688550 0.075204 0.799430 0.206353
H245  H     H_    0.770457 0.038947 0.716670 0.262265
H246  H     H_    0.383737 0.618971 0.474751 0.178418
H247  H     H_    0.706602 0.968214 0.734845 0.282207
H248  H     H_    0.799305 0.960978 0.759755 0.276079
H249  H     H_    0.051675 0.137688 0.841414 0.152978
H250  H     H_    0.133162 0.169706 0.807492 0.139437
H251  H     H_    0.993795 0.259970 0.824663 0.269454
H252  H     H_    0.074668 0.289684 0.787290 0.216751
H253  H     H_    0.060230 0.191467 0.711414 0.267502
H254  H     H_    0.981974 0.249545 0.714416 0.288305
H255  H     H_    0.978403 0.161199 0.748641 0.261348
H256  H     H_    0.135640 0.953227 0.840531 0.157164
N1    N     N_3   0.790438 0.673784 0.354028 -0.465258
N2    N     N_3   0.829266 0.287154 0.864106 -0.471268
N3    N     N_3   0.709562 0.826216 0.854027 -0.465257
N4    N     N_3   0.168076 0.716091 0.865710 -0.477657
N5    N     N_3   0.708803 0.198514 0.863505 -0.498014
N6    N     N_3   0.198437 0.290414 0.852569 -0.487063
N7    N     N_3   0.285454 0.807572 0.863803 -0.499966
N8    N     N_3   0.801339 0.706835 0.850775 -0.489234
N9    N     N_3   0.331926 0.783909 0.365708 -0.477630
N10   N     N_3   0.211548 0.329780 0.356204 -0.465241
N11   N     N_3   0.670734 0.212846 0.364106 -0.471269
N12   N     N_3   0.214551 0.692427 0.363798 -0.499949
N13   N     N_3   0.698660 0.793165 0.350776 -0.489234
N14   N     N_3   0.791198 0.301485 0.363505 -0.498016
N15   N     N_3   0.301563 0.209590 0.352569 -0.487061
N16   N     N_3   0.288452 0.170223 0.856203 -0.465239
O1    O     O_3   0.500000 0.000000 0.500000 -0.489704
O2    O     O_R   0.560750 0.000000 0.867980 -0.659710
O3    O     O_R   0.000000 0.560750 0.867980 -0.652091
O4    O     O_R   0.439250 0.000000 0.867980 -0.654643
O5    O     O_R   0.560720 0.000000 0.632020 -0.646856
O6    O     O_R   0.000000 0.560720 0.632020 -0.639585
O7    O     O_R   0.439280 0.000000 0.632020 -0.644902
O8    O     O_R   1.000000 0.439280 0.632020 -0.640091
O9    O     O_R   0.060720 0.500000 0.132020 -0.644902
O10   O     O_R   0.500000 0.060720 0.132020 -0.640090
O11   O     O_R   0.939280 0.500000 0.132020 -0.646858
O12   O     O_3   1.000000 0.500000 0.500000 -0.491133
O13   O     O_R   0.500000 0.939280 0.132020 -0.639586
O14   O     O_R   0.585450 0.146130 0.465380 -0.650286
O15   O     O_R   0.853870 0.585450 0.465380 -0.652169
O16   O     O_R   0.414550 0.853870 0.465380 -0.651112
O17   O     O_R   0.146130 0.414550 0.465380 -0.647831
O18   O     O_R   0.414550 0.146130 0.465380 -0.625167
O19   O     O_R   0.146130 0.585450 0.465380 -0.639591
O20   O     O_R   0.585450 0.853870 0.465380 -0.624367
O21   O     O_R   0.853870 0.414550 0.465380 -0.633421
O22   O     O_R   0.085450 0.646130 0.965380 -0.651115
O23   O     O_3   1.000000 0.500000 0.000000 -0.489703
O24   O     O_R   0.353870 0.085450 0.965380 -0.647838
O25   O     O_R   0.914550 0.353870 0.965380 -0.650285
O26   O     O_R   0.646130 0.914550 0.965380 -0.652166
O27   O     O_R   0.914550 0.646130 0.965380 -0.624365
O28   O     O_R   0.646130 0.085450 0.965380 -0.633420
O29   O     O_R   0.085450 0.353870 0.965380 -0.625165
O30   O     O_R   0.353870 0.914550 0.965380 -0.639591
O31   O     O_R   0.353850 0.914510 0.534610 -0.624629
O32   O     O_R   0.085490 0.353850 0.534610 -0.622374
O33   O     O_R   0.646150 0.085490 0.534610 -0.619879
O34   O     O_3   0.500000 0.000000 0.000000 -0.491131
O35   O     O_R   0.914510 0.646150 0.534610 -0.618790
O36   O     O_R   0.646150 0.914510 0.534610 -0.636032
O37   O     O_R   0.914510 0.353850 0.534610 -0.618119
O38   O     O_R   0.353850 0.085490 0.534610 -0.632211
O39   O     O_R   0.085490 0.646150 0.534610 -0.603894
O40   O     O_R   0.853850 0.414510 0.034610 -0.619880
O41   O     O_R   0.585490 0.853850 0.034610 -0.618799
O42   O     O_R   0.146150 0.585490 0.034610 -0.624626
O43   O     O_R   0.414510 0.146150 0.034610 -0.622371
O44   O     O_R   0.146150 0.414510 0.034610 -0.632213
O45   O     O_R   0.500000 0.939250 0.367980 -0.652092
O46   O     O_R   0.414510 0.853850 0.034610 -0.603896
O47   O     O_R   0.853850 0.585490 0.034610 -0.636038
O48   O     O_R   0.585490 0.146150 0.034610 -0.618116
O49   O     O_3   0.699343 0.600142 0.399749 -0.643120
O50   O     O_3   0.409144 0.690991 0.403730 -0.640685
O51   O     O_3   0.303328 0.402446 0.402205 -0.643464
O52   O     O_3   0.595278 0.308498 0.399985 -0.640393
O53   O     O_3   0.292532 0.596022 0.396558 -0.652006
O54   O     O_3   0.603915 0.718494 0.391195 -0.646970
O55   O     O_3   0.714147 0.400487 0.393559 -0.653928
O56   O     O_R   0.060750 0.500000 0.367980 -0.654633
O57   O     O_3   0.397609 0.283927 0.391030 -0.647365
O58   O     O_3   0.196672 0.097557 0.902205 -0.643470
O59   O     O_3   0.904723 0.191503 0.899985 -0.640394
O60   O     O_3   0.800657 0.899857 0.899749 -0.643120
O61   O     O_3   0.090859 0.809012 0.903728 -0.640681
O62   O     O_3   0.785854 0.099513 0.893559 -0.653927
O63   O     O_3   0.102391 0.216076 0.891030 -0.647365
O64   O     O_3   0.207474 0.903979 0.896561 -0.652009
O65   O     O_3   0.896084 0.781506 0.891195 -0.646974
O66   O     O_3   0.734346 0.839231 0.603212 -0.634943
O67   O     O_R   0.500000 0.060750 0.367980 -0.650080
O68   O     O_3   0.120000 0.778005 0.560315 -0.602571
O69   O     O_3   0.252381 0.148350 0.595592 -0.627617
O70   O     O_3   0.871601 0.229829 0.574908 -0.609021
O71   O     O_3   0.236757 0.864516 0.582542 -0.621531
O72   O     O_3   0.832496 0.726709 0.606420 -0.639420
O73   O     O_3   0.752424 0.144800 0.592535 -0.622777
O74   O     O_3   0.157177 0.261245 0.601667 -0.630164
O75   O     O_3   0.247623 0.351653 0.095590 -0.627614
O76   O     O_3   0.628399 0.270171 0.074908 -0.609020
O77   O     O_3   0.765657 0.660771 0.103213 -0.634947
O78   O     O_R   0.939250 0.500000 0.367980 -0.659715
O79   O     O_3   0.379982 0.722011 0.060345 -0.602556
O80   O     O_3   0.747576 0.355199 0.092535 -0.622780
O81   O     O_3   0.342825 0.238757 0.101666 -0.630159
O82   O     O_3   0.263218 0.635506 0.082569 -0.621535
O83   O     O_3   0.667503 0.773290 0.106420 -0.639421
O84   O     O_R   0.000000 0.439250 0.867980 -0.650081
Zn1   Zn    Zn3+2 0.586760 1.000000 0.549450 0.954816
Zn2   Zn    Zn3+2 0.913280 0.500000 0.450540 0.933207
Zn3   Zn    Zn3+2 0.500000 0.913280 0.450540 0.948141
Zn4   Zn    Zn3+2 0.086720 0.500000 0.450540 0.935839
Zn5   Zn    Zn3+2 0.000000 0.586720 0.950540 0.948139
Zn6   Zn    Zn3+2 0.413280 0.000000 0.950540 0.935828
Zn7   Zn    Zn3+2 1.000000 0.413280 0.950540 0.948435
Zn8   Zn    Zn3+2 0.586720 0.000000 0.950540 0.933213
Zn9   Zn    Zn3+2 1.000000 0.586760 0.549450 0.967703
Zn10  Zn    Zn3+2 0.413240 1.000000 0.549450 0.953810
Zn11  Zn    Zn3+2 0.000000 0.413240 0.549450 0.961240
Zn12  Zn    Zn3+2 0.086760 0.500000 0.049450 0.953808
Zn13  Zn    Zn3+2 0.500000 0.086760 0.049450 0.961242
Zn14  Zn    Zn3+2 0.913240 0.500000 0.049450 0.954812
Zn15  Zn    Zn3+2 0.500000 0.913240 0.049450 0.967695
Zn16  Zn    Zn3+2 0.500000 0.086720 0.450540 0.948436

loop_
_geom_bond_atom_site_label_1
_geom_bond_atom_site_label_2
_ccdc_geom_bond_type
C150  O70   S    
C173  O49   S    
C44   H253  S    
C132  C150  A    
C186  O62   S    
C127  O2    A    
C19   C20   S    
C133  C151  A    
C32   H227  S    
C98   H161  S    
C3    H235  S    
C181  C187  S    
C51   H14   S    
C107  O47   A    
C77   H111  S    
O34   Zn8   S    
H45   N6    S    
C2    C134  S    
H39   N3    S    
C72   H99   S    
C115  C174  S    
C59   O69   S    
C101  O25   A    
C184  O60   S    
C79   O42   A    
C128  C145  A    
C8    H101  S    
O18   Zn16  S    
O19   Zn4   S    
O27   Zn5   S    
C107  C140  S    
C189  O65   S    
C35   O38   A    
H48   N7    S    
C87   H134  S    
C88   H138  S    
C176  C179  S    
C99   H164  S    
C175  N10   S    
C54   H59   S    
C58   H64   S    
C68   O37   A    
C90   O43   A    
C105  O78   A    
O6    Zn9   S    
O5    Zn1   S    
O37   Zn11  S    
C59   C60   S    
H33   N15   S    
C65   H84   S    
C60   H71   S    
C179  O55   S    
C43   H252  S    
O23   Zn12  S    
H25   N11   S    
C32   O60   S    
C45   C47   S    
C155  O75   S    
C26   H211  S    
C78   O75   S    
C5    H46   S    
C48   H7    S    
C191  C192  S    
C84   H127  S    
C120  C125  A    
C4    C5    S    
C123  C126  A    
C72   O73   S    
C62   O70   S    
C34   H230  S    
C8    H113  S    
C83   H125  S    
C163  O83   S    
C175  O51   S    
C29   H218  S    
C26   O58   S    
C30   H221  S    
C4    H2    S    
C43   C44   S    
C108  O28   A    
C109  O44   A    
C37   C38   S    
C15   H186  S    
C80   H118  S    
C35   O18   A    
C94   H152  S    
C77   H114  S    
C192  H213  S    
O34   Zn13  S    
C123  C141  A    
C105  C164  S    
C174  C177  S    
C36   H233  S    
C6    C7    S    
C124  C183  S    
C16   H187  S    
C44   H255  S    
C93   H149  S    
C22   H204  S    
C122  C189  S    
O24   Zn6   S    
C117  C173  S    
O34   Zn6   S    
C11   H178  S    
C177  O53   S    
C149  O6    A    
C10   H157  S    
C13   C133  S    
C63   H78   S    
C126  C185  S    
C119  C136  A    
C72   C73   S    
C36   O61   S    
C103  H172  S    
C64   H81   S    
O17   Zn4   S    
C2    O35   A    
C147  O68   S    
C39   O62   S    
C185  O61   S    
C16   O54   S    
C42   H250  S    
C75   H106  S    
C187  O63   S    
C108  O48   A    
O23   Zn7   S    
C190  O49   S    
C41   H245  S    
C25   H207  S    
O22   Zn5   S    
C7    H79   S    
C39   H241  S    
H29   N13   S    
C73   H100  S    
C19   H195  S    
C69   C70   S    
C5    H35   S    
C33   H228  S    
C88   C89   S    
C98   C99   S    
C88   O79   S    
C22   C23   S    
C176  O52   S    
O84   Zn7   S    
O56   Zn4   S    
C188  N7    S    
C143  C161  A    
C100  H167  S    
C190  C191  S    
C56   H62   S    
C40   H243  S    
C164  C170  T    
C67   H89   S    
C100  H166  S    
C7    C8    S    
C167  C169  T    
C85   C86   S    
C58   H66   S    
C149  C169  S    
C189  N8    S    
C36   C37   S    
C28   H216  S    
O33   Zn1   S    
C29   O59   S    
C78   C80   S    
C94   H150  S    
C185  N4    S    
C78   H115  S    
C89   H140  S    
C68   O21   A    
C137  C155  A    
C138  C168  S    
H43   N5    S    
C72   H98   S    
C85   H131  S    
H42   N4    S    
C64   H80   S    
C81   H120  S    
C62   H76   S    
C99   C100  S    
C162  O82   S    
C109  O29   A    
C89   C91   S    
C106  O26   A    
C9    C10   S    
O23   Zn14  S    
C192  H224  S    
C10   H168  S    
C66   C67   S    
H49   N7    S    
C149  O8    A    
C118  C176  S    
C166  C168  T    
C71   H96   S    
C22   O57   S    
C17   H189  S    
C38   H239  S    
C2    O15   A    
C111  C129  A    
C102  H170  S    
C49   H9    S    
C31   H222  S    
C60   H70   S    
C97   H158  S    
C183  C186  S    
C39   C40   S    
O23   Zn5   S    
C41   H247  S    
C25   H209  S    
O48   Zn13  S    
C145  C163  A    
C55   H61   S    
C48   H6    S    
C73   H102  S    
C110  C141  S    
C147  C151  A    
C29   C30   S    
C101  C142  S    
C83   C84   S    
C82   H123  S    
O43   Zn13  S    
C70   H93   S    
C82   O76   S    
O32   Zn11  S    
C17   C18   S    
C92   H145  S    
O46   Zn15  S    
C20   C21   S    
C55   O68   S    
O30   Zn6   S    
C106  O41   A    
C95   H153  S    
H40   N3    S    
C46   O39   A    
C82   C83   S    
C104  H173  S    
C67   H87   S    
C3    C4    S    
C178  N13   S    
C183  O59   S    
C52   C53   S    
C70   H94   S    
O7    Zn10  S    
C151  O71   S    
O25   Zn7   S    
C44   H254  S    
C130  C147  A    
C59   H69   S    
C90   C143  S    
C98   H162  S    
C65   O71   S    
C108  C139  S    
C23   H206  S    
C77   H110  S    
H28   N13   S    
C20   H197  S    
C116  O3    A    
C21   H200  S    
C24   O32   A    
C84   H129  S    
H19   N9    S    
C121  C139  A    
C91   H144  S    
C63   H77   S    
O10   Zn13  S    
C122  C140  A    
C173  C178  S    
C125  C143  A    
C191  H180  S    
C126  C144  A    
C56   C58   S    
C75   H107  S    
C102  C103  S    
O2    Zn8   S    
C61   H74   S    
C10   C11   S    
C153  O73   S    
C63   C64   S    
C49   C50   S    
C45   H256  S    
C55   H60   S    
C47   H5    S    
C157  O77   S    
O9    Zn12  S    
C86   H132  S    
C69   O72   S    
H17   N1    S    
C116  O84   A    
C174  N9    S    
C8    H124  S    
C161  O81   S    
C55   C56   S    
O11   Zn14  S    
C79   O22   A    
C65   H83   S    
C96   H155  S    
C73   C74   S    
H22   N10   S    
C160  O9    A    
C97   H160  S    
C43   H251  S    
C142  C159  A    
C52   H53   S    
C4    H13   S    
H50   N8    S    
C50   H11   S    
C155  C161  A    
C26   C27   S    
C106  C145  S    
C48   H8    S    
H38   N2    S    
C74   H103  S    
C84   H128  S    
O4    Zn6   S    
C30   C31   S    
O36   Zn1   S    
C18   H194  S    
C69   H92   S    
C34   H231  S    
O15   Zn2   S    
O78   Zn2   S    
C66   H85   S    
C6    H68   S    
C123  C188  S    
C68   C132  S    
C107  O27   A    
C53   H54   S    
C92   H147  S    
C15   H185  S    
C190  H1    S    
C119  C175  S    
C11   H176  S    
C113  C119  A    
O47   Zn14  S    
O67   Zn16  S    
C87   H137  S    
C114  C132  A    
C16   C17   S    
C150  C153  A    
C104  H175  S    
C70   C71   S    
C54   H56   S    
C152  O72   S    
C36   H234  S    
C159  O80   S    
C16   H188  S    
C96   H156  S    
O39   Zn9   S    
C59   H67   S    
C148  C154  A    
H21   N10   S    
C110  O46   A    
C117  C134  A    
O3    Zn5   S    
C76   H109  S    
C11   H177  S    
C3    H246  S    
C52   H52   S    
C125  C181  S    
C181  O58   S    
C47   H4    S    
C91   H142  S    
H37   N2    S    
O1    Zn16  S    
C9    O52   S    
C86   C87   S    
C27   H212  S    
C103  H171  S    
C115  C133  A    
C14   H182  S    
C53   C54   S    
C101  O40   A    
C37   H237  S    
C31   H223  S    
C32   C33   S    
C60   C61   S    
C31   H225  S    
C138  O5    A    
C46   C130  S    
C62   C63   S    
C136  C154  A    
H51   N8    S    
C21   H201  S    
C92   O80   S    
C134  C152  A    
C37   H236  S    
C180  O57   S    
C54   H58   S    
C186  N5    S    
C129  C146  A    
C175  C180  S    
C85   O77   S    
C81   H121  S    
C98   O82   S    
C160  O11   A    
C42   C43   S    
C120  C187  S    
C35   C131  S    
C183  N2    S    
C15   H184  S    
H23   N11   S    
C42   O63   S    
C26   H210  S    
C6    H57   S    
C18   H192  S    
C40   H244  S    
C57   O20   A    
C18   H193  S    
H41   N4    S    
C121  C186  S    
O12   Zn9   S    
C83   H126  S    
H30   N14   S    
C79   C144  S    
C111  C117  A    
C29   H219  S    
C12   H179  S    
C64   H82   S    
O1    Zn10  S    
H27   N12   S    
C30   H220  S    
C49   O65   S    
C192  H202  S    
C80   H117  S    
C188  O64   S    
C176  N11   S    
C94   H151  S    
C127  C166  S    
C78   H116  S    
C92   C93   S    
C51   H15   S    
C122  C128  A    
C158  O79   S    
C85   H130  S    
C179  N14   S    
C154  O74   S    
C81   H119  S    
O12   Zn2   S    
C141  C158  A    
C113  C180  S    
O38   Zn10  S    
C114  C179  S    
C103  C104  S    
O1    Zn1   S    
C102  O83   S    
C52   O66   S    
C120  C137  A    
C22   H203  S    
C118  C135  A    
O29   Zn7   S    
C112  C177  S    
C45   H3    S    
C171  C172  S    
C93   C94   S    
C71   H95   S    
C38   H240  S    
C95   C96   S    
C128  C184  S    
C75   C76   S    
C90   O24   A    
C39   H242  S    
H31   N14   S    
C53   H55   S    
O13   Zn15  S    
C177  N12   S    
O41   Zn15  S    
C62   H75   S    
O14   Zn16  S    
H34   N16   S    
O8    Zn11  S    
O20   Zn3   S    
C42   H249  S    
C57   C129  S    
O45   Zn3   S    
C27   H214  S    
H26   N12   S    
O28   Zn8   S    
C88   H139  S    
C28   H217  S    
O42   Zn12  S    
C25   H208  S    
C13   O16   A    
C24   O17   A    
C182  O33   A    
C173  N1    S    
C109  C137  S    
C19   H196  S    
H32   N15   S    
C33   H229  S    
C121  C124  A    
C174  O50   S    
C111  C178  S    
C110  O30   A    
C116  C167  S    
O44   Zn12  S    
C3    O50   S    
C157  C163  A    
C165  C172  T    
C146  O66   S    
C190  H112  S    
O35   Zn9   S    
C104  H174  S    
C124  C142  A    
C105  O56   A    
C100  H165  S    
C6    O51   S    
C50   C51   S    
C12   O53   S    
C95   O81   S    
O12   Zn11  S    
C138  O7    A    
C191  H191  S    
C1    O67   A    
C171  O10   A    
C58   H65   S    
C12   H181  S    
C127  O4    A    
C76   C77   S    
C28   H215  S    
C14   H183  S    
C76   H108  S    
C51   H16   S    
C23   H205  S    
C185  C188  S    
C20   H198  S    
C5    H24   S    
C21   H199  S    
C89   H141  S    
C45   O64   S    
C91   H143  S    
C140  C157  A    
O31   Zn10  S    
O12   Zn4   S    
C47   C48   S    
C1    C165  S    
C96   C97   S    
C181  N16   S    
C33   C34   S    
O1    Zn3   S    
O16   Zn3   S    
C131  C148  A    
C13   O31   A    
C75   O74   S    
C61   H73   S    
C114  C118  A    
C7    H90   S    
C87   H136  S    
C146  C152  A    
C40   C41   S    
C12   C14   S    
H36   N16   S    
C65   C66   S    
C57   O36   A    
C17   H190  S    
C38   H238  S    
C86   H133  S    
C184  N3    S    
H44   N5    S    
C148  O69   S    
C102  H169  S    
C19   O55   S    
O40   Zn14  S    
C49   H10   S    
C113  C131  A    
C144  C162  A    
C14   C15   S    
O26   Zn8   S    
C156  C159  A    
C99   H163  S    
C97   H159  S    
C61   H72   S    
C80   C81   S    
H18   N1    S    
C32   H226  S    
H20   N9    S    
C46   O19   A    
C41   H248  S    
C50   H12   S    
C180  N15   S    
C135  C153  A    
C9    H146  S    
C112  C130  A    
C74   H104  S    
C24   C136  S    
C69   H91   S    
C139  C156  A    
C82   H122  S    
C34   H232  S    
C171  O13   A    
C1    O45   A    
C66   H86   S    
C23   C25   S    
H47   N6    S    
O21   Zn2   S    
C182  O14   A    
C158  C162  A    
C187  N6    S    
C93   H148  S    
C95   H154  S    
O34   Zn15  S    
C178  O54   S    
C56   H63   S    
C27   C28   S    
C156  O76   S    
C160  C170  S    
C184  C189  S    
C74   H105  S    
C71   H97   S    
C135  C182  S    
C67   H88   S    
C112  C115  A    
C9    H135  S    
