data_mof_unit_36268.cif
_audit_creation_date              2012-12-10T20:52:09-0500
_audit_creation_method            fapswitch 2.2
_symmetry_space_group_name_H-M    P1
_symmetry_Int_Tables_number       1
_space_group_crystal_system       triclinic
_cell_length_a                    10.904599
_cell_length_b                    8.906254
_cell_length_c                    8.345194
_cell_angle_alpha                 90.349835
_cell_angle_beta                  93.932141
_cell_angle_gamma                 90.740175
_cell_volume                      808.482749874

loop_
_atom_site_label
_atom_site_type_symbol
_atom_type_description
_atom_site_fract_x
_atom_site_fract_y
_atom_site_fract_z
_atom_type_partial_charge
C1    C     C_R   0.499864 0.219036 0.499661 0.924189
C2    C     C_R   0.739966 0.492548 0.504340 0.870631
C3    C     C_R   0.214850 0.534655 0.008242 0.033951
C4    C     C_R   0.808085 0.312913 0.950187 -0.003681
C5    C     C_R   0.136193 0.548859 0.130310 -0.052036
C6    C     C_R   0.886937 0.348701 0.832631 -0.085437
C7    C     C_R   0.093948 0.421114 0.204986 0.035739
C8    C     C_R   0.911476 0.499565 0.799125 0.029790
C9    C     C_R   0.104922 0.278865 0.137370 -0.120267
C10   C     C_R   0.874044 0.614659 0.896406 -0.098438
C11   C     C_R   0.172252 0.263151 0.002073 0.011175
C12   C     C_R   0.500170 0.780961 0.500346 0.944308
C13   C     C_R   0.797429 0.580550 0.017902 0.059362
C14   C     C_R   0.233596 0.389354 0.945283 -0.304853
C15   C     C_R   0.759801 0.429596 0.036964 -0.310325
C16   C     C_R   0.926402 0.422751 0.377966 -0.226771
C17   C     C_R   0.071829 0.556044 0.625539 -0.210810
C18   C     C_2   0.280727 0.671755 0.957958 0.398598
C19   C     C_2   0.770452 0.155691 0.978238 0.452588
C20   C     C_2   0.183222 0.115655 0.922863 0.457060
C21   C     C_2   0.752261 0.704179 0.115425 0.430602
C22   C     C_R   0.873210 0.481788 0.509697 -0.081599
C23   C     C_R   0.125463 0.506130 0.489177 -0.095750
C24   C     C_R   0.948684 0.532343 0.641042 0.025704
C25   C     C_R   0.050374 0.441173 0.362806 0.018431
C26   C     C_1   0.499991 0.065473 0.499559 -0.173719
C27   C     C_1   0.500100 0.934527 0.500469 -0.150350
C28   C     C_R   0.259502 0.503388 0.495263 0.856058
H1    H     H_    0.298921 0.368807 0.858651 0.191500
H2    H     H_    0.709791 0.129902 0.072548 0.077126
H3    H     H_    0.246704 0.101711 0.829333 0.053391
H4    H     H_    0.663616 0.696546 0.164434 0.127955
H5    H     H_    0.696629 0.396783 0.122196 0.178014
H6    H     H_    0.120498 0.658471 0.182112 0.188523
H7    H     H_    0.919624 0.261040 0.756107 0.166871
H8    H     H_    0.065887 0.181574 0.193556 0.179682
H9    H     H_    0.895250 0.730417 0.868200 0.206505
H10   H     H_    0.871719 0.362089 0.287417 0.156484
H11   H     H_    0.126406 0.603589 0.724798 0.151873
H12   H     H_    0.323240 0.676628 0.845528 0.120817
N1    N     N_1   0.500020 0.500030 0.073640 -0.091957
N2    N     N_1   0.499980 0.499970 0.926360 -0.096574
O1    O     O_R   0.499990 0.285340 0.636850 -0.621989
O2    O     O_2   0.806041 0.053269 0.896001 -0.533763
O3    O     O_2   0.119260 0.008968 0.958253 -0.516634
O4    O     O_2   0.814407 0.817804 0.141577 -0.553087
O5    O     O_R   0.500010 0.714660 0.363150 -0.603348
O6    O     O_R   0.500010 0.285350 0.363100 -0.618371
O7    O     O_R   0.499990 0.714650 0.636900 -0.624179
O8    O     O_R   0.316750 0.500000 0.636870 -0.684252
O9    O     O_R   0.683250 0.500000 0.363130 -0.679624
O10   O     O_R   0.316770 0.500020 0.363120 -0.590747
O11   O     O_R   0.683230 0.499980 0.636880 -0.597691
O12   O     O_2   0.290901 0.782284 0.045412 -0.543189
Zn1   Zn    Zn3+2 0.499990 0.499990 0.682780 0.951318
Zn2   Zn    Zn3+2 0.500010 0.500010 0.317220 0.971197

loop_
_geom_bond_atom_site_label_1
_geom_bond_atom_site_label_2
_ccdc_geom_bond_type
C2    C22   S    
C9    H8    S    
C6    C8    A    
N1    Zn2   S    
C10   H9    S    
N2    Zn1   S    
C9    C11   A    
N1    N2    T    
O8    Zn1   S    
C7    C25   S    
C5    H6    S    
C4    C15   A    
C13   C15   A    
C12   O7    A    
C13   C21   S    
C19   H2    S    
C1    O6    A    
C23   C28   S    
C6    H7    S    
C28   O10   A    
C26   C27   T    
C17   C23   A    
C3    C14   A    
O10   Zn2   S    
C12   O5    A    
O1    Zn1   S    
C11   C14   A    
C15   H5    S    
C21   O4    D    
O11   Zn1   S    
C1    C26   S    
C20   H3    S    
C21   H4    S    
C22   C24   A    
C11   C20   S    
C17   C24   A    
C2    O9    A    
C18   O12   D    
C14   H1    S    
C4    C6    A    
C2    O11   A    
C7    C9    A    
C23   C25   A    
C19   O2    D    
C3    C18   S    
C5    C7    A    
O9    Zn2   S    
C17   H11   S    
C16   C25   A    
O6    Zn2   S    
C18   H12   S    
C16   C22   A    
C12   C27   S    
C8    C24   S    
O7    Zn1   S    
C4    C19   S    
C28   O8    A    
C1    O1    A    
C8    C10   A    
C20   O3    D    
C16   H10   S    
O5    Zn2   S    
C3    C5    A    
C10   C13   A    
