data_mof_unit_46286.cif
_audit_creation_date              2012-12-10T18:14:35-0500
_audit_creation_method            fapswitch 2.2
_symmetry_space_group_name_H-M    P1
_symmetry_Int_Tables_number       1
_space_group_crystal_system       triclinic
_cell_length_a                    11.34825
_cell_length_b                    9.90647
_cell_length_c                    27.898795
_cell_angle_alpha                 91.325462
_cell_angle_beta                  91.80554
_cell_angle_gamma                 88.453564
_cell_volume                      3132.93491267

loop_
_atom_site_label
_atom_site_type_symbol
_atom_type_description
_atom_site_fract_x
_atom_site_fract_y
_atom_site_fract_z
_atom_type_partial_charge
C1    C     C_R   0.262107 0.501877 0.498847 0.796890
C2    C     C_R   0.374177 0.499547 0.277322 0.485010
C3    C     C_R   0.475885 0.520948 0.251685 0.204409
C4    C     C_R   0.469777 0.512892 0.100072 -0.125017
C5    C     C_R   0.393918 0.603663 0.124636 -0.144319
C6    C     C_R   0.313507 0.685885 0.097847 0.528265
C7    C     C_R   0.545661 0.424585 0.125944 -0.003958
C8    C     C_R   0.491578 0.502449 0.353482 -0.114465
C9    C     C_R   0.493506 0.502714 0.645363 -0.342231
C10   C     C_R   0.371009 0.555174 0.972624 -0.035028
C11   C     C_R   0.574907 0.462036 0.975830 0.018798
C12   C     C_R   0.500377 0.499527 0.407702 0.788704
C13   C     C_R   0.473465 0.507598 0.948976 0.021028
C14   C     C_R   0.263486 0.570217 0.945090 0.053226
C15   C     C_R   0.262910 0.550333 0.894961 0.516167
C16   C     C_R   0.370029 0.528072 0.871003 -0.200351
C17   C     C_R   0.475145 0.506984 0.898375 -0.127511
C18   C     C_R   0.582497 0.485491 0.875204 -0.053370
C19   C     C_R   0.584749 0.494256 0.825201 0.606397
C20   C     C_R   0.375359 0.522288 0.820402 0.657246
C21   C     C_R   0.440013 0.616189 0.720579 0.388550
C22   C     C_R   0.427104 0.602524 0.670226 0.282946
C23   C     C_R   0.740998 0.499261 0.503640 0.720560
C24   C     C_R   0.551823 0.400781 0.672458 0.345011
C25   C     C_R   0.535811 0.394709 0.722231 0.038683
C26   C     C_R   0.485893 0.506454 0.746862 0.127075
C27   C     C_R   0.381038 0.579746 0.022994 -0.001910
C28   C     C_R   0.470746 0.510802 0.049437 0.090112
C29   C     C_R   0.562253 0.440476 0.025478 0.055101
C30   C     C_R   0.308594 0.673691 0.047619 -0.313437
C31   C     C_R   0.624583 0.339132 0.101203 -0.139678
C32   C     C_R   0.683847 0.444971 0.951927 0.131520
C33   C     C_R   0.685954 0.458922 0.902346 -0.119317
C34   C     C_R   0.498011 0.501119 0.591984 0.843027
C35   C     C_R   0.634228 0.348689 0.051731 -0.232296
C36   C     C_3   0.076846 0.625188 0.529701 -0.520483
C37   C     C_3   0.090046 0.380590 0.524731 -0.500440
C38   C     C_3   0.937873 0.633278 0.530851 0.334736
C39   C     C_3   0.954674 0.375572 0.530157 0.336065
C40   C     C_3   0.067524 0.503412 0.446787 0.335963
C41   C     C_3   0.125922 0.504657 0.498904 0.028482
C42   C     C_3   0.884348 0.501523 0.503598 0.091337
C43   C     C_3   0.924698 0.504200 0.448735 0.182472
C44   C     C_3   0.622025 0.084378 0.509330 0.456722
C45   C     C_3   0.623833 0.916759 0.507406 0.453361
C46   C     C_3   0.434277 0.086824 0.543365 0.313584
C47   C     C_3   0.424135 0.922920 0.539502 0.204990
C48   C     C_3   0.431081 0.080916 0.456744 0.731392
C49   C     C_3   0.447938 0.910144 0.452773 0.799257
C50   C     C_R   0.403232 0.610511 0.175208 0.631526
C51   C     C_R   0.539847 0.423062 0.175995 0.599175
C52   C     C_R   0.582668 0.543813 0.276478 0.095958
C53   C     C_R   0.590994 0.531215 0.326801 0.063028
C54   C     C_R   0.381618 0.492198 0.327937 -0.096218
Cu1   Cu    Cu3+1 0.499860 0.642410 0.500020 1.047311
Cu2   Cu    Cu3+1 0.499860 0.357590 0.500020 1.077963
H1    H     H_    0.681449 0.267163 0.120086 0.181420
H2    H     H_    0.770059 0.448091 0.885082 0.188961
H3    H     H_    0.694391 0.279076 0.034205 0.149527
H4    H     H_    0.112683 0.720279 0.516892 0.206913
H5    H     H_    0.125929 0.288317 0.507378 0.239152
H6    H     H_    0.112599 0.614149 0.566753 0.167040
H7    H     H_    0.137493 0.379880 0.560120 0.156490
H8    H     H_    0.483451 0.105604 0.577461 0.126357
H9    H     H_    0.452303 0.878861 0.573764 0.118532
H10   H     H_    0.251812 0.743856 0.028301 0.166597
N1    N     N_R   0.471737 0.517528 0.199852 -0.425429
N2    N     N_R   0.481859 0.508375 0.798598 -0.410950
N3    N     N_3   0.500250 0.143650 0.501060 -0.265319
N4    N     N_3   0.500250 0.856350 0.501060 -0.284189
O1    O     O_R   0.317570 0.620260 0.500030 -0.504226
O2    O     O_R   0.317570 0.379740 0.500030 -0.509776
O3    O     O_R   0.499900 0.620250 0.430280 -0.518612
O4    O     O_R   0.499900 0.379750 0.430280 -0.537527
O5    O     O_R   0.682190 0.620260 0.500010 -0.555055
O6    O     O_R   0.682190 0.379740 0.500010 -0.499340
O7    O     O_R   0.499860 0.620280 0.569750 -0.576669
O8    O     O_R   0.499860 0.379720 0.569750 -0.518728
O9    O     O_2   0.346627 0.710449 0.199538 -0.508348
O10   O     O_2   0.275368 0.530219 0.793070 -0.495478
O11   O     O_2   0.602777 0.328750 0.200737 -0.549745
O12   O     O_2   0.689195 0.488945 0.803270 -0.566653
N5    N     N_3   0.274742 0.476014 0.352126 -0.621745
H11   H     H_    0.241572 0.383284 0.340340 0.236369
H12   H     H_    0.289778 0.475177 0.389057 0.246851
N6    N     N_3   0.682584 0.580826 0.249770 -0.568984
H13   H     H_    0.710822 0.675247 0.262188 0.206099
H14   H     H_    0.750860 0.509297 0.254961 0.236673
N7    N     N_3   0.796311 0.435328 0.976808 -0.600665
H15   H     H_    0.794983 0.488691 0.009546 0.236233
H16   H     H_    0.820117 0.333859 0.981516 0.213101
O13   O     O_3   0.630357 0.310951 0.651433 -0.544665
C55   C     C_3   0.743685 0.365447 0.657989 -0.293465
H17   H     H_    0.810760 0.283110 0.654485 0.170284
H18   H     H_    0.760707 0.411725 0.694302 0.165350
H19   H     H_    0.756322 0.442716 0.630586 0.191709
N8    N     N_3   0.572315 0.276303 0.748016 -0.545218
H20   H     H_    0.528638 0.193894 0.732415 0.213503
H21   H     H_    0.662792 0.259153 0.744225 0.258921
N9    N     N_3   0.900198 0.639691 0.580920 -0.623268
H22   H     H_    0.935752 0.722596 0.599661 0.200094
H23   H     H_    0.808521 0.646969 0.582011 0.257972
N10   N     N_3   0.935942 0.375422 0.582470 -0.607587
H24   H     H_    0.972068 0.285576 0.596403 0.168352
H25   H     H_    0.989236 0.442974 0.601717 0.233906
O14   O     O_3   0.269933 0.473020 0.251760 -0.574265
C56   C     C_3   0.181608 0.572647 0.261632 -0.199204
H26   H     H_    0.215936 0.669026 0.277362 0.166063
H27   H     H_    0.116223 0.531530 0.285799 0.152351
H28   H     H_    0.133762 0.597353 0.227552 0.177841
N11   N     N_3   0.898600 0.760647 0.509659 -0.522728
H29   H     H_    0.948228 0.786857 0.480899 0.199550
H30   H     H_    0.916621 0.839553 0.534046 0.204609
N12   N     N_3   0.919272 0.245435 0.509810 -0.577641
H31   H     H_    0.944604 0.229807 0.474886 0.221219
H32   H     H_    0.967676 0.168669 0.527354 0.166477
N13   N     N_3   0.110976 0.621210 0.422359 -0.589932
H33   H     H_    0.088243 0.618569 0.385756 0.211536
H34   H     H_    0.079487 0.711844 0.436899 0.218220
N14   N     N_3   0.111760 0.384298 0.419841 -0.604785
H35   H     H_    0.071741 0.298244 0.429780 0.215252
H36   H     H_    0.085492 0.392661 0.383859 0.207673
N15   N     N_3   0.876050 0.625836 0.425567 -0.630970
H37   H     H_    0.898496 0.625540 0.389597 0.209089
H38   H     H_    0.785096 0.622532 0.425342 0.254331
N16   N     N_3   0.875240 0.387276 0.421743 -0.640173
H39   H     H_    0.896269 0.390378 0.385685 0.207156
H40   H     H_    0.783305 0.389596 0.421839 0.256947
O15   O     O_3   0.658913 0.137409 0.555176 -0.540621
C57   C     C_3   0.773202 0.107392 0.571850 -0.192400
H41   H     H_    0.825242 0.037423 0.549037 0.149222
H42   H     H_    0.774148 0.074040 0.609309 0.140806
H43   H     H_    0.810170 0.203429 0.576927 0.241867
O16   O     O_3   0.690982 0.851591 0.545474 -0.526721
C58   C     C_3   0.658794 0.862516 0.594217 -0.328314
H44   H     H_    0.613888 0.773614 0.605944 0.191564
H45   H     H_    0.609373 0.954846 0.604660 0.146759
H46   H     H_    0.740886 0.859622 0.616791 0.148150
N17   N     N_3   0.697035 0.142270 0.473235 -0.472598
H47   H     H_    0.782821 0.106151 0.475411 0.200660
H48   H     H_    0.668667 0.124635 0.438295 0.226411
N18   N     N_3   0.692286 0.883658 0.464537 -0.591665
H49   H     H_    0.686779 0.786060 0.451976 0.322106
H50   H     H_    0.780515 0.905217 0.467749 0.211198
O17   O     O_3   0.311102 0.133819 0.462261 -0.512575
C59   C     C_3   0.208974 0.062673 0.447801 -0.196092
H51   H     H_    0.190862 0.975291 0.469569 0.233399
H52   H     H_    0.198767 0.048961 0.408627 0.112700
H53   H     H_    0.131503 0.121667 0.458011 0.107291
O18   O     O_3   0.338077 0.844453 0.445606 -0.534644
C60   C     C_3   0.301368 0.815214 0.397310 -0.172788
H54   H     H_    0.330586 0.713147 0.386154 0.222626
H55   H     H_    0.327954 0.887536 0.371334 0.115613
H56   H     H_    0.204568 0.821571 0.394008 0.117289
O19   O     O_3   0.476724 0.136362 0.414859 -0.619076
C61   C     C_3   0.392746 0.178526 0.379172 -0.220529
H57   H     H_    0.330926 0.255132 0.393692 0.221725
H58   H     H_    0.342351 0.096065 0.362630 0.106653
H59   H     H_    0.440669 0.223601 0.349759 0.177782
O20   O     O_3   0.520632 0.854480 0.414793 -0.582735
C62   C     C_3   0.558465 0.918352 0.373223 -0.278774
H60   H     H_    0.626711 0.993043 0.380937 0.185158
H61   H     H_    0.488003 0.955605 0.348844 0.167878
H62   H     H_    0.604022 0.839568 0.351343 0.170814
O21   O     O_3   0.321062 0.151558 0.548540 -0.481797
C63   C     C_3   0.297034 0.197338 0.596080 -0.284469
H63   H     H_    0.313950 0.306340 0.600253 0.177503
H64   H     H_    0.346206 0.142289 0.625026 0.114413
H65   H     H_    0.201989 0.184412 0.602239 0.137943
O22   O     O_3   0.305014 0.886735 0.532203 -0.510081
C64   C     C_3   0.240366 0.892806 0.574724 -0.207140
H66   H     H_    0.287923 0.932293 0.607219 0.147992
H67   H     H_    0.216535 0.790468 0.582818 0.195090
H68   H     H_    0.157817 0.953245 0.568447 0.140780
O23   O     O_3   0.241682 0.781267 0.120335 -0.528212
C65   C     C_3   0.125689 0.733353 0.119919 -0.271865
H69   H     H_    0.122547 0.631744 0.136069 0.151959
H70   H     H_    0.086041 0.730806 0.082949 0.142513
H71   H     H_    0.070779 0.803709 0.141887 0.192308
O24   O     O_3   0.339755 0.676933 0.646648 -0.574487
C66   C     C_3   0.230212 0.618956 0.656304 -0.298038
H72   H     H_    0.157114 0.690703 0.646893 0.155487
H73   H     H_    0.219107 0.597871 0.694899 0.223747
H74   H     H_    0.218963 0.524211 0.634724 0.120762
O25   O     O_3   0.391078 0.726955 0.744565 -0.522346
C67   C     C_3   0.455802 0.842115 0.734636 -0.275095
H75   H     H_    0.443391 0.871287 0.696518 0.169154
H76   H     H_    0.551355 0.826516 0.743886 0.144331
H77   H     H_    0.422766 0.927926 0.757143 0.186852
O26   O     O_3   0.156628 0.561962 0.869446 -0.518671
C68   C     C_3   0.104501 0.434058 0.866843 -0.189589
H78   H     H_    0.080386 0.400175 0.902884 0.159769
H79   H     H_    0.163085 0.356640 0.849495 0.145375
H80   H     H_    0.022012 0.442001 0.844550 0.193858
N19   N     N_3   0.150586 0.585768 0.966774 -0.571341
H81   H     H_    0.128888 0.688185 0.971453 0.231298
H82   H     H_    0.148973 0.533935 0.998936 0.224485
N20   N     N_3   0.701750 0.547663 0.350735 -0.637959
H83   H     H_    0.761083 0.477844 0.335648 0.213780
H84   H     H_    0.729836 0.644525 0.343645 0.208152

loop_
_geom_bond_atom_site_label_1
_geom_bond_atom_site_label_2
_ccdc_geom_bond_type
C10   C27   A    
C58   H46   S    
C21   C26   A    
C33   H2    S    
Cu2   O6    S    
C46   O21   S    
C12   O4    A    
C11   C13   A    
N11   H29   S    
C48   N3    S    
Cu1   Cu2   S    
C50   O9    S    
C47   O22   S    
N12   H31   S    
C58   H44   S    
O21   C63   S    
C66   H72   S    
C52   C53   A    
C64   H67   S    
C45   O16   S    
C55   H17   S    
C23   C42   S    
C49   O18   S    
C53   N20   S    
C28   C29   A    
O15   C57   S    
N13   H34   S    
C34   O7    A    
C20   N2    A    
C5    C6    A    
Cu1   O7    S    
C3    C52   A    
N6    H14   S    
C9    C22   A    
N15   H38   S    
O14   C56   S    
C15   C16   A    
N8    H20   S    
Cu2   O8    S    
C35   H3    S    
C18   C19   A    
C60   H56   S    
C38   N11   S    
O13   C55   S    
C46   N3    S    
N8    H21   S    
C37   H7    S    
C40   C43   S    
O22   C64   S    
N5    H11   S    
C16   C17   A    
Cu2   O2    S    
C60   H54   S    
C6    O23   S    
C49   O20   S    
C65   H69   S    
N20   H83   S    
C25   N8    S    
N7    H16   S    
C19   O12   S    
C50   N1    A    
C51   O11   S    
C8    C12   S    
Cu1   O5    S    
C65   H70   S    
C40   N13   S    
C55   H18   S    
C21   C22   A    
C27   C30   A    
C63   H64   S    
C56   H27   S    
C36   C41   S    
C4    C7    A    
C36   H6    S    
C24   O13   S    
C43   N16   S    
C12   O3    A    
C54   N5    S    
C62   H61   S    
N14   H36   S    
O17   C59   S    
C39   C42   S    
C59   H52   S    
C65   H71   S    
C64   H68   S    
O19   C61   S    
C1    O2    A    
Cu2   O4    S    
C20   O10   S    
C68   H78   S    
N15   H37   S    
C7    C31   A    
C24   C25   A    
C14   N19   S    
N10   H25   S    
C10   C14   A    
C66   H73   S    
C8    C54   A    
N6    H13   S    
C44   O15   S    
C2    O14   S    
C32   C33   A    
C46   H8    S    
C57   H42   S    
C68   H79   S    
C47   N4    S    
C59   H53   S    
C37   H5    S    
C32   N7    S    
C16   C20   A    
C39   N12   S    
C48   O17   S    
N9    H23   S    
C17   C18   A    
C19   N2    A    
N11   H30   S    
C51   N1    A    
C39   N10   S    
C64   H66   S    
C30   H10   S    
C22   O24   S    
C40   C41   S    
N5    H12   S    
C15   O26   S    
C11   C32   A    
C44   N17   S    
C49   N4    S    
C2    C54   A    
C63   H63   S    
C56   H28   S    
N18   H50   S    
C5    C50   A    
C57   H43   S    
O26   C68   S    
C42   C43   S    
C56   H26   S    
C67   H76   S    
C36   C38   S    
C40   N14   S    
C43   N15   S    
N10   H24   S    
C62   H62   S    
O24   C66   S    
C59   H51   S    
C66   H74   S    
C1    C41   S    
C58   H45   S    
C46   C47   S    
C61   H57   S    
N16   H40   S    
C6    C30   A    
C45   N4    S    
C14   C15   A    
C48   O19   S    
C61   H59   S    
C3    N1    S    
C44   C45   S    
C23   O5    A    
C4    C5    A    
C36   H4    S    
C10   C13   A    
C8    C53   A    
N12   H32   S    
N17   H47   S    
C9    C24   A    
C21   O25   S    
O16   C58   S    
C55   H19   S    
C29   C35   A    
O18   C60   S    
C13   C17   A    
C26   N2    S    
O20   C62   S    
C31   H1    S    
C67   H77   S    
C61   H58   S    
C57   H41   S    
C25   C26   A    
C68   H80   S    
C7    C51   A    
C37   C39   S    
O23   C65   S    
C62   H60   S    
N13   H33   S    
C34   O8    A    
N17   H48   S    
C38   N9    S    
O25   C67   S    
C45   N18   S    
C1    O1    A    
N16   H39   S    
C48   C49   S    
C52   N6    S    
N9    H22   S    
C9    C34   S    
C2    C3    A    
C31   C35   A    
C60   H55   S    
C37   C41   S    
C18   C33   A    
Cu1   N4    S    
N19   H81   S    
Cu1   O3    S    
C38   C42   S    
C11   C29   A    
C63   H65   S    
Cu2   N3    S    
C4    C28   A    
C27   C28   A    
N18   H49   S    
C23   O6    A    
C44   N3    S    
N14   H35   S    
N20   H84   S    
C67   H75   S    
N7    H15   S    
C47   H9    S    
Cu1   O1    S    
N19   H82   S    
