data_mof_unit_52077.cif
_audit_creation_date              2013-03-05T16:47:41-0500
_audit_creation_method            fapswitch 2.2
_symmetry_space_group_name_H-M    P1
_symmetry_Int_Tables_number       1
_space_group_crystal_system       triclinic
_cell_length_a                    8.904095
_cell_length_b                    8.152566
_cell_length_c                    10.555079
_cell_angle_alpha                 89.682182
_cell_angle_beta                  90.089041
_cell_angle_gamma                 90.049845
_cell_volume                      766.193087512

loop_
_atom_site_label
_atom_site_type_symbol
_atom_site_description
_atom_site_fract_x
_atom_site_fract_y
_atom_site_fract_z
_atom_type_partial_charge
O1    O     O_R   0.285350 0.636850 0.500000 -0.617523
O2    O     O_R   0.714650 0.363150 0.500000 -0.617522
O3    O     O_R   0.714650 0.636850 0.500000 -0.613865
O4    O     O_R   0.285350 0.363150 0.500000 -0.613965
C1    C     C_R   0.218232 0.499952 0.499981 0.921998
C2    C     C_R   0.781768 0.500048 0.500019 0.922193
O5    O     O_R   0.499970 0.636850 0.313950 -0.630266
O6    O     O_R   0.500030 0.363150 0.686050 -0.630301
O7    O     O_R   0.500030 0.636850 0.686050 -0.613937
O8    O     O_R   0.499970 0.363150 0.313950 -0.614047
C3    C     C_R   0.492093 0.500140 0.257311 0.899723
C4    C     C_R   0.507821 0.499859 0.742695 0.899815
Zn1   Zn    Zn3+2 0.500000 0.682780 0.500000 0.959990
Zn2   Zn    Zn3+2 0.500000 0.317220 0.500000 0.959967
C5    C     C_3   0.396901 0.611401 0.035981 0.077024
C6    C     C_3   0.602897 0.388586 0.964024 0.076794
C7    C     C_3   0.541175 0.650705 0.960511 0.129040
C8    C     C_3   0.458610 0.349281 0.039496 0.129170
C9    C     C_3   0.365061 0.461123 0.951913 0.177712
C10   C     C_3   0.634732 0.538877 0.048082 0.177562
C11   C     C_3   0.508435 0.500319 0.877262 -0.179341
C12   C     C_3   0.491370 0.499672 0.122745 -0.179165
C13   C     C_1   0.065297 0.499930 0.499987 -0.204006
C14   C     C_1   0.934703 0.500070 0.500013 -0.204052
N1    N     N_1   0.500000 0.073640 0.500000 -0.044821
N2    N     N_1   0.500000 0.926360 0.500000 -0.044855
C15   C     C_3   0.216684 0.415149 0.888501 -0.886397
H1    H     H_    0.224654 0.289700 0.848798 0.247167
H2    H     H_    0.124134 0.419542 0.958506 0.238270
H3    H     H_    0.191678 0.502231 0.810133 0.232813
C16   C     C_3   0.783118 0.585027 0.111400 -0.886191
H4    H     H_    0.808313 0.497951 0.189728 0.232766
H5    H     H_    0.875583 0.580848 0.041302 0.238342
H6    H     H_    0.775031 0.710443 0.151151 0.247179
C17   C     C_3   0.280990 0.731527 0.088672 -0.372841
C18   C     C_3   0.184800 0.811137 0.985541 -0.880332
H7    H     H_    0.255523 0.870920 0.912393 0.257446
H8    H     H_    0.110929 0.719620 0.939955 0.261932
H9    H     H_    0.110997 0.904773 0.028740 0.248402
H10   H     H_    0.206204 0.665078 0.155746 0.201686
H11   H     H_    0.341710 0.827875 0.141872 0.217826
C19   C     C_3   0.718843 0.268486 0.911331 -0.372699
C20   C     C_3   0.815093 0.188967 0.014456 -0.880267
H12   H     H_    0.888781 0.280579 0.060138 0.261936
H13   H     H_    0.744408 0.128951 0.087525 0.257426
H14   H     H_    0.889105 0.095555 0.971220 0.248278
H15   H     H_    0.658192 0.172064 0.858147 0.217926
H16   H     H_    0.793593 0.334964 0.844243 0.201596
C21   C     C_3   0.592516 0.819986 0.913690 -0.371747
C22   C     C_3   0.744903 0.813656 0.846556 -0.809456
H17   H     H_    0.757155 0.701756 0.788172 0.254775
H18   H     H_    0.757826 0.921906 0.783306 0.246015
H19   H     H_    0.837264 0.815918 0.916929 0.243530
H20   H     H_    0.507202 0.870972 0.847786 0.214587
H21   H     H_    0.600966 0.902850 0.996225 0.194590
C23   C     C_3   0.407250 0.179991 0.086296 -0.371730
C24   C     C_3   0.254920 0.186309 0.153523 -0.810721
H22   H     H_    0.243257 0.297372 0.212836 0.255343
H23   H     H_    0.162531 0.185505 0.083231 0.243811
H24   H     H_    0.241453 0.077347 0.215859 0.245998
H25   H     H_    0.398693 0.097193 0.003730 0.194737
H26   H     H_    0.492594 0.128928 0.152138 0.214684

loop_
_geom_bond_atom_site_label_1
_geom_bond_atom_site_label_2
_geom_bond_distance
_ccdc_geom_bond_type
C22   H18   1.109638 S    
C13   C14   1.162823 T    
C16   H5    1.108455 S    
C5    C7    1.545037 S    
C6    C11   1.538036 S    
O6    C4    1.269486 A    
C15   H2    1.108423 S    
C8    C12   1.539808 S    
C9    C15   1.527453 S    
C3    C12   1.420378 S    
C16   H4    1.109505 S    
O3    Zn1   1.947919 S    
C8    C23   1.532969 S    
C20   H12   1.105882 S    
O3    C2    1.265771 A    
C2    C14   1.361750 S    
C18   H8    1.105880 S    
C22   H17   1.109287 S    
C16   H6    1.109795 S    
C19   H16   1.111181 S    
C15   H3    1.109502 S    
O5    C3    1.269502 A    
C20   H13   1.107757 S    
C24   H22   1.108700 S    
O2    C2    1.265544 A    
O2    Zn2   1.947279 S    
O1    C1    1.265545 A    
C5    C17   1.530745 S    
C6    C10   1.542549 S    
C9    C11   1.533736 S    
C10   C12   1.533728 S    
C5    C9    1.542536 S    
C19   H15   1.108120 S    
C5    C12   1.538065 S    
Zn2   N1    1.985802 S    
O4    Zn2   1.947919 S    
C17   H11   1.108070 S    
O7    C4    1.265780 A    
C23   H26   1.108796 S    
Zn1   N2    1.985802 S    
C20   H14   1.108231 S    
C22   H19   1.107536 S    
C24   H23   1.106978 S    
C19   C20   1.526372 S    
C17   H10   1.111175 S    
C21   H20   1.108797 S    
C6    C19   1.530833 S    
O5    Zn1   2.001192 S    
C7    C10   1.539175 S    
O1    Zn1   1.947279 S    
C23   C24   1.532772 S    
C6    C8    1.545150 S    
C8    C9    1.539284 S    
O8    C3    1.265785 A    
C7    C21   1.532918 S    
C15   H1    1.109787 S    
C21   C22   1.532779 S    
O7    Zn1   1.997112 S    
C23   H25   1.107782 S    
C18   H7    1.107709 S    
C24   H24   1.109045 S    
O6    Zn2   2.001192 S    
N1    N2    1.200709 T    
C21   H21   1.107789 S    
C4    C11   1.420385 S    
C18   H9    1.108222 S    
C7    C11   1.539738 S    
C17   C18   1.526424 S    
O8    Zn2   1.997112 S    
O4    C1    1.265772 A    
C10   C16   1.527448 S    
C1    C13   1.361750 S    
