data_mof_unit_62094.cif
_audit_creation_date              2012-12-11T14:39:30-0500
_audit_creation_method            fapswitch 2.2
_symmetry_space_group_name_H-M    P1
_symmetry_Int_Tables_number       1
_space_group_crystal_system       triclinic
_cell_length_a                    8.197415
_cell_length_b                    15.019729
_cell_length_c                    17.261599
_cell_angle_alpha                 98.575597
_cell_angle_beta                  97.050728
_cell_angle_gamma                 99.353821
_cell_volume                      2049.92980419

loop_
_atom_site_label
_atom_site_type_symbol
_atom_type_description
_atom_site_fract_x
_atom_site_fract_y
_atom_site_fract_z
_atom_type_partial_charge
Ba1   Ba    Ba6+2 0.844730 0.540500 0.462170 1.676697
Ba2   Ba    Ba6+2 0.345110 0.459580 0.537840 1.725189
C1    C     C_3   0.639250 0.854316 0.257270 -0.287740
C2    C     C_3   0.395804 0.497395 0.217657 -0.006061
C3    C     C_2   0.323375 0.500361 0.133255 -0.093166
C4    C     C_3   0.136959 0.729088 0.255288 0.299843
C5    C     C_2   0.156103 0.477963 0.109995 -0.033480
C6    C     C_2   0.045024 0.455921 0.170588 -0.101111
C7    C     C_1   0.109652 0.463726 0.246464 0.049092
C8    C     C_R   0.875895 0.476790 0.865245 0.295089
C9    C     C_R   0.813219 0.459845 0.783853 -0.019289
C10   C     C_R   0.079442 0.533853 0.754008 0.070355
C11   C     C_R   0.146070 0.546462 0.835118 -0.106320
C12   C     C_3   0.636905 0.763254 0.285823 0.289566
C13   C     C_R   0.047740 0.514880 0.891228 0.007694
C14   C     C_2   0.082340 0.466382 0.024964 0.018225
C15   C     C_2   0.127077 0.525996 0.976200 0.007500
C16   C     C_3   0.124547 0.751550 0.172033 -0.311740
C17   C     C_R   0.915338 0.487539 0.729187 -0.305916
C18   C     C_R   0.764826 0.236760 0.533803 -0.285268
C19   C     C_R   0.863215 0.178477 0.563233 -0.027357
C20   C     C_R   0.798198 0.084438 0.554127 -0.107539
C21   C     C_R   0.635783 0.046874 0.511102 0.020415
C22   C     C_R   0.545602 0.107683 0.477257 -0.099946
C23   C     C_3   0.398854 0.302371 0.294162 0.353123
C24   C     C_R   0.608757 0.201023 0.489184 0.026735
C25   C     C_R   0.393219 0.911691 0.462994 -0.134434
C26   C     C_R   0.326301 0.818290 0.450984 0.007798
C27   C     C_R   0.584465 0.789338 0.515980 0.047394
C28   C     C_3   0.290003 0.744987 0.641557 0.278448
C29   C     C_R   0.656385 0.881878 0.523822 -0.075056
C30   C     C_R   0.562007 0.945901 0.498505 0.009258
C31   C     C_R   0.422846 0.757187 0.476170 -0.294339
C32   C     C_3   0.338942 0.848361 0.668392 -0.363112
C33   C     C_3   0.918002 0.257413 0.365652 0.365239
C34   C     C_3   0.353337 0.264626 0.205894 -0.277029
C35   C     C_3   0.885631 0.152702 0.346369 0.617959
C36   C     C_3   0.856679 0.802021 0.702689 0.619533
C37   C     C_3   0.931634 0.786350 0.783666 -0.254405
C38   C     C_3   0.058533 0.244427 0.753069 0.712394
C39   C     C_3   0.953896 0.165105 0.780490 -0.305296
C40   C     C_3   0.559784 0.226569 0.706170 0.404257
C41   C     C_3   0.514370 0.131346 0.726775 -0.306214
C42   C     C_2   0.265498 0.505576 0.272280 -0.279755
Cl1   Cl    Cl    0.715332 0.110703 0.267854 -0.614187
Cl2   Cl    Cl    0.067058 0.112345 0.319356 -0.636045
Cl3   Cl    Cl    0.771879 0.904387 0.716362 -0.819991
Cl4   Cl    Cl    0.195425 0.311806 0.836789 -0.621582
Cl5   Cl    Cl    0.732452 0.460932 0.933034 -0.666532
H1    H     H_    0.767273 0.758304 0.307889 0.118026
H2    H     H_    0.038133 0.842661 0.810252 0.106316
H3    H     H_    0.977291 0.720432 0.777777 0.055730
H4    H     H_    0.835684 0.783460 0.823881 0.137004
H5    H     H_    0.561569 0.762404 0.335008 -0.005718
H6    H     H_    0.509905 0.862134 0.235792 0.127242
H7    H     H_    0.283543 0.316225 0.317426 0.023210
H8    H     H_    0.492013 0.366919 0.302866 -0.002081
H9    H     H_    0.269770 0.196669 0.196367 0.192286
H10   H     H_    0.286792 0.311235 0.175436 0.040048
H11   H     H_    0.468417 0.257135 0.179564 0.144876
H12   H     H_    0.427100 0.863916 0.724829 0.198139
H13   H     H_    0.715320 0.857929 0.208452 0.160702
H14   H     H_    0.172096 0.699461 0.132550 0.078178
H15   H     H_    0.976224 0.289764 0.730231 -0.102685
H16   H     H_    0.035956 0.122156 0.807171 0.165484
H17   H     H_    0.879843 0.191853 0.825388 0.110109
H18   H     H_    0.867902 0.121621 0.729316 0.089300
H19   H     H_    0.690520 0.236793 0.694045 -0.140393
H20   H     H_    0.474706 0.229592 0.651827 0.079791
H21   H     H_    0.537542 0.079056 0.678736 0.083387
H22   H     H_    0.380486 0.116470 0.733681 0.158618
H23   H     H_    0.399333 0.880838 0.623228 0.093416
H24   H     H_    0.058899 0.660490 0.252042 0.070117
H25   H     H_    0.590379 0.126334 0.783159 0.142237
H26   H     H_    0.228769 0.583634 0.998583 0.063641
H27   H     H_    0.911341 0.433608 0.151957 0.120789
H28   H     H_    0.987182 0.405935 0.002788 0.152104
H29   H     H_    0.407471 0.511550 0.090234 0.120734
H30   H     H_    0.274350 0.581122 0.854581 0.109955
H31   H     H_    0.299552 0.545084 0.331800 0.066335
H32   H     H_    0.864250 0.476565 0.666988 0.085152
H33   H     H_    0.308864 0.955323 0.445214 0.105044
H34   H     H_    0.227797 0.879163 0.678312 0.096946
H35   H     H_    0.269697 0.727041 0.276381 -0.021785
H36   H     H_    0.878333 0.042750 0.579420 0.090071
H37   H     H_    0.784796 0.901988 0.551404 0.105894
H38   H     H_    0.428740 0.084574 0.438169 0.117388
H39   H     H_    0.369186 0.685102 0.468334 0.065959
H40   H     H_    0.815131 0.309112 0.539988 0.062525
H41   H     H_    0.992091 0.751323 0.148504 0.136590
H42   H     H_    0.200269 0.820129 0.172761 0.142573
H43   H     H_    0.400711 0.717999 0.625387 0.043359
H44   H     H_    0.188896 0.730044 0.589801 0.038882
H45   H     H_    0.806986 0.280443 0.385692 -0.078299
H46   H     H_    0.025081 0.280264 0.414266 0.012126
H47   H     H_    0.854191 0.123932 0.399170 -0.064580
H48   H     H_    0.959572 0.811818 0.667259 0.010769
H49   H     H_    0.694918 0.911249 0.306984 0.134482
O1    O     O_2   0.823140 0.439340 0.307240 -0.470768
O2    O     O_2   0.198155 0.181113 0.550494 -0.482597
O3    O     O_3   0.155772 0.209150 0.698271 -0.598344
O4    O     O_3   0.097070 0.445850 0.405300 -0.504542
O5    O     O_3   0.592380 0.611270 0.541370 -0.459829
O6    O     O_2   0.323920 0.276750 0.459260 -0.449045
O7    O     O_3   0.466718 0.237147 0.331409 -0.567419
O8    O     O_2   0.469460 0.456825 0.779132 -0.379669
O9    O     O_3   0.542018 0.292983 0.769605 -0.512270
O10   O     O_3   0.627590 0.606740 0.357340 -0.497911
O11   O     O_2   0.744172 0.561563 0.223326 -0.480558
O12   O     O_3   0.730797 0.725762 0.668563 -0.619819
O13   O     O_3   0.950313 0.293332 0.297669 -0.597761
O14   O     O_3   0.566095 0.691094 0.223106 -0.611333
O15   O     O_2   0.865800 0.723280 0.540790 -0.491371
O16   O     O_3   0.060870 0.655550 0.397490 -0.494274
O17   O     O_2   0.982356 0.818861 0.444557 -0.491453
O18   O     O_3   0.078606 0.795922 0.305172 -0.584955
O19   O     O_2   0.366580 0.560690 0.692810 -0.445765
O20   O     O_3   0.092650 0.554230 0.594710 -0.498274
O21   O     O_3   0.562120 0.393340 0.642670 -0.513702
O22   O     O_3   0.236059 0.706445 0.704669 -0.641977
O23   O     O_3   0.597340 0.388800 0.458640 -0.487825
O24   O     O_3   0.128850 0.344520 0.602520 -0.470473
P1    P     P_3+3 0.993190 0.413330 0.319190 1.003410
P2    P     P_3+3 0.695930 0.711340 0.564320 1.011508
P3    P     P_3+3 0.111409 0.773674 0.402010 0.958087
P4    P     P_3+3 0.196530 0.586750 0.680820 1.013644
P5    P     P_3+3 0.084184 0.226609 0.602934 0.957091
P6    P     P_3+3 0.585278 0.586838 0.254362 0.969665
P7    P     P_3+3 0.500353 0.274004 0.433974 1.011386
P8    P     P_3+3 0.596435 0.402085 0.745098 1.118255

loop_
_geom_bond_atom_site_label_1
_geom_bond_atom_site_label_2
_ccdc_geom_bond_type
C37   H2    S    
C11   H30   S    
O2    P5    D    
C23   H7    S    
C34   H10   S    
Ba1   O1    S    
Ba1   O10   S    
Ba2   O20   S    
C23   O7    S    
C5    C6    S    
C39   H18   S    
C37   H4    S    
C12   O14   S    
C10   C11   A    
C9    C17   A    
C23   H8    S    
C16   H42   S    
C33   C35   S    
C31   H39   S    
C22   C24   A    
Ba1   Ba2   S    
C28   H44   S    
C34   H9    S    
C8    C13   A    
C36   H48   S    
C36   C37   S    
O22   P4    S    
C16   H14   S    
C33   H45   S    
C10   P4    S    
Ba2   O4    S    
C27   P2    S    
C27   C31   A    
C6    H27   S    
O21   P8    S    
C13   C15   S    
C14   H28   S    
C20   H36   S    
O24   P5    S    
C38   Cl4   S    
O12   P2    S    
C38   O3    S    
C1    H6    S    
C14   C15   D    
C21   C22   A    
C36   O12   S    
O19   P4    D    
Ba1   O5    S    
C41   H25   S    
C37   H3    S    
C29   H37   S    
C19   C20   A    
C40   H19   S    
Ba1   O15   S    
O9    P8    S    
O5    P2    S    
Ba2   O19   S    
Ba2   O24   S    
C4    C16   S    
C28   O22   S    
C4    H35   S    
C28   C32   S    
O13   P1    S    
C16   H41   S    
C42   H31   S    
C28   H43   S    
C32   H34   S    
C3    C5    D    
O16   P3    S    
C2    P6    S    
C6    C7    D    
O7    P7    S    
C2    C42   S    
C32   H12   S    
C35   H47   S    
Ba1   P1    S    
O3    P5    S    
Ba2   O23   S    
O11   P6    D    
C29   C30   A    
Ba2   O6    S    
O10   P6    S    
C1    C12   S    
C4    O18   S    
C36   Cl3   S    
C24   P7    S    
Ba2   P4    S    
C5    C14   S    
C12   H5    S    
C26   C31   A    
C41   H21   S    
O6    P7    D    
C11   C13   A    
C19   P5    S    
C40   C41   S    
C35   Cl1   S    
O4    P1    S    
C9    P8    S    
C32   H23   S    
C33   O13   S    
C26   P3    S    
C4    H24   S    
O1    P1    D    
C40   O9    S    
C1    H13   S    
O8    P8    D    
C38   C39   S    
C7    C42   D    
C41   H22   S    
C25   C30   A    
C25   H33   S    
O23   P7    S    
C2    C3    S    
C34   H11   S    
C38   H15   S    
C39   H16   S    
Ba2   O21   S    
C39   H17   S    
C33   H46   S    
C18   H40   S    
O17   P3    D    
O18   P3    S    
C21   C30   S    
C3    H29   S    
Ba1   P2    S    
C27   C29   A    
C1    H49   S    
C12   H1    S    
O15   P2    D    
C18   C24   A    
Ba2   O5    S    
C10   C17   A    
C7    P1    S    
Ba1   O20   S    
C40   H20   S    
C22   H38   S    
Ba1   O23   S    
O14   P6    S    
C8    C9    A    
C23   C34   S    
C18   C19   A    
Ba1   O16   S    
C25   C26   A    
C15   H26   S    
C20   C21   A    
O20   P4    S    
C35   Cl2   S    
C17   H32   S    
C8    Cl5   S    
Ba1   O4    S    
