data_mof_unit_29838.cif
_audit_creation_date              2012-12-11T14:17:52-0500
_audit_creation_method            fapswitch 2.2
_symmetry_space_group_name_H-M    P1
_symmetry_Int_Tables_number       1
_space_group_crystal_system       triclinic
_cell_length_a                    11.249251
_cell_length_b                    11.253118
_cell_length_c                    18.674057
_cell_angle_alpha                 89.908365
_cell_angle_beta                  90.855199
_cell_angle_gamma                 120.719797
_cell_volume                      2031.93972547

loop_
_atom_site_label
_atom_site_type_symbol
_atom_type_description
_atom_site_fract_x
_atom_site_fract_y
_atom_site_fract_z
_atom_type_partial_charge
C1    C     C_R   0.544439 0.420440 0.139780 0.524184
C2    C     C_R   0.005675 0.396596 0.536933 -0.141970
C3    C     C_R   0.392980 0.998865 0.537373 -0.144539
C4    C     C_R   0.602894 0.610841 0.537466 -0.142297
C5    C     C_R   0.748272 0.069118 0.572479 -0.079340
C6    C     C_R   0.937889 0.681841 0.566501 -0.077964
C7    C     C_R   0.304923 0.257430 0.562548 -0.083365
C8    C     C_R   0.062203 0.746419 0.432924 -0.080061
C9    C     C_R   0.689754 0.948587 0.436662 -0.081425
C10   C     C_R   0.251067 0.321307 0.426211 -0.081652
C11   C     C_R   0.840015 0.039305 0.540459 -0.134321
C12   C     C_R   0.543684 0.065441 0.146507 0.519650
C13   C     C_R   0.963265 0.800950 0.531910 -0.142132
C14   C     C_R   0.187943 0.163421 0.524598 -0.142314
C15   C     C_R   0.032398 0.836869 0.466727 -0.143282
C16   C     C_R   0.806567 0.971755 0.474159 -0.143206
C17   C     C_R   0.156564 0.198614 0.458132 -0.136892
C18   C     C_R   0.518166 0.459519 0.352707 0.541073
C19   C     C_R   0.542500 0.060887 0.353499 0.535529
C20   C     C_R   0.941109 0.482766 0.353019 0.545002
C21   C     C_R   0.457303 0.518262 0.646363 0.537646
C22   C     C_R   0.059387 0.541286 0.646755 0.536896
C23   C     C_R   0.873594 0.451914 0.140046 0.537030
C24   C     C_R   0.482198 0.940952 0.647185 0.538578
C25   C     C_R   0.484569 0.997972 0.923074 0.001865
C26   C     C_R   0.004737 0.504224 0.924502 0.009647
C27   C     C_R   0.524020 0.512920 0.921108 0.041772
C28   C     C_R   0.904506 0.453606 0.064003 -0.004647
C29   C     C_R   0.514994 0.029144 0.070892 0.030462
C30   C     C_R   0.531002 0.450325 0.065112 0.076412
C31   C     C_R   0.363686 0.948487 0.966423 -0.032664
C32   C     C_R   0.051465 0.442915 0.975018 -0.055281
C33   C     C_R   0.565578 0.618109 0.974607 -0.040987
C34   C     C_R   0.462344 0.521680 0.852070 0.529750
C35   C     C_R   0.980253 0.393543 0.038915 -0.050310
C36   C     C_R   0.380208 0.952977 0.041384 -0.044894
C37   C     C_R   0.545153 0.577792 0.046340 -0.006050
C38   C     C_R   0.625399 0.108978 0.025437 -0.090551
C39   C     C_R   0.863845 0.520949 0.015429 -0.108744
C40   C     C_R   0.535215 0.365320 0.011452 -0.108812
C41   C     C_R   0.901687 0.531896 0.944106 -0.118315
C42   C     C_R   0.611241 0.092870 0.952080 -0.146419
C43   C     C_R   0.529767 0.395244 0.939011 -0.104970
C44   C     C_R   0.229784 0.904399 0.937925 -0.138282
C45   C     C_R   0.066882 0.545340 0.853737 0.531307
C46   C     C_R   0.165031 0.426693 0.964179 -0.137627
C47   C     C_R   0.639807 0.761769 0.960876 -0.140314
C48   C     C_R   0.993933 0.291822 0.076414 -0.113136
C49   C     C_R   0.262644 0.890851 0.084489 -0.139792
C50   C     C_R   0.559753 0.673541 0.098739 -0.148617
C51   C     C_R   0.112771 0.855740 0.981387 0.304484
C52   C     C_R   0.185388 0.336353 0.006424 0.295242
C53   C     C_R   0.697740 0.859056 0.018349 0.360488
C54   C     C_R   0.105569 0.274626 0.066004 0.316402
C55   C     C_R   0.130294 0.850716 0.055687 0.338492
C56   C     C_R   0.478138 0.936891 0.852655 0.540323
C57   C     C_R   0.657169 0.813375 0.088347 0.336765
C58   C     C_R   0.504917 0.007037 0.576458 -0.015384
C59   C     C_R   0.997125 0.499995 0.574696 -0.016456
C60   C     C_R   0.494841 0.498751 0.573807 -0.013356
C61   C     C_R   0.005080 0.505063 0.424672 -0.017173
C62   C     C_R   0.504015 0.002436 0.425924 -0.013911
C63   C     C_R   0.496223 0.503372 0.423220 -0.016266
C64   C     C_R   0.620827 0.028237 0.538688 0.043559
C65   C     C_R   0.980752 0.596946 0.535453 0.045635
C66   C     C_R   0.394474 0.387071 0.533011 0.044926
C67   C     C_R   0.398147 0.007732 0.462547 -0.143339
C68   C     C_R   0.021581 0.618255 0.464125 0.045569
C69   C     C_R   0.602880 0.989958 0.466431 0.047312
C70   C     C_R   0.378562 0.408166 0.460569 0.045840
C71   C     C_3   0.969269 0.844678 0.882276 -0.164659
C72   C     C_3   0.207751 0.182867 0.940948 -0.104569
C73   C     C_3   0.857212 0.043778 0.946443 -0.147439
C74   C     C_3   0.117475 0.213728 0.183084 -0.092712
C75   C     C_3   0.048904 0.876624 0.165492 -0.060060
C76   C     C_3   0.694514 0.854530 0.213321 -0.110754
C77   C     C_R   0.997526 0.392908 0.462144 -0.142286
C78   C     C_R   0.609095 0.607275 0.462658 -0.145748
Cr1   Cr    Cr6+3 0.768550 0.541320 0.250660 0.978276
Cr2   Cr    Cr6+3 0.458680 0.227230 0.250660 0.977031
Cr3   Cr    Cr6+3 0.772770 0.231450 0.250660 0.977805
Cr4   Cr    Cr6+3 0.541320 0.768550 0.749340 0.981846
Cr5   Cr    Cr6+3 0.227230 0.458680 0.749340 0.992527
Cr6   Cr    Cr6+3 0.231450 0.772770 0.749340 0.979640
H1    H     H_    0.724271 0.184057 0.047117 0.150357
H2    H     H_    0.914828 0.216911 0.110492 0.211548
H3    H     H_    0.274818 0.880406 0.141238 0.112744
H4    H     H_    0.513665 0.637003 0.150451 0.129781
H5    H     H_    0.320331 0.018670 0.433562 0.142984
H6    H     H_    0.983453 0.302747 0.433886 0.145911
H7    H     H_    0.701633 0.683499 0.435945 0.140697
H8    H     H_    0.019857 0.320494 0.564961 0.147420
H9    H     H_    0.301901 0.984018 0.564323 0.143835
H10   H     H_    0.681698 0.699919 0.566736 0.142750
H11   H     H_    0.773081 0.116143 0.625334 0.118939
H12   H     H_    0.802961 0.564719 0.032540 0.174494
H13   H     H_    0.889020 0.658531 0.618301 0.117286
H14   H     H_    0.324735 0.228809 0.614864 0.121727
H15   H     H_    0.110935 0.773772 0.381085 0.112354
H16   H     H_    0.668072 0.899298 0.384471 0.105506
H17   H     H_    0.228223 0.344095 0.373081 0.109923
H18   H     H_    0.932618 0.063842 0.569651 0.099085
H19   H     H_    0.932371 0.865451 0.557877 0.098239
H20   H     H_    0.122364 0.065794 0.548750 0.102024
H21   H     H_    0.059616 0.931398 0.439975 0.096032
H22   H     H_    0.870461 0.939018 0.449953 0.095967
H23   H     H_    0.531007 0.271055 0.025870 0.110752
H24   H     H_    0.063346 0.130458 0.428818 0.094030
H25   H     H_    0.863643 0.822882 0.870590 0.113944
H26   H     H_    0.979534 0.774123 0.846961 0.166308
H27   H     H_    0.041123 0.952737 0.866183 0.047557
H28   H     H_    0.284213 0.164768 0.914431 0.123369
H29   H     H_    0.145983 0.195242 0.897496 0.101446
H30   H     H_    0.144239 0.093310 0.975066 0.179009
H31   H     H_    0.914213 0.157729 0.944897 0.122447
H32   H     H_    0.789085 0.010469 0.898687 0.119726
H33   H     H_    0.933086 0.012866 0.944784 0.167547
H34   H     H_    0.857592 0.570648 0.905559 0.143751
H35   H     H_    0.007701 0.148024 0.198659 0.112013
H36   H     H_    0.156340 0.324490 0.195964 0.119808
H37   H     H_    0.178549 0.182745 0.217059 0.131198
H38   H     H_    0.957946 0.878702 0.185548 0.142608
H39   H     H_    0.135834 0.984774 0.162826 0.137262
H40   H     H_    0.075503 0.819392 0.204784 0.114288
H41   H     H_    0.761492 0.937954 0.251854 0.125989
H42   H     H_    0.718287 0.770973 0.220720 0.130835
H43   H     H_    0.585565 0.819685 0.226673 0.110021
H44   H     H_    0.699383 0.151512 0.918169 0.116784
H45   H     H_    0.516711 0.321052 0.898230 0.097480
H46   H     H_    0.217813 0.924998 0.883335 0.148448
H47   H     H_    0.238764 0.483387 0.923778 0.182896
H48   H     H_    0.665840 0.796448 0.907370 0.158209
O1    O     O_R   0.910960 0.572410 0.171010 -0.477050
O2    O     O_R   0.528530 0.639750 0.824400 -0.533447
O3    O     O_R   0.111220 0.471470 0.824400 -0.522197
O4    O     O_R   0.360250 0.888780 0.824400 -0.524731
O5    O     O_R   0.909330 0.572400 0.331540 -0.524380
O6    O     O_R   0.427600 0.336930 0.331540 -0.525384
O7    O     O_R   0.663070 0.090670 0.331540 -0.528934
O8    O     O_R   0.572400 0.909330 0.668460 -0.519447
O9    O     O_R   0.336930 0.427600 0.668460 -0.523513
O10   O     O_R   0.090670 0.663070 0.668460 -0.521320
O11   O     O_R   0.638240 0.528520 0.324410 -0.507994
O12   O     O_R   0.427590 0.338550 0.171010 -0.484930
O13   O     O_R   0.471480 0.109720 0.324410 -0.504730
O14   O     O_R   0.890280 0.361760 0.324410 -0.499361
O15   O     O_R   0.528520 0.638240 0.675590 -0.502080
O16   O     O_R   0.109720 0.471480 0.675590 -0.501625
O17   O     O_R   0.361760 0.890280 0.675590 -0.501134
O18   O     O_3   0.666667 0.333333 0.250630 -0.284155
O19   O     O_3   0.333333 0.666667 0.749370 -0.241867
O20   O     O_3   0.980371 0.820421 0.956154 -0.554218
O21   O     O_3   0.276862 0.299507 0.985330 -0.549075
O22   O     O_3   0.788583 0.000724 0.011742 -0.542145
O23   O     O_R   0.661450 0.089040 0.171010 -0.479211
O24   O     O_3   0.133846 0.191933 0.109919 -0.528980
O25   O     O_3   0.014762 0.809665 0.097936 -0.504122
O26   O     O_3   0.725439 0.909427 0.143480 -0.520323
O27   O     O_R   0.572410 0.910960 0.828990 -0.543622
O28   O     O_R   0.338550 0.427590 0.828990 -0.521279
O29   O     O_R   0.089040 0.661450 0.828990 -0.545493
O30   O     O_R   0.639750 0.528530 0.175600 -0.541217
O31   O     O_R   0.471470 0.111220 0.175600 -0.535735
O32   O     O_R   0.888780 0.360250 0.175600 -0.543311

loop_
_geom_bond_atom_site_label_1
_geom_bond_atom_site_label_2
_ccdc_geom_bond_type
C25   C31   A    
C57   O26   S    
C72   H28   S    
C26   C32   A    
C37   C50   A    
C7    H14   S    
C46   C52   A    
C12   C29   S    
C75   H38   S    
C76   H42   S    
C49   H3    S    
C25   C56   S    
Cr4   O15   S    
C39   C41   A    
C51   C55   A    
C27   C33   A    
Cr2   O18   S    
C74   H35   S    
C29   C36   A    
C76   O26   S    
C19   O13   A    
C73   H32   S    
C62   C67   A    
C75   H39   S    
C21   O15   A    
C18   O11   A    
C9    C16   A    
C9    C69   A    
C38   C42   A    
C56   O27   A    
C54   O24   S    
C18   C63   S    
C34   O2    A    
C19   C62   S    
C44   H46   S    
Cr3   O18   S    
C71   H26   S    
C72   H30   S    
C67   H5    S    
C20   C61   S    
C18   O6    A    
C45   O29   A    
Cr4   O8    S    
C26   C45   S    
C5    H11   S    
C7    C14   A    
Cr1   O11   S    
Cr5   O28   S    
C28   C35   A    
C61   C77   A    
Cr2   O12   S    
C71   H27   S    
C73   O22   S    
Cr4   O2    S    
C41   H34   S    
C13   H19   S    
Cr5   O3    S    
Cr4   O19   S    
C42   H44   S    
C47   C53   A    
Cr6   O17   S    
C75   O25   S    
C60   C66   A    
C53   O22   S    
C76   H41   S    
C14   C17   A    
C4    C60   A    
C35   C48   A    
C56   O4    A    
C52   C54   A    
Cr5   O19   S    
C6    C65   A    
C27   C34   S    
C58   C64   A    
Cr1   O1    S    
C77   H6    S    
C45   O3    A    
C73   H33   S    
C31   C44   A    
C23   O1    A    
C38   H1    S    
C30   C40   A    
C75   H40   S    
C32   C35   A    
C43   H45   S    
C21   C60   S    
C17   H24   S    
C22   C59   S    
Cr5   O9    S    
C53   C57   A    
C2    C59   A    
C28   C39   A    
C52   O21   S    
C49   C55   A    
C72   H29   S    
C24   O8    A    
C62   C69   A    
C20   O5    A    
C29   C38   A    
C48   C54   A    
C6    H13   S    
Cr2   O31   S    
C4    C78   A    
C11   C16   A    
C14   H20   S    
C71   O20   S    
C63   C70   A    
Cr6   O10   S    
C65   C68   A    
C40   C43   A    
C64   C69   A    
C74   O24   S    
C3    H9    S    
C23   C28   S    
C2    H8    S    
C40   H23   S    
C4    H10   S    
C10   C70   A    
C44   C51   A    
C19   O7    A    
Cr2   O13   S    
Cr1   O5    S    
C22   O16   A    
C1    O30   A    
C8    C68   A    
C8    C15   A    
C13   C15   A    
C33   C47   A    
Cr3   O32   S    
C48   H2    S    
Cr1   O30   S    
C10   C17   A    
C46   H47   S    
C23   O32   A    
Cr3   O7    S    
Cr6   O4    S    
C72   O21   S    
C50   C57   A    
C32   C46   A    
C8    H15   S    
C10   H17   S    
C3    C67   A    
C73   H31   S    
C25   C42   A    
C51   O20   S    
C22   O10   A    
C5    C11   A    
C16   H22   S    
C78   H7    S    
C9    H16   S    
C74   H36   S    
Cr3   O23   S    
C47   H48   S    
C5    C64   A    
C15   H21   S    
C21   O9    A    
Cr1   O18   S    
C1    O12   A    
C59   C65   A    
C7    C66   A    
Cr4   O27   S    
C61   C68   A    
C66   C70   A    
Cr2   O6    S    
Cr6   O19   S    
C71   H25   S    
C1    C30   S    
C11   H18   S    
C20   O14   A    
C33   C37   A    
C39   H12   S    
C12   O31   A    
C24   O17   A    
Cr6   O29   S    
Cr5   O16   S    
C3    C58   A    
C27   C43   A    
C55   O25   S    
C74   H37   S    
C30   C37   A    
C24   C58   S    
Cr3   O14   S    
C2    C77   A    
C76   H43   S    
C31   C36   A    
C50   H4    S    
C12   O23   A    
C36   C49   A    
C26   C41   A    
C6    C13   A    
C63   C78   A    
C34   O28   A    
