data_mof_unit_61538.cif
_audit_creation_date              2013-03-05T16:31:28-0500
_audit_creation_method            fapswitch 2.2
_symmetry_space_group_name_H-M    P1
_symmetry_Int_Tables_number       1
_space_group_crystal_system       triclinic
_cell_length_a                    35.642536
_cell_length_b                    35.657962
_cell_length_c                    29.376784
_cell_angle_alpha                 90.011902
_cell_angle_beta                  89.9999
_cell_angle_gamma                 90.000591
_cell_volume                      37336.1347564

loop_
_atom_site_label
_atom_site_type_symbol
_atom_site_description
_atom_site_fract_x
_atom_site_fract_y
_atom_site_fract_z
_atom_type_partial_charge
O1    O     O_R   0.968530 0.445640 0.500010 -0.553052
O2    O     O_R   0.445640 0.031470 0.500010 -0.553102
O3    O     O_R   0.031470 0.554360 0.500010 -0.553262
O4    O     O_R   0.554360 0.968530 0.500010 -0.553069
O5    O     O_R   0.968530 0.554360 0.499990 -0.553052
O6    O     O_R   0.445640 0.968530 0.499990 -0.553102
O7    O     O_R   0.031470 0.445640 0.499990 -0.553262
O8    O     O_R   0.554360 0.031470 0.499990 -0.553069
O9    O     O_R   0.468530 0.945640 0.000010 -0.552891
O10   O     O_R   0.945640 0.531470 0.000010 -0.552980
O11   O     O_R   0.531470 0.054360 0.000010 -0.553352
O12   O     O_R   0.054360 0.468530 0.000010 -0.552651
O13   O     O_R   0.468530 0.054360 0.999990 -0.552888
O14   O     O_R   0.945640 0.468530 0.999990 -0.552980
O15   O     O_R   0.531470 0.945640 0.999990 -0.553350
O16   O     O_R   0.054360 0.531470 0.999990 -0.552659
C1    C     C_R   1.000000 0.427746 0.500000 0.907682
C2    C     C_R   0.427742 1.000000 0.500000 0.907346
C3    C     C_R   0.000000 0.572254 0.499999 0.907682
C4    C     C_R   0.572257 0.000000 0.500000 0.907368
C5    C     C_R   0.500010 0.927745 0.000023 0.907589
C6    C     C_R   0.927743 0.500000 1.000000 0.907374
C7    C     C_R   0.500011 0.072255 0.999977 0.907590
C8    C     C_R   0.072302 0.500000 0.000000 0.906150
O17   O     O_R   0.968530 0.500000 0.438040 -0.553691
O18   O     O_R   0.500000 0.031470 0.438040 -0.553711
O19   O     O_R   0.031470 0.500000 0.438040 -0.553941
O20   O     O_R   0.500000 0.968530 0.438040 -0.553750
O21   O     O_R   0.968530 0.500000 0.561960 -0.553690
O22   O     O_R   0.500000 0.968530 0.561960 -0.553712
O23   O     O_R   0.031470 0.500000 0.561960 -0.553941
O24   O     O_R   0.500000 0.031470 0.561960 -0.553750
O25   O     O_R   0.468530 0.000000 0.938040 -0.553923
O26   O     O_R   0.000000 0.531470 0.938040 -0.553642
O27   O     O_R   0.531470 0.000000 0.938040 -0.553595
O28   O     O_R   0.000000 0.468530 0.938040 -0.553587
O29   O     O_R   0.468530 0.000000 0.061960 -0.553923
O30   O     O_R   1.000000 0.468530 0.061960 -0.553642
O31   O     O_R   0.531470 0.000000 0.061960 -0.553595
O32   O     O_R   0.000000 0.531470 0.061960 -0.553586
C9    C     C_R   1.000000 0.500000 0.415254 0.860580
C10   C     C_R   0.500000 0.999997 0.415260 0.860384
C11   C     C_R   0.000000 0.500000 0.584746 0.860579
C12   C     C_R   0.500000 0.000003 0.584740 0.860385
C13   C     C_R   0.500000 0.999995 0.915254 0.860515
C14   C     C_R   0.000005 0.499997 0.915260 0.859763
C15   C     C_R   0.500000 0.000005 0.084746 0.860511
C16   C     C_R   0.000005 0.500003 0.084740 0.859769
Cu1   Cu    Cu3+1 0.962730 0.500000 0.500000 1.097622
Cu2   Cu    Cu3+1 0.500000 0.037270 0.500000 1.097147
Cu3   Cu    Cu3+1 0.037270 0.500000 0.500000 1.096655
Cu4   Cu    Cu3+1 0.500000 0.962730 0.500000 1.097146
Cu5   Cu    Cu3+1 0.462730 0.000000 0.000000 1.097378
Cu6   Cu    Cu3+1 0.000000 0.537270 0.000000 1.097689
Cu7   Cu    Cu3+1 0.537270 0.000000 0.000000 1.097758
Cu8   Cu    Cu3+1 0.000000 0.462730 0.000000 1.097690
C17   C     C_1   0.000000 0.500002 0.364023 -0.085518
C18   C     C_1   0.500000 0.999991 0.364029 -0.085359
C19   C     C_1   0.000000 0.499998 0.635977 -0.085517
C20   C     C_1   0.500000 0.000009 0.635971 -0.085360
C21   C     C_1   0.500000 0.999997 0.864023 -0.085396
C22   C     C_1   0.000005 0.499990 0.864029 -0.085784
C23   C     C_1   0.500000 0.000003 0.135977 -0.085399
C24   C     C_1   0.000005 0.500009 0.135971 -0.085779
C25   C     C_1   0.000001 0.500004 0.321572 0.045519
C26   C     C_1   0.500000 0.999991 0.321578 0.045532
C27   C     C_1   0.000001 0.499996 0.678428 0.045520
C28   C     C_1   0.500000 0.000009 0.678422 0.045532
C29   C     C_1   0.500000 1.000000 0.821572 0.045586
C30   C     C_1   0.000004 0.499990 0.821578 0.045477
C31   C     C_1   0.500000 0.000000 0.178428 0.045586
C32   C     C_1   0.000004 0.500010 0.178422 0.045478
C33   C     C_1   0.000002 0.500007 0.271224 0.042388
C34   C     C_1   0.500000 0.999993 0.271230 0.042424
C35   C     C_1   0.000002 0.499993 0.728776 0.042387
C36   C     C_1   0.500000 0.000006 0.728770 0.042424
C37   C     C_1   0.500000 0.000004 0.771224 0.042446
C38   C     C_1   0.000003 0.499991 0.771230 0.042376
C39   C     C_1   0.500000 0.999996 0.228776 0.042446
C40   C     C_1   0.000003 0.500009 0.228770 0.042377
C41   C     C_R   0.984310 0.173561 0.536548 -0.235399
C42   C     C_R   0.173443 0.979515 0.467143 -0.251529
C43   C     C_R   0.015691 0.826445 0.536511 -0.235462
C44   C     C_R   0.826557 0.020482 0.467151 -0.251452
C45   C     C_R   0.984311 0.826439 0.463452 -0.235398
C46   C     C_R   0.173443 0.020484 0.532857 -0.251527
C47   C     C_R   0.015690 0.173555 0.463489 -0.235460
C48   C     C_R   0.826557 0.979518 0.532849 -0.251452
C49   C     C_R   0.484351 0.673719 0.035968 -0.258037
C50   C     C_R   0.673452 0.479800 0.966884 -0.253650
C51   C     C_R   0.517536 0.326613 0.035900 -0.228588
C52   C     C_R   0.327143 0.532895 0.989632 -0.242081
C53   C     C_R   0.484355 0.326280 0.964036 -0.257997
C54   C     C_R   0.673452 0.520200 0.033115 -0.253640
C55   C     C_R   0.517522 0.673389 0.964096 -0.228579
C56   C     C_R   0.327135 0.467123 0.010366 -0.241921
H1    H     H_    0.972158 0.188713 0.564932 0.168653
H2    H     H_    0.188735 0.963945 0.441470 0.159536
H3    H     H_    0.027842 0.811298 0.564892 0.168605
H4    H     H_    0.811265 0.036050 0.441484 0.159601
H5    H     H_    0.972159 0.811286 0.435068 0.168653
H6    H     H_    0.188735 0.036055 0.558530 0.159537
H7    H     H_    0.027841 0.188702 0.435108 0.168605
H8    H     H_    0.811264 0.963950 0.558516 0.159602
H9    H     H_    0.471890 0.689119 0.063944 0.159220
H10   H     H_    0.688751 0.464460 0.941014 0.159488
H11   H     H_    0.530450 0.311592 0.063882 0.167630
H12   H     H_    0.311959 0.558557 0.982503 0.155856
H13   H     H_    0.471890 0.310879 0.936062 0.159219
H14   H     H_    0.688752 0.535540 0.058985 0.159491
H15   H     H_    0.530431 0.688411 0.936111 0.167630
H16   H     H_    0.311946 0.441464 0.017499 0.155941
C57   C     C_R   0.983630 0.134312 0.536520 0.382647
C58   C     C_R   0.134045 0.978767 0.467381 0.371506
C59   C     C_R   0.016375 0.865694 0.536490 0.382680
C60   C     C_R   0.865955 0.021231 0.467389 0.371485
C61   C     C_R   0.983630 0.865688 0.463480 0.382647
C62   C     C_R   0.134045 0.021233 0.532619 0.371505
C63   C     C_R   0.016375 0.134306 0.463510 0.382677
C64   C     C_R   0.865954 0.978769 0.532611 0.371484
C65   C     C_R   0.483176 0.634358 0.035844 0.383199
C66   C     C_R   0.634050 0.479044 0.967109 0.371302
C67   C     C_R   0.517856 0.365870 0.035827 0.366403
C68   C     C_R   0.366535 0.532883 0.988621 0.348949
C69   C     C_R   0.483178 0.365641 0.964160 0.383182
C70   C     C_R   0.634051 0.520956 0.032890 0.371308
C71   C     C_R   0.517844 0.634131 0.964168 0.366359
C72   C     C_R   0.366526 0.467126 0.011380 0.348804
C73   C     C_R   0.000003 0.114283 0.500012 -0.257546
C74   C     C_R   0.114197 1.000000 0.500000 -0.236848
C75   C     C_R   0.000002 0.885717 0.499988 -0.257547
C76   C     C_R   0.885803 0.000000 0.500000 -0.236864
C77   C     C_R   0.500389 0.614284 0.000061 -0.253273
C78   C     C_R   0.614203 0.500000 1.000000 -0.232992
C79   C     C_R   0.500394 0.385716 0.999939 -0.253350
C80   C     C_R   0.386187 0.500002 0.000000 -0.201511
C81   C     C_R   0.999999 0.193112 0.500020 0.000541
C82   C     C_R   0.192996 1.000000 0.500000 0.015224
C83   C     C_R   0.999999 0.806888 0.499980 0.000542
C84   C     C_R   0.807003 0.000000 0.500000 0.015193
C85   C     C_R   0.501124 0.693106 0.000032 0.009093
C86   C     C_R   0.693003 0.500000 1.000000 0.015629
C87   C     C_R   0.501135 0.306894 0.999967 0.009090
C88   C     C_R   0.307501 0.500011 0.999998 0.022721
C89   C     C_1   0.999996 0.233376 0.500021 0.008909
C90   C     C_1   0.233285 1.000000 0.500000 0.011835
C91   C     C_1   0.999997 0.766624 0.499979 0.008909
C92   C     C_1   0.766715 0.000000 0.500000 0.011981
C93   C     C_1   0.501182 0.733375 0.999889 0.007710
C94   C     C_1   0.733290 0.500000 1.000000 0.012402
C95   C     C_1   0.501192 0.266625 0.000111 0.007708
C96   C     C_1   0.267127 0.500014 0.999997 0.002186
C97   C     C_1   0.999995 0.267132 0.500019 0.008308
C98   C     C_1   0.267056 0.999999 0.500000 0.005284
C99   C     C_1   0.999996 0.732868 0.499981 0.008308
C100  C     C_1   0.732944 0.000001 0.500000 0.005447
C101  C     C_1   0.501040 0.767131 0.999846 0.006781
C102  C     C_1   0.767060 0.500000 1.000000 0.005116
C103  C     C_1   0.501049 0.232869 0.000155 0.006783
C104  C     C_1   0.233303 0.500013 0.999997 0.005813
C105  C     C_R   0.023435 0.326937 0.529726 -0.193726
C106  C     C_R   0.326882 0.976577 0.529715 -0.194034
C107  C     C_R   0.976560 0.673076 0.529703 -0.193601
C108  C     C_R   0.673118 0.023431 0.529717 -0.193871
C109  C     C_R   0.023436 0.673063 0.470274 -0.193726
C110  C     C_R   0.326882 0.023421 0.470284 -0.194033
C111  C     C_R   0.976559 0.326923 0.470297 -0.193600
C112  C     C_R   0.673118 0.976570 0.470283 -0.193871
C113  C     C_R   0.523996 0.827068 0.029683 -0.193863
C114  C     C_R   0.826884 0.476580 0.029718 -0.193901
C115  C     C_R   0.477140 0.173209 0.029762 -0.194217
C116  C     C_R   0.173333 0.523573 0.029535 -0.194877
C117  C     C_R   0.524001 0.172931 0.970317 -0.193863
C118  C     C_R   0.826885 0.523419 0.970282 -0.193901
C119  C     C_R   0.477135 0.826792 0.970239 -0.194218
C120  C     C_R   0.173335 0.476442 0.970462 -0.194873
H17   H     H_    0.041143 0.311473 0.553126 0.185455
H18   H     H_    0.311406 0.958881 0.553114 0.185459
H19   H     H_    0.958851 0.688552 0.553099 0.185510
H20   H     H_    0.688594 0.041135 0.553117 0.185517
H21   H     H_    0.041144 0.688528 0.446874 0.185455
H22   H     H_    0.311406 0.041118 0.446886 0.185459
H23   H     H_    0.958850 0.311448 0.446901 0.185509
H24   H     H_    0.688594 0.958866 0.446884 0.185517
H25   H     H_    0.541811 0.811704 0.053062 0.185444
H26   H     H_    0.811408 0.458885 0.053118 0.185474
H27   H     H_    0.459550 0.188783 0.053191 0.185159
H28   H     H_    0.188795 0.541396 0.052812 0.184876
H29   H     H_    0.541817 0.188295 0.946939 0.185445
H30   H     H_    0.811409 0.541114 0.946881 0.185475
H31   H     H_    0.459544 0.811218 0.946809 0.185159
H32   H     H_    0.188800 0.458622 0.947185 0.184876
C121  C     C_R   0.023358 0.366254 0.530669 0.291306
C122  C     C_R   0.366216 0.976657 0.530664 0.291179
C123  C     C_R   0.976640 0.633760 0.530657 0.291195
C124  C     C_R   0.633784 0.023353 0.530665 0.291178
C125  C     C_R   0.023359 0.633746 0.469331 0.291305
C126  C     C_R   0.366216 0.023342 0.469336 0.291179
C127  C     C_R   0.976639 0.366240 0.469343 0.291194
C128  C     C_R   0.633784 0.976648 0.469334 0.291178
C129  C     C_R   0.523597 0.866378 0.030736 0.291366
C130  C     C_R   0.866218 0.476659 0.030666 0.291171
C131  C     C_R   0.476895 0.133886 0.030605 0.291117
C132  C     C_R   0.133964 0.523496 0.030486 0.291561
C133  C     C_R   0.523599 0.133622 0.969264 0.291367
C134  C     C_R   0.866218 0.523340 0.969333 0.291172
C135  C     C_R   0.476892 0.866114 0.969395 0.291119
C136  C     C_R   0.133966 0.476511 0.969514 0.291554
C137  C     C_R   0.999999 0.386324 0.500004 -0.272460
C138  C     C_R   0.386302 0.999999 0.500000 -0.272440
C139  C     C_R   0.000000 0.613676 0.499996 -0.272460
C140  C     C_R   0.613697 0.000000 0.500000 -0.272418
C141  C     C_R   0.500104 0.886323 0.000096 -0.272390
C142  C     C_R   0.886304 0.499999 1.000000 -0.272412
C143  C     C_R   0.500106 0.113677 0.999903 -0.272390
C144  C     C_R   0.113831 0.500002 0.000001 -0.272641
C145  C     C_R   0.999996 0.307416 0.500015 0.001128
C146  C     C_R   0.307359 0.999999 0.500000 0.001251
C147  C     C_R   0.999997 0.692583 0.499985 0.001128
C148  C     C_R   0.692641 0.000001 0.500000 0.001221
C149  C     C_R   0.500748 0.807416 0.999887 0.001420
C150  C     C_R   0.807362 0.499999 1.000000 0.001241
C151  C     C_R   0.500755 0.192583 0.000115 0.001420
C152  C     C_R   0.192911 0.500010 0.999997 0.002302
O33   O     O_R   0.054260 0.999990 0.464160 -0.563195
O34   O     O_R   0.999990 0.945740 0.464160 -0.560774
O35   O     O_R   0.945740 0.000010 0.464160 -0.563184
O36   O     O_R   0.000010 0.054260 0.464160 -0.560751
O37   O     O_R   0.054260 0.000010 0.535840 -0.563195
O38   O     O_R   0.999990 0.054260 0.535840 -0.560774
O39   O     O_R   0.945740 0.999990 0.535840 -0.563185
O40   O     O_R   0.000010 0.945740 0.535840 -0.560751
O41   O     O_R   0.554260 0.499990 0.964160 -0.564239
O42   O     O_R   0.499990 0.445740 0.964160 -0.555561
O43   O     O_R   0.445740 0.500010 0.964160 -0.598626
O44   O     O_R   0.500010 0.554260 0.964160 -0.563795
O45   O     O_R   0.554260 0.500010 0.035840 -0.564241
O46   O     O_R   0.499990 0.554260 0.035840 -0.555551
O47   O     O_R   0.445740 0.499990 0.035840 -0.598752
O48   O     O_R   0.500010 0.445740 0.035840 -0.563741
C153  C     C_R   0.072835 0.000000 0.500000 0.883555
C154  C     C_R   0.000001 0.927143 0.499996 0.828251
C155  C     C_R   0.927164 1.000000 0.500000 0.883564
C156  C     C_R   0.000001 0.072857 0.500004 0.828251
C157  C     C_R   0.572838 0.500000 1.000000 0.880542
C158  C     C_R   0.499846 0.427137 0.999996 0.870541
C159  C     C_R   0.427302 0.499997 0.000000 0.916929
C160  C     C_R   0.499844 0.572863 0.000004 0.870564
Cu9   Cu    Cu3+1 1.000000 0.000000 0.457530 1.005045
Cu10  Cu    Cu3+1 1.000000 0.000000 0.542470 1.005045
Cu11  Cu    Cu3+1 0.500000 0.500000 0.957530 0.996201
Cu12  Cu    Cu3+1 0.500000 0.500000 0.042470 0.996163
O49   O     O_3   0.967720 0.115753 0.573038 -0.584690
C161  C     C_3   0.929618 0.108753 0.562964 0.054620
H33   H     H_    0.926782 0.092697 0.530611 0.120195
H34   H     H_    0.913906 0.135679 0.560120 0.139570
C162  C     C_3   0.912469 0.085340 0.601203 -0.294826
H35   H     H_    0.927733 0.058241 0.603871 0.242514
H36   H     H_    0.915445 0.100556 0.634033 0.228156
C163  C     C_3   0.870984 0.077506 0.592494 -0.890165
H37   H     H_    0.854975 0.104203 0.591052 0.256272
H38   H     H_    0.859522 0.060001 0.620480 0.272262
H39   H     H_    0.867293 0.062189 0.559928 0.247962
O50   O     O_3   0.114534 0.958158 0.435163 -0.584512
C164  C     C_3   0.121223 0.919427 0.441734 0.030916
H40   H     H_    0.123989 0.911962 0.478484 0.120503
H41   H     H_    0.147403 0.911143 0.423753 0.158895
C165  C     C_3   0.088356 0.897308 0.421828 -0.303679
H42   H     H_    0.061744 0.907820 0.436686 0.234041
H43   H     H_    0.087284 0.901641 0.384385 0.235657
C166  C     C_3   0.091746 0.855465 0.431910 -0.900843
H44   H     H_    0.118099 0.844118 0.417166 0.265473
H45   H     H_    0.067570 0.840371 0.416645 0.272888
H46   H     H_    0.091549 0.850472 0.469232 0.242387
O51   O     O_3   0.032287 0.884259 0.573012 -0.584684
C167  C     C_3   0.070388 0.891257 0.562936 0.054615
H47   H     H_    0.073222 0.907309 0.530587 0.120207
H48   H     H_    0.086100 0.864331 0.560082 0.139488
C168  C     C_3   0.087541 0.914675 0.601180 -0.294788
H49   H     H_    0.072277 0.941775 0.603858 0.242523
H50   H     H_    0.084567 0.899464 0.634005 0.228100
C169  C     C_3   0.129025 0.922507 0.592469 -0.890413
H51   H     H_    0.145034 0.895810 0.591017 0.256193
H52   H     H_    0.140489 0.940017 0.620459 0.272233
H53   H     H_    0.132714 0.937819 0.559907 0.248004
O52   O     O_3   0.885466 0.041837 0.435179 -0.584493
C170  C     C_3   0.878775 0.080567 0.441763 0.030982
H54   H     H_    0.876008 0.088038 0.478514 0.120511
H55   H     H_    0.852594 0.088847 0.423784 0.158991
C171  C     C_3   0.911640 0.102687 0.421862 -0.303786
H56   H     H_    0.938253 0.092178 0.436716 0.234024
H57   H     H_    0.912712 0.098349 0.384418 0.235713
C172  C     C_3   0.908247 0.144531 0.431957 -0.900520
H58   H     H_    0.881893 0.155874 0.417216 0.265581
H59   H     H_    0.932422 0.159624 0.416696 0.272870
H60   H     H_    0.908444 0.149529 0.469280 0.242381
O53   O     O_3   0.967720 0.884246 0.426962 -0.584690
C173  C     C_3   0.929618 0.891246 0.437036 0.054620
H61   H     H_    0.926782 0.907302 0.469389 0.120194
H62   H     H_    0.913906 0.864320 0.439879 0.139570
C174  C     C_3   0.912469 0.914659 0.398797 -0.294827
H63   H     H_    0.927735 0.941758 0.396128 0.242514
H64   H     H_    0.915445 0.899442 0.365967 0.228155
C175  C     C_3   0.870985 0.922493 0.407506 -0.890168
H65   H     H_    0.854975 0.895796 0.408949 0.256272
H66   H     H_    0.859523 0.939997 0.379520 0.272262
H67   H     H_    0.867295 0.937810 0.440071 0.247962
O54   O     O_3   0.114535 0.041842 0.564837 -0.584512
C176  C     C_3   0.121223 0.080572 0.558264 0.030915
H68   H     H_    0.123989 0.088038 0.521515 0.120504
H69   H     H_    0.147404 0.088857 0.576245 0.158896
C177  C     C_3   0.088357 0.102692 0.578171 -0.303680
H70   H     H_    0.061745 0.092179 0.563314 0.234040
H71   H     H_    0.087286 0.098359 0.615615 0.235658
C178  C     C_3   0.091747 0.144535 0.568088 -0.900844
H72   H     H_    0.118101 0.155882 0.582833 0.265474
H73   H     H_    0.067572 0.159628 0.583354 0.272888
H74   H     H_    0.091550 0.149528 0.530767 0.242387
O55   O     O_3   0.032287 0.115742 0.426988 -0.584684
C179  C     C_3   0.070388 0.108744 0.437064 0.054617
H75   H     H_    0.073222 0.092692 0.469413 0.120205
H76   H     H_    0.086100 0.135670 0.439918 0.139488
C180  C     C_3   0.087540 0.085326 0.398820 -0.294787
H77   H     H_    0.072276 0.058226 0.396141 0.242523
H78   H     H_    0.084567 0.100537 0.365994 0.228099
C181  C     C_3   0.129024 0.077494 0.407531 -0.890413
H79   H     H_    0.145034 0.104191 0.408983 0.256194
H80   H     H_    0.140488 0.059984 0.379541 0.272233
H81   H     H_    0.132712 0.062181 0.440092 0.248003
O56   O     O_3   0.885465 0.958163 0.564821 -0.584494
C182  C     C_3   0.878774 0.919433 0.558237 0.030983
H82   H     H_    0.876008 0.911962 0.521485 0.120511
H83   H     H_    0.852592 0.911152 0.576214 0.158991
C183  C     C_3   0.911639 0.897313 0.578137 -0.303787
H84   H     H_    0.938252 0.907823 0.563284 0.234024
H85   H     H_    0.912710 0.901651 0.615582 0.235713
C184  C     C_3   0.908246 0.855469 0.568042 -0.900522
H86   H     H_    0.881891 0.844126 0.582783 0.265582
H87   H     H_    0.932420 0.840377 0.583303 0.272870
H88   H     H_    0.908443 0.850471 0.530719 0.242381
O57   O     O_3   0.465945 0.615168 0.071081 -0.589275
C185  C     C_3   0.426770 0.621228 0.069284 0.060859
H89   H     H_    0.415964 0.621258 0.033603 0.163682
H90   H     H_    0.419870 0.648521 0.085619 0.144591
C186  C     C_3   0.407018 0.589767 0.095212 -0.287650
H91   H     H_    0.413755 0.562434 0.078980 0.238898
H92   H     H_    0.417312 0.589113 0.130920 0.222259
C187  C     C_3   0.364538 0.595158 0.095355 -0.884444
H93   H     H_    0.357069 0.621690 0.112975 0.257462
H94   H     H_    0.351066 0.571426 0.113560 0.256518
H95   H     H_    0.353555 0.595985 0.059997 0.279064
O58   O     O_3   0.614515 0.458741 0.934618 -0.584839
C188  C     C_3   0.621623 0.419966 0.940114 0.031124
H96   H     H_    0.625378 0.411941 0.976562 0.121122
H97   H     H_    0.647393 0.412157 0.920988 0.159514
C189  C     C_3   0.588412 0.397914 0.920947 -0.305708
H98   H     H_    0.562123 0.408017 0.937024 0.230755
H99   H     H_    0.586361 0.402798 0.883664 0.235430
C190  C     C_3   0.592317 0.355953 0.929969 -0.900984
H100  H     H_    0.618343 0.345003 0.913977 0.265714
H101  H     H_    0.567846 0.340929 0.915307 0.272209
H102  H     H_    0.593122 0.350408 0.967164 0.243053
O59   O     O_3   0.534243 0.384628 0.071891 -0.585311
C191  C     C_3   0.572174 0.391665 0.060989 0.054265
H103  H     H_    0.574436 0.408079 0.028845 0.119556
H104  H     H_    0.587811 0.364759 0.057306 0.140273
C192  C     C_3   0.590003 0.414621 0.099194 -0.296346
H105  H     H_    0.575123 0.441900 0.102333 0.241973
H106  H     H_    0.587142 0.399249 0.131925 0.228610
C193  C     C_3   0.631508 0.421943 0.090000 -0.890955
H107  H     H_    0.647159 0.395046 0.088260 0.256512
H108  H     H_    0.643430 0.439235 0.117907 0.272019
H109  H     H_    0.635129 0.437276 0.057452 0.248097
O60   O     O_3   0.386097 0.565761 0.980896 -0.635525
C194  C     C_3   0.384282 0.574773 0.934190 0.047351
H110  H     H_    0.355197 0.583019 0.924616 0.149932
H111  H     H_    0.393425 0.550560 0.912806 0.153099
C195  C     C_3   0.410524 0.607789 0.924945 -0.332112
H112  H     H_    0.401925 0.632172 0.946111 0.215404
H113  H     H_    0.439607 0.599871 0.934487 0.236486
C196  C     C_3   0.409914 0.619119 0.874888 -0.857898
H114  H     H_    0.419112 0.595325 0.853160 0.257092
H115  H     H_    0.429359 0.643035 0.869444 0.266297
H116  H     H_    0.381201 0.627868 0.864697 0.255181
O61   O     O_3   0.465938 0.384829 0.928929 -0.589272
C197  C     C_3   0.426763 0.378767 0.930740 0.060813
H117  H     H_    0.415966 0.378744 0.966425 0.163701
H118  H     H_    0.419860 0.351470 0.914415 0.144602
C198  C     C_3   0.407004 0.410222 0.904810 -0.287627
H119  H     H_    0.413739 0.437557 0.921034 0.238887
H120  H     H_    0.417294 0.410872 0.869099 0.222271
C199  C     C_3   0.364525 0.404824 0.904673 -0.884392
H121  H     H_    0.357058 0.378289 0.887057 0.257451
H122  H     H_    0.351047 0.428552 0.886468 0.256518
H123  H     H_    0.353546 0.403998 0.940033 0.279096
O62   O     O_3   0.614516 0.541261 0.065381 -0.584840
C200  C     C_3   0.621620 0.580035 0.059877 0.031129
H124  H     H_    0.625368 0.588057 0.023426 0.121117
H125  H     H_    0.647393 0.587848 0.078994 0.159511
C201  C     C_3   0.588411 0.602086 0.079049 -0.305706
H126  H     H_    0.562120 0.591980 0.062980 0.230766
H127  H     H_    0.586366 0.597206 0.116334 0.235429
C202  C     C_3   0.592313 0.644047 0.070021 -0.900987
H128  H     H_    0.618340 0.655001 0.086005 0.265713
H129  H     H_    0.567843 0.659070 0.084687 0.272211
H130  H     H_    0.593111 0.649589 0.032825 0.243050
O63   O     O_3   0.534229 0.615375 0.928102 -0.585338
C203  C     C_3   0.572161 0.608339 0.939000 0.054278
H131  H     H_    0.574426 0.591929 0.971146 0.119551
H132  H     H_    0.587798 0.635246 0.942678 0.140276
C204  C     C_3   0.589986 0.585380 0.900795 -0.296342
H133  H     H_    0.575104 0.558102 0.897659 0.241975
H134  H     H_    0.587125 0.600751 0.868064 0.228603
C205  C     C_3   0.631491 0.578056 0.909987 -0.890949
H135  H     H_    0.647144 0.604953 0.911726 0.256509
H136  H     H_    0.643411 0.560763 0.882080 0.272019
H137  H     H_    0.635112 0.562724 0.942535 0.248094
O64   O     O_3   0.386072 0.434242 0.019108 -0.635540
C206  C     C_3   0.384332 0.425294 0.065837 0.047357
H138  H     H_    0.355245 0.417152 0.075525 0.149895
H139  H     H_    0.393597 0.449507 0.087140 0.153209
C207  C     C_3   0.410493 0.392208 0.075057 -0.332190
H140  H     H_    0.401758 0.367820 0.053989 0.215464
H141  H     H_    0.439573 0.400012 0.065377 0.236362
C208  C     C_3   0.409986 0.380968 0.125145 -0.857881
H142  H     H_    0.419330 0.404764 0.146771 0.257134
H143  H     H_    0.429361 0.356993 0.130568 0.266288
H144  H     H_    0.381274 0.372343 0.135479 0.255175
N1    N     N_R   0.046020 0.385146 0.564070 0.139664
O65   O     O_R   0.078296 0.371172 0.575953 -0.329027
O66   O     O_R   0.032135 0.412704 0.587716 -0.374279
N2    N     N_R   0.385107 0.954012 0.564068 0.139682
O67   O     O_R   0.371126 0.921752 0.575950 -0.329030
O68   O     O_R   0.412671 0.967898 0.587717 -0.374323
N3    N     N_R   0.953980 0.614884 0.564063 0.139738
O69   O     O_R   0.921707 0.628864 0.575949 -0.328427
O70   O     O_R   0.967865 0.587332 0.587708 -0.374222
N4    N     N_R   0.614892 0.046007 0.564071 0.139717
O71   O     O_R   0.628874 0.078271 0.575956 -0.328756
O72   O     O_R   0.587327 0.032129 0.587718 -0.374233
N5    N     N_R   0.046022 0.614855 0.435931 0.139664
O73   O     O_R   0.078297 0.628829 0.424048 -0.329028
O74   O     O_R   0.032137 0.587296 0.412285 -0.374279
N6    N     N_R   0.385108 0.045987 0.435932 0.139682
O75   O     O_R   0.371127 0.078247 0.424049 -0.329029
O76   O     O_R   0.412672 0.032101 0.412283 -0.374323
N7    N     N_R   0.953979 0.385116 0.435937 0.139739
O77   O     O_R   0.921705 0.371135 0.424051 -0.328426
O78   O     O_R   0.967864 0.412667 0.412292 -0.374222
N8    N     N_R   0.614892 0.953994 0.435929 0.139717
O79   O     O_R   0.628873 0.921730 0.424044 -0.328757
O80   O     O_R   0.587327 0.967871 0.412282 -0.374233
N9    N     N_R   0.546092 0.885388 0.064204 0.139730
O81   O     O_R   0.578457 0.871633 0.076109 -0.328521
O82   O     O_R   0.531992 0.912827 0.087867 -0.374613
N10   N     N_R   0.885110 0.454017 0.064073 0.139732
O83   O     O_R   0.871128 0.421758 0.075959 -0.328584
O84   O     O_R   0.912674 0.467904 0.087720 -0.374141
N11   N     N_R   0.454080 0.115130 0.063955 0.139644
O85   O     O_R   0.421905 0.129334 0.075844 -0.328873
O86   O     O_R   0.467753 0.087454 0.087569 -0.373983
N12   N     N_R   0.115085 0.546311 0.063740 0.139672
O87   O     O_R   0.129075 0.578627 0.075394 -0.329253
O88   O     O_R   0.087524 0.532548 0.087494 -0.373883
N13   N     N_R   0.546094 0.114611 0.935796 0.139730
O89   O     O_R   0.578459 0.128365 0.923890 -0.328522
O90   O     O_R   0.531992 0.087173 0.912132 -0.374615
N14   N     N_R   0.885111 0.545982 0.935926 0.139732
O91   O     O_R   0.871130 0.578241 0.924040 -0.328584
O92   O     O_R   0.912675 0.532095 0.912279 -0.374140
N15   N     N_R   0.454079 0.884871 0.936044 0.139644
O93   O     O_R   0.421903 0.870668 0.924156 -0.328875
O94   O     O_R   0.467753 0.912546 0.912431 -0.373986
N16   N     N_R   0.115090 0.453693 0.936262 0.139671
O95   O     O_R   0.129084 0.421378 0.924608 -0.329249
O96   O     O_R   0.087526 0.467450 0.912509 -0.373876

loop_
_geom_bond_atom_site_label_1
_geom_bond_atom_site_label_2
_geom_bond_distance
_ccdc_geom_bond_type
N11   O85   1.301370 A    
C105  C145  1.394281 A    
C204  H134  1.111572 S    
C171  C172  1.525997 S    
O25   C13   1.306216 A    
C208  H142  1.110965 S    
C118  C150  1.394281 A    
C119  C135  1.402415 A    
C10   C18   1.504999 S    
C135  N15   1.438286 S    
C184  H86   1.110647 S    
C7    C143  1.477034 S    
C174  H63   1.111731 S    
C169  H51   1.110713 S    
C14   C22   1.504999 S    
C131  C143  1.420167 A    
C2    C138  1.477034 S    
O18   Cu2   1.831858 S    
C74   C153  1.474214 S    
N12   O88   1.301113 A    
O10   Cu6   1.948536 S    
C166  H44   1.110651 S    
C61   O53   1.382264 S    
C22   C30   1.247074 T    
C58   O50   1.385330 S    
C161  H34   1.114663 S    
C205  H137  1.109056 S    
C175  H67   1.109334 S    
Cu1   Cu3   2.656798 S    
Cu2   Cu4   2.657948 S    
C170  H55   1.112196 S    
O3    C3    1.290461 A    
C181  H79   1.110709 S    
C91   C99   1.203656 T    
C127  N7    1.438303 S    
C134  C142  1.420249 A    
C87   C95   1.435923 S    
C205  H136  1.110246 S    
C58   C74   1.411269 A    
C79   C158  1.477104 S    
O5    Cu1   1.949357 S    
C67   O59   1.382231 S    
C72   O64   1.382751 S    
C188  H97   1.112128 S    
O56   C182  1.414749 S    
C180  H77   1.111729 S    
C44   H4    1.083490 S    
C179  C180  1.527370 S    
C51   H11   1.083811 S    
C206  C207  1.528015 S    
C199  H122  1.110343 S    
O17   C9    1.306222 A    
C185  H89   1.116722 S    
C189  C190  1.525957 S    
C80   C159  1.465436 S    
C127  C137  1.420259 A    
C197  H118  1.112528 S    
N7    O78   1.301107 A    
C125  C139  1.420257 A    
C56   C88   1.399258 A    
O36   C156  1.244285 A    
O58   C188  1.414917 S    
C181  H81   1.109333 S    
O45   C157  1.243773 A    
C100  C148  1.436508 S    
C123  N3    1.438300 S    
C112  C148  1.394293 A    
C186  C187  1.526253 S    
C45   C61   1.399747 A    
C70   O62   1.385548 S    
C47   H7    1.083798 S    
C163  H38   1.110243 S    
N2    O67   1.301376 A    
C104  C152  1.439655 S    
C165  H43   1.111454 S    
O26   Cu6   1.831858 S    
C34   C39   1.247159 T    
C196  H114  1.111081 S    
C208  H144  1.110902 S    
O40   C154  1.244285 A    
C197  C198  1.527946 S    
C173  H61   1.114053 S    
C105  H17   1.084029 S    
O27   C13   1.306227 A    
O8    Cu2   1.948537 S    
C184  H88   1.110814 S    
O31   C15   1.306225 A    
O36   Cu9   1.944539 S    
C174  C175  1.526355 S    
O32   C16   1.306563 A    
C202  H129  1.110495 S    
C185  C186  1.527947 S    
C115  C151  1.394465 A    
C194  H110  1.113675 S    
C120  C136  1.403489 A    
C200  H125  1.112128 S    
C42   C82   1.396663 A    
C183  C184  1.526001 S    
O9    C5    1.290794 A    
N16   O95   1.301381 A    
O11   C7    1.290140 A    
C187  H93   1.110729 S    
C192  C193  1.526299 S    
C4    C140  1.477027 S    
C128  N8    1.438297 S    
O16   Cu6   1.948537 S    
C114  C130  1.402236 A    
O38   C156  1.244307 A    
C77   C160  1.477106 S    
O7    Cu3   1.949361 S    
C124  C140  1.420260 A    
C70   C78   1.411403 A    
C190  H100  1.110651 S    
C118  C134  1.402240 A    
O6    Cu4   1.948541 S    
C195  H112  1.111870 S    
C179  H76   1.114660 S    
N3    O70   1.301112 A    
C107  C147  1.394286 A    
O34   Cu9   1.944623 S    
N8    O80   1.301099 A    
O44   C160  1.244397 A    
Cu5   Cu7   2.656798 S    
C29   C37   1.479068 S    
C206  H138  1.113619 S    
C110  H22   1.084024 S    
C133  N13   1.438321 S    
O41   C157  1.243772 A    
C31   C39   1.479068 S    
C193  H107  1.110706 S    
C27   C35   1.479068 S    
O21   Cu1   1.831888 S    
N1    O65   1.301388 A    
N11   O86   1.301115 A    
Cu9   Cu10  2.495261 S    
O23   C11   1.306219 A    
N15   O94   1.301111 A    
O49   C161  1.412139 S    
O34   C154  1.244307 A    
C26   C34   1.479068 S    
C191  H103  1.113978 S    
O13   C7    1.290795 A    
C116  C132  1.403488 A    
C162  H35   1.111729 S    
O60   C194  1.410778 S    
C66   C78   1.411403 A    
O2    Cu2   1.948536 S    
C19   C27   1.247071 T    
C114  C150  1.394282 A    
C52   H12   1.083587 S    
C94   C102  1.203670 T    
C177  H71   1.111454 S    
O50   C164  1.414752 S    
O7    C1    1.290459 A    
C198  C199  1.526255 S    
C203  C204  1.527462 S    
O28   C14   1.306563 A    
O26   C14   1.306536 A    
O29   C15   1.306218 A    
C97   C145  1.436467 S    
C11   C19   1.504999 S    
O35   Cu9   1.943750 S    
O29   Cu5   1.831888 S    
C175  H66   1.110242 S    
C44   C60   1.404501 A    
C51   C67   1.399898 A    
C101  C149  1.436526 S    
C48   H8    1.083486 S    
O19   Cu3   1.831891 S    
C51   C87   1.396468 A    
C176  H69   1.112197 S    
C102  C150  1.436465 S    
C54   C86   1.396611 A    
C43   C59   1.399731 A    
C183  H84   1.109349 S    
C161  C162  1.527366 S    
C187  H95   1.110424 S    
C67   C79   1.414218 A    
N6    O75   1.301372 A    
C180  H78   1.111553 S    
O15   Cu7   1.949361 S    
C47   C63   1.399731 A    
C172  H58   1.110648 S    
C122  C138  1.420253 A    
C60   C76   1.411265 A    
O59   C191  1.411873 S    
C189  H99   1.111457 S    
C119  C149  1.394463 A    
C105  C121  1.402238 A    
C203  H131  1.113982 S    
C164  H41   1.112198 S    
C20   C28   1.247071 T    
O32   Cu6   1.831940 S    
C107  H19   1.084027 S    
C207  H140  1.111761 S    
C5    C141  1.477030 S    
C48   C64   1.404502 A    
C46   H6    1.083487 S    
O18   C10   1.306531 A    
C198  H120  1.111565 S    
C194  C195  1.527997 S    
O22   Cu4   1.831855 S    
C178  H74   1.110814 S    
C120  C152  1.394857 A    
O47   Cu12  1.943751 S    
O23   Cu3   1.831887 S    
C201  H126  1.109390 S    
O42   Cu11  1.944623 S    
C108  C124  1.402247 A    
C73   C156  1.477145 S    
C28   C36   1.479068 S    
C64   O56   1.385330 S    
O12   C8    1.291598 A    
C169  H52   1.110243 S    
C191  C192  1.527464 S    
C162  C163  1.526355 S    
O14   C6    1.290794 A    
C6    C142  1.476995 S    
C32   C40   1.479068 S    
C200  H124  1.116416 S    
C8    C144  1.480181 S    
C124  N4    1.438296 S    
C82   C90   1.435974 S    
N13   O90   1.301097 A    
C190  H102  1.110817 S    
C126  C138  1.420252 A    
C182  C183  1.528474 S    
C106  H18   1.084023 S    
C109  C147  1.394281 A    
O30   Cu8   1.831855 S    
C167  H47   1.114049 S    
C169  H53   1.109334 S    
C49   H9    1.083536 S    
C111  C127  1.402246 A    
C181  H80   1.110246 S    
N5    O74   1.301097 A    
C111  C145  1.394287 A    
C53   H13   1.083538 S    
C129  N9    1.438322 S    
C166  H46   1.110815 S    
C106  C146  1.394288 A    
C42   H2    1.083488 S    
O51   C167  1.412145 S    
C43   C83   1.396601 A    
C188  H96   1.116414 S    
Cu11  Cu12  2.495261 S    
O10   C6    1.290792 A    
C41   C81   1.396609 A    
C69   C79   1.411885 A    
C3    C139  1.477006 S    
C81   C89   1.435736 S    
C116  C152  1.394857 A    
C206  H139  1.116190 S    
C132  N12   1.438251 S    
C172  H60   1.110816 S    
C1    C137  1.477003 S    
C52   C68   1.404363 A    
C15   C23   1.504999 S    
C185  H90   1.112529 S    
C16   C24   1.504999 S    
O2    C2    1.290801 A    
C54   C70   1.404651 A    
O33   C153  1.243729 A    
C56   C72   1.404314 A    
O47   C159  1.241121 A    
C171  H56   1.109353 S    
N9    O82   1.301093 A    
N4    O71   1.301383 A    
C49   C85   1.396439 A    
O31   Cu7   1.831887 S    
C192  H105  1.111717 S    
O33   Cu9   1.943747 S    
C168  H49   1.111730 S    
O45   Cu12  1.943746 S    
C99   C147  1.436467 S    
O43   Cu11  1.943750 S    
C186  H92   1.111565 S    
C108  H20   1.084024 S    
N2    O68   1.301107 A    
C178  H72   1.110650 S    
C43   H3    1.083798 S    
O21   C11   1.306224 A    
C204  C205  1.526301 S    
O48   C158  1.244396 A    
C208  H143  1.110480 S    
O22   C12   1.306531 A    
C173  H62   1.114659 S    
C163  H39   1.109337 S    
C184  H87   1.110473 S    
O13   Cu5   1.949357 S    
C174  H64   1.111553 S    
C57   O49   1.382266 S    
C68   C80   1.406146 A    
N7    O77   1.301375 A    
C134  N14   1.438295 S    
C202  H130  1.110817 S    
O62   C200  1.414916 S    
C50   H10   1.083480 S    
C200  C201  1.528522 S    
O3    Cu3   1.949361 S    
N12   O87   1.301382 A    
C163  H37   1.110710 S    
C121  N1    1.438300 S    
O57   C185  1.413912 S    
C54   H14   1.083477 S    
C173  C174  1.527368 S    
N15   O93   1.301371 A    
C161  H33   1.114052 S    
C62   C74   1.411268 A    
C125  N5    1.438301 S    
O37   C153  1.243729 A    
N16   O96   1.301116 A    
C170  H54   1.116327 S    
C167  C168  1.527369 S    
C107  C123  1.402246 A    
C83   C91   1.435732 S    
C114  H26   1.084023 S    
C187  H94   1.110343 S    
C170  C171  1.528470 S    
C192  H106  1.111570 S    
C128  C140  1.420261 A    
C129  C141  1.420352 A    
C50   C86   1.396611 A    
C118  H30   1.084021 S    
C72   C80   1.406146 A    
O48   Cu12  1.944543 S    
C68   O60   1.382803 S    
C205  H135  1.110706 S    
O9    Cu5   1.949365 S    
C195  H113  1.110342 S    
C117  C151  1.394120 A    
C188  C189  1.528519 S    
O11   Cu7   1.949361 S    
O41   Cu11  1.943747 S    
O61   C197  1.413914 S    
C132  C144  1.420728 A    
C112  C128  1.402247 A    
C71   O63   1.382232 S    
O1    C1    1.290461 A    
C71   C77   1.414221 A    
C17   C25   1.247071 T    
C199  H121  1.110726 S    
C75   C154  1.477145 S    
C193  H108  1.110245 S    
C177  C178  1.526000 S    
O5    C3    1.290459 A    
C86   C94   1.435917 S    
C195  C196  1.525241 S    
C197  H117  1.116726 S    
N14   O92   1.301109 A    
C9    C17   1.504999 S    
O42   C158  1.244440 A    
C168  H50   1.111551 S    
C119  H31   1.084018 S    
C49   C65   1.404161 A    
C12   C20   1.504999 S    
C13   C21   1.504999 S    
C191  H104  1.114792 S    
C115  C131  1.402418 A    
O17   Cu1   1.831890 S    
C193  H109  1.109056 S    
C113  C129  1.402104 A    
O55   C179  1.412147 S    
C55   C71   1.399892 A    
C165  H42   1.109352 S    
C133  C143  1.420349 A    
N10   O84   1.301106 A    
C41   C57   1.399746 A    
C204  H133  1.111715 S    
C196  H115  1.110491 S    
C117  C133  1.402105 A    
C92   C100  1.203695 T    
C93   C101  1.203700 T    
C23   C31   1.247071 T    
C88   C96   1.439025 S    
O14   Cu8   1.948541 S    
C96   C104  1.205587 T    
C30   C38   1.479068 S    
O53   C173  1.412140 S    
C202  H128  1.110655 S    
C126  N6    1.438293 S    
C182  H82   1.116327 S    
C84   C92   1.435974 S    
C110  C126  1.402250 A    
C85   C93   1.435922 S    
C59   C75   1.414404 A    
C176  H68   1.116323 S    
C177  H70   1.109351 S    
C56   H16   1.083580 S    
C122  N2    1.438294 S    
O8    C4    1.290803 A    
C57   C73   1.414397 A    
O4    Cu4   1.948533 S    
O28   Cu8   1.831943 S    
C109  C125  1.402238 A    
O35   C155  1.243729 A    
O52   C170  1.414750 S    
C183  H85   1.111455 S    
C120  H32   1.083983 S    
C135  C141  1.420168 A    
C95   C103  1.203700 T    
C25   C33   1.479068 S    
C69   O61   1.384642 S    
N6    O76   1.301113 A    
C168  C169  1.526354 S    
C117  H29   1.084034 S    
C131  N11   1.438284 S    
C113  C149  1.394122 A    
C63   C73   1.414402 A    
C18   C26   1.247071 T    
C48   C84   1.396660 A    
C112  H24   1.084024 S    
C62   O54   1.385329 S    
O63   C203  1.411876 S    
C201  C202  1.525959 S    
C60   O52   1.385333 S    
C98   C146  1.436512 S    
C164  H40   1.116324 S    
C110  C146  1.394288 A    
C78   C157  1.474361 S    
O37   Cu10  1.943746 S    
C53   C87   1.396439 A    
C89   C97   1.203656 T    
C108  C148  1.394294 A    
N8    O79   1.301382 A    
O16   C8    1.291594 A    
C207  H141  1.110236 S    
C50   C66   1.404654 A    
C47   C81   1.396597 A    
C199  H123  1.110420 S    
C61   C75   1.414399 A    
O43   C159  1.241122 A    
C35   C38   1.247159 T    
C130  N10   1.438297 S    
C194  H111  1.116267 S    
O25   Cu5   1.831890 S    
O6    C2    1.290803 A    
Cu6   Cu8   2.657948 S    
C178  H73   1.110473 S    
N1    O66   1.301096 A    
O27   Cu7   1.831891 S    
C36   C37   1.247159 T    
C42   C58   1.404497 A    
C201  H127  1.111458 S    
N10   O83   1.301374 A    
C130  C142  1.420248 A    
C162  H36   1.111550 S    
O39   C155  1.243729 A    
C90   C98   1.203695 T    
C123  C139  1.420257 A    
C196  H116  1.111007 S    
O19   C9    1.306221 A    
C76   C155  1.474222 S    
C121  C137  1.420260 A    
C165  C166  1.525999 S    
C106  C122  1.402250 A    
N13   O89   1.301387 A    
O24   C12   1.306571 A    
C190  H101  1.110496 S    
C66   O58   1.385554 S    
N14   O91   1.301373 A    
C182  H83   1.112194 S    
O24   Cu2   1.831940 S    
O12   Cu8   1.948533 S    
C207  C208  1.525238 S    
C175  H65   1.110710 S    
C53   C69   1.404157 A    
C167  H48   1.114660 S    
C46   C62   1.404498 A    
O40   Cu10  1.944543 S    
O44   Cu11  1.944539 S    
O46   C160  1.244440 A    
C45   H5    1.083797 S    
O54   C176  1.414755 S    
O64   C206  1.410745 S    
C176  C177  1.528471 S    
C21   C29   1.247071 T    
C166  H45   1.110472 S    
C45   C83   1.396608 A    
C111  H23   1.084028 S    
C64   C76   1.411267 A    
O30   C16   1.306536 A    
C203  H132  1.114788 S    
C65   O57   1.384641 S    
C55   C85   1.396464 A    
O4    C4    1.290801 A    
C115  H27   1.084016 S    
C180  C181  1.526354 S    
C109  H21   1.084026 S    
C179  H75   1.114049 S    
C113  H25   1.084035 S    
C172  H59   1.110473 S    
C55   H15   1.083812 S    
O20   Cu4   1.831943 S    
N5    O73   1.301383 A    
C198  H119  1.111172 S    
C41   H1    1.083794 S    
C116  H28   1.083981 S    
C103  C151  1.436527 S    
O20   C10   1.306571 A    
C189  H98   1.109390 S    
C33   C40   1.247159 T    
C63   O55   1.382267 S    
C171  H57   1.111454 S    
C24   C32   1.247074 T    
C136  N16   1.438252 S    
N9    O81   1.301391 A    
C52   C88   1.399264 A    
C164  C165  1.528470 S    
N4    O72   1.301102 A    
C46   C82   1.396661 A    
O46   Cu12  1.944620 S    
N3    O69   1.301374 A    
C59   O51   1.382265 S    
O15   C5    1.290141 A    
C44   C84   1.396658 A    
C136  C144  1.420723 A    
C65   C77   1.411888 A    
C186  H91   1.111174 S    
O38   Cu10  1.944620 S    
O39   Cu10  1.943751 S    
O1    Cu1   1.949365 S    
