data_mof_unit_51807.cif
_audit_creation_date              2012-12-11T14:56:38-0500
_audit_creation_method            fapswitch 2.2
_symmetry_space_group_name_H-M    P1
_symmetry_Int_Tables_number       1
_space_group_crystal_system       triclinic
_cell_length_a                    10.512191
_cell_length_b                    10.77764
_cell_length_c                    17.103505
_cell_angle_alpha                 80.167068
_cell_angle_beta                  89.925371
_cell_angle_gamma                 119.961256
_cell_volume                      1645.61799017

loop_
_atom_site_label
_atom_site_type_symbol
_atom_type_description
_atom_site_fract_x
_atom_site_fract_y
_atom_site_fract_z
_atom_type_partial_charge
C1    C     C_R   0.222983 0.854456 0.128687 0.547568
C2    C     C_R   0.689939 0.229337 0.312453 -0.126536
C3    C     C_R   0.680695 0.198351 0.236824 -0.149487
C4    C     C_R   0.615934 0.252742 0.180037 0.043479
C5    C     C_1   0.685894 0.832498 0.201692 -0.052501
C6    C     C_1   0.704118 0.807932 0.270349 -0.048513
C7    C     C_1   0.181138 0.826212 0.211317 -0.034546
C8    C     C_1   0.151876 0.820918 0.279819 -0.031954
C9    C     C_1   0.618555 0.260799 0.775178 -0.062468
C10   C     C_1   0.631946 0.304072 0.704598 -0.050524
C11   C     C_R   0.626544 0.716236 0.807304 -0.151088
C12   C     C_R   0.611328 0.215128 0.102152 0.560205
C13   C     C_R   0.610431 0.698136 0.729757 0.055924
C14   C     C_R   0.671916 0.822038 0.666979 0.042039
C15   C     C_R   0.759200 0.963831 0.683549 -0.017367
C16   C     C_R   0.780661 0.978870 0.762838 0.079257
C17   C     C_R   0.699651 0.855047 0.824472 -0.001429
C18   C     C_R   0.083987 0.879877 0.789375 -0.137894
C19   C     C_R   0.067128 0.875270 0.710262 -0.130800
C20   C     C_R   0.120787 0.803680 0.670752 0.046663
C21   C     C_R   0.182143 0.725893 0.713030 -0.028850
C22   C     C_R   0.198269 0.731160 0.793209 -0.103419
C23   C     C_R   0.644052 0.856149 0.124278 0.542684
C24   C     C_R   0.155954 0.814127 0.829918 0.018423
C25   C     C_R   0.711856 0.772748 0.353370 0.559528
C26   C     C_R   0.680896 0.383992 0.399904 0.533569
C27   C     C_R   0.103771 0.810791 0.359241 0.546501
C28   C     C_R   0.678070 0.798716 0.586490 0.566685
C29   C     C_R   0.673890 0.373837 0.623013 0.554182
C30   C     C_R   0.092015 0.799432 0.588611 0.547901
C31   C     C_R   0.217851 0.859037 0.902018 0.542245
C32   C     C_R   0.612421 0.219238 0.859260 0.563179
C33   C     C_R   0.649772 0.867967 0.899818 0.539708
C34   C     C_R   0.551496 0.333185 0.200893 -0.011885
C35   C     C_R   0.559179 0.360331 0.277731 -0.113838
C36   C     C_R   0.633647 0.314616 0.331943 0.017180
Cr1   Cr    Cr6+3 0.402240 0.783890 0.019450 1.009908
Cr2   Cr    Cr6+3 0.382360 0.097900 0.991800 1.008328
Cr3   Cr    Cr6+3 0.715380 0.118170 0.988700 1.010337
Cr4   Cr    Cr6+3 0.936650 0.882420 0.465510 1.013779
Cr5   Cr    Cr6+3 0.605770 0.565620 0.493360 1.034517
Cr6   Cr    Cr6+3 0.921340 0.550490 0.496380 1.009396
H1    H     H_    0.012855 0.929636 0.679732 0.155534
H2    H     H_    0.253588 0.679104 0.825250 0.143533
H3    H     H_    0.517151 0.427546 0.293279 0.135484
H4    H     H_    0.747663 0.193219 0.354330 0.141216
H5    H     H_    0.727023 0.134229 0.221960 0.128792
H6    H     H_    0.572048 0.620209 0.854791 0.142086
H7    H     H_    0.049043 0.942193 0.817441 0.138062
O1    O     O_R   0.521780 0.757110 0.108900 -0.515754
O2    O     O_R   0.513330 0.228330 0.898660 -0.488716
O3    O     O_R   0.739230 0.266130 0.888050 -0.510876
O4    O     O_R   0.712580 0.991850 0.918770 -0.524141
O5    O     O_3   0.499990 0.999980 0.999980 -0.285439
O6    O     O_R   0.083770 0.911170 0.376030 -0.510354
O7    O     O_R   0.808770 0.880340 0.383890 -0.496187
O8    O     O_R   0.584340 0.689460 0.394160 -0.510274
O9    O     O_R   0.614320 0.443940 0.423590 -0.525139
O10   O     O_R   0.805020 0.410040 0.421340 -0.518750
O11   O     O_R   0.049240 0.685450 0.403290 -0.493656
O12   O     O_R   0.275160 0.783810 0.101120 -0.488355
O13   O     O_R   0.077520 0.903010 0.551800 -0.527109
O14   O     O_R   0.802980 0.872780 0.546830 -0.516129
O15   O     O_R   0.578090 0.681300 0.569920 -0.475285
O16   O     O_R   0.608530 0.436370 0.586530 -0.470549
O17   O     O_R   0.798770 0.401880 0.597100 -0.530360
O18   O     O_R   0.043450 0.677890 0.566230 -0.500447
O19   O     O_3   0.821250 0.666180 0.485090 -0.270213
O20   O     O_R   0.237900 0.972600 0.090980 -0.519847
O21   O     O_R   0.511190 0.220540 0.061620 -0.506586
O22   O     O_R   0.736920 0.257720 0.063840 -0.500407
O23   O     O_R   0.710450 0.984050 0.081720 -0.511459
O24   O     O_R   0.524090 0.765520 0.933110 -0.525026
O25   O     O_R   0.277300 0.791600 0.938160 -0.505696
O26   O     O_R   0.240210 0.981010 0.915190 -0.524498
C37   C     C_3   0.483166 0.399683 0.142841 -0.354656
H8    H     H_    0.456341 0.472624 0.168727 0.133616
H9    H     H_    0.561341 0.466862 0.088637 0.158606
H10   H     H_    0.378027 0.312510 0.126758 0.160432
C38   C     C_3   0.237235 0.644331 0.673704 -0.367312
H11   H     H_    0.143262 0.547528 0.656269 0.168030
H12   H     H_    0.315500 0.717411 0.620426 0.144430
H13   H     H_    0.295643 0.604241 0.714891 0.127733
N1    N     N_3   0.536649 0.552094 0.715712 -0.571185
H14   H     H_    0.593803 0.503325 0.742645 0.235873
H15   H     H_    0.430665 0.494961 0.745875 0.217556
C39   C     C_3   0.829815 0.098656 0.617531 -0.345489
H16   H     H_    0.858066 0.198935 0.639998 0.181067
H17   H     H_    0.933281 0.113656 0.589766 0.149852
H18   H     H_    0.752445 0.089072 0.571634 0.120885
N2    N     N_3   0.887773 0.118543 0.779055 -0.641941
H19   H     H_    0.947828 0.104552 0.824922 0.239744
H20   H     H_    0.833649 0.170188 0.795474 0.269213

loop_
_geom_bond_atom_site_label_1
_geom_bond_atom_site_label_2
_ccdc_geom_bond_type
Cr1   O25   S    
Cr2   O21   S    
C35   C36   A    
C25   O7    A    
C39   H16   S    
C7    C8    T    
C20   C30   S    
C2    H4    S    
C13   N1    S    
Cr4   O14   S    
C25   O8    A    
C18   C24   A    
N1    H15   S    
Cr5   O9    S    
C18   C19   A    
C27   O11   A    
C5    C6    T    
C27   O6    A    
C6    C25   S    
C2    C36   A    
C15   C16   A    
Cr4   O13   S    
C34   C35   A    
C32   O3    A    
C12   O21   A    
C9    C32   S    
C22   H2    S    
C19   C20   A    
C16   C17   A    
Cr4   O7    S    
Cr2   O5    S    
Cr3   O23   S    
C37   H10   S    
C4    C12   S    
C26   O10   A    
C30   O18   A    
Cr3   O3    S    
Cr2   O20   S    
C21   C22   A    
Cr6   O19   S    
C11   H6    S    
C17   C33   S    
C38   H13   S    
C19   H1    S    
Cr5   O19   S    
Cr2   O26   S    
C33   O4    A    
C4    C34   A    
C37   H8    S    
C38   H12   S    
Cr6   O11   S    
N2    H19   S    
C23   O1    A    
Cr5   O16   S    
Cr2   O2    S    
C1    O20   A    
C32   O2    A    
N2    H20   S    
C31   O26   A    
C5    C23   S    
Cr4   O6    S    
N1    H14   S    
C26   O9    A    
C29   O16   A    
Cr1   O5    S    
C28   O15   A    
C33   O24   A    
C12   O22   A    
C30   O13   A    
Cr6   O18   S    
C22   C24   A    
C3    C4    A    
C35   H3    S    
C15   C39   S    
C9    C10   T    
C26   C36   S    
Cr1   O24   S    
C11   C17   A    
C1    C7    S    
C23   O23   A    
C37   H9    S    
C38   H11   S    
C31   O25   A    
C1    O12   A    
Cr6   O10   S    
Cr1   O12   S    
C39   H17   S    
C2    C3    A    
C24   C31   S    
Cr5   O8    S    
Cr1   O1    S    
C11   C13   A    
C10   C29   S    
Cr3   O4    S    
C21   C38   S    
C3    H5    S    
C29   O17   A    
Cr3   O5    S    
C28   O14   A    
C20   C21   A    
C16   N2    S    
Cr4   O19   S    
C39   H18   S    
Cr6   O17   S    
C8    C27   S    
Cr3   O22   S    
C14   C15   A    
Cr5   O15   S    
C14   C28   S    
C13   C14   A    
C18   H7    S    
C34   C37   S    
