data_mof_unit_12371.cif
_audit_creation_date              2012-12-11T14:27:09-0500
_audit_creation_method            fapswitch 2.2
_symmetry_space_group_name_H-M    P1
_symmetry_Int_Tables_number       1
_space_group_crystal_system       triclinic
_cell_length_a                    15.009682
_cell_length_b                    14.895708
_cell_length_c                    14.919221
_cell_angle_alpha                 109.571281
_cell_angle_beta                  109.532868
_cell_angle_gamma                 109.304211
_cell_volume                      2567.93037557

loop_
_atom_site_label
_atom_site_type_symbol
_atom_type_description
_atom_site_fract_x
_atom_site_fract_y
_atom_site_fract_z
_atom_type_partial_charge
C1    C     C_R   0.935278 0.752194 0.029578 -0.132975
C2    C     C_R   0.677569 0.229750 0.676521 0.135641
C3    C     C_R   0.050542 0.500446 0.691874 0.139719
C4    C     C_R   0.697401 0.499097 0.063112 0.026597
C5    C     C_R   0.066099 0.591231 0.312927 -0.146981
C6    C     C_R   0.222645 0.407784 0.975536 -0.136093
C7    C     C_R   0.303056 0.797764 0.212625 -0.156791
C8    C     C_R   0.905449 0.195887 0.992616 -0.164483
C9    C     C_R   0.997194 0.196586 0.902683 -0.129776
C10   C     C_R   0.210922 0.799431 0.302685 -0.132194
C11   C     C_R   0.975454 0.407698 0.220562 -0.114976
C12   C     C_R   0.779185 0.253854 0.686962 -0.147689
C13   C     C_R   0.314040 0.591474 0.066598 -0.131017
C14   C     C_R   0.053010 0.499395 0.323061 0.132350
C15   C     C_R   0.325132 0.499321 0.051172 0.033921
C16   C     C_R   0.307673 0.858324 0.308370 0.143283
C17   C     C_R   0.932685 0.131995 0.928641 0.143532
C18   C     C_3   0.535827 0.505124 0.965028 0.332114
C19   C     C_3   0.435600 0.508964 0.965095 -0.465531
C20   C     C_3   0.525373 0.389886 0.059306 -0.062576
C21   C     C_3   0.631427 0.598368 0.172312 -0.477949
C22   C     C_3   0.599926 0.497240 0.065999 0.184885
C23   C     C_R   0.085127 0.591486 0.787668 -0.158068
C24   C     C_3   0.425715 0.498373 0.061793 0.306862
C25   C     C_3   0.420854 0.389770 0.053512 -0.442649
C26   C     C_3   0.527961 0.595286 0.172406 -0.396663
C27   C     C_2   0.384085 0.039590 0.464967 -0.126880
C28   C     C_2   0.396013 0.968542 0.392940 -0.201600
C29   C     C_2   0.479750 0.137603 0.565758 -0.068682
C30   C     C_2   0.577681 0.179760 0.573420 -0.182777
C31   C     C_2   0.075083 0.418633 0.536198 -0.103168
C32   C     C_2   0.077135 0.504017 0.607813 -0.196157
C33   C     C_2   0.071237 0.411986 0.434529 -0.103351
C34   C     C_R   0.700923 0.408390 0.003959 -0.024646
C35   C     C_2   0.106745 0.502208 0.426009 -0.188600
C36   C     C_2   0.924561 0.958556 0.833072 -0.115515
C37   C     C_2   0.885112 0.013854 0.883164 -0.193437
C38   C     C_2   0.922522 0.861130 0.837833 -0.107815
C39   C     C_2   0.908473 0.840426 0.914404 -0.175070
C40   C     C_R   0.997331 0.408913 0.697426 -0.126948
C41   C     C_R   0.788860 0.590824 0.092716 -0.149362
C42   C     C_R   0.687885 0.254205 0.778800 -0.100529
C43   C     C_R   0.027413 0.752280 0.938145 -0.114365
C44   C     C_R   0.952869 0.780594 0.955427 0.129686
H1    H     H_    0.882819 0.764238 0.061502 0.095090
H2    H     H_    0.200288 0.322289 0.939176 0.098859
H3    H     H_    0.357933 0.827105 0.184170 0.091793
H4    H     H_    0.842637 0.165813 0.012348 0.091576
H5    H     H_    0.017588 0.168168 0.839664 0.084474
H6    H     H_    0.181971 0.829045 0.357231 0.085464
H7    H     H_    0.945973 0.322453 0.197994 0.093338
H8    H     H_    0.377886 0.676162 0.112819 0.089354
H9    H     H_    0.588953 0.582438 0.971289 0.084941
H10   H     H_    0.442690 0.588202 0.972222 0.139532
H11   H     H_    0.798843 0.243834 0.622255 0.099617
H12   H     H_    0.360321 0.442475 0.885658 0.212120
H13   H     H_    0.499813 0.316497 0.983083 0.139397
H14   H     H_    0.351141 0.317712 0.973675 0.154862
H15   H     H_    0.683187 0.600030 0.247053 0.190589
H16   H     H_    0.679244 0.676280 0.176561 0.152613
H17   H     H_    0.533678 0.675479 0.186217 0.150759
H18   H     H_    0.523747 0.585393 0.241826 0.175904
H19   H     H_    0.407698 0.379019 0.119294 0.166378
H20   H     H_    0.305062 0.017743 0.459161 0.127840
H21   H     H_    0.142676 0.675378 0.816574 0.092342
H22   H     H_    0.474631 0.987279 0.398848 0.129750
H23   H     H_    0.471627 0.161687 0.638415 0.151473
H24   H     H_    0.584951 0.162028 0.500290 0.127451
H25   H     H_    0.058368 0.345114 0.542677 0.120286
H26   H     H_    0.090785 0.577148 0.601311 0.129609
H27   H     H_    0.020826 0.330773 0.362117 0.115617
H28   H     H_    0.163280 0.582844 0.498796 0.130410
H29   H     H_    0.977899 0.995314 0.806091 0.115478
H30   H     H_    0.826460 0.975850 0.904445 0.127772
H31   H     H_    0.955212 0.820914 0.793804 0.116807
H32   H     H_    0.647884 0.323478 0.975984 0.076414
H33   H     H_    0.876870 0.879585 0.960501 0.124076
H34   H     H_    0.972461 0.324979 0.643267 0.083468
H35   H     H_    0.817101 0.675693 0.147285 0.085765
H36   H     H_    0.625089 0.245933 0.800456 0.120763
H37   H     H_    0.061187 0.765749 0.887353 0.089505
H38   H     H_    0.120371 0.675839 0.377626 0.099029
N1    N     N_R   0.993980 0.704500 0.053430 -0.042530
N2    N     N_R   0.154170 0.443650 0.946570 -0.039041
N3    N     N_R   0.207180 0.704490 0.150760 -0.038633
N4    N     N_R   0.948740 0.295490 0.002840 -0.040441
N5    N     N_R   0.006020 0.295500 0.946570 -0.041512
N6    N     N_R   0.149890 0.704480 0.207030 -0.042013
N7    N     N_R   0.946310 0.443620 0.150760 -0.048889
N8    N     N_R   0.209610 0.556360 0.002840 -0.037595
N9    N     N_R   0.850110 0.295520 0.792970 -0.042115
N10   N     N_R   0.053690 0.556380 0.849240 -0.038834
N11   N     N_R   0.790390 0.443640 0.997160 -0.042281
N12   N     N_R   0.998260 0.443670 0.792970 -0.041001
N13   N     N_R   0.845830 0.556350 0.053430 -0.032589
N14   N     N_R   0.792820 0.295510 0.849240 -0.050873
N15   N     N_R   0.051260 0.704510 0.997160 -0.044300
N16   N     N_R   0.001740 0.556330 0.207030 -0.043074
Ni1   Ni    Ni4+2 0.997880 0.629240 0.129060 0.213476
Ni2   Ni    Ni4+2 0.002120 0.370760 0.870940 0.211939
Ni3   Ni    Ni4+2 0.129260 0.629260 0.000000 0.213901
Ni4   Ni    Ni4+2 0.870740 0.370740 0.000000 0.211552
Cl1   Cl    Cl    0.495416 0.394970 0.834953 -0.724967
C45   C     C_1   0.582406 0.376995 0.152234 0.035336
N17   N     N_1   0.627178 0.366947 0.224970 -0.089305

loop_
_geom_bond_atom_site_label_1
_geom_bond_atom_site_label_2
_ccdc_geom_bond_type
C19   H12   S    
C16   C28   S    
C21   C26   S    
C42   H36   S    
C20   C25   S    
N14   Ni4   S    
C13   N8    A    
C27   C29   S    
C12   N9    A    
C3    C23   A    
C34   N11   A    
C37   H30   S    
C2    C12   A    
C7    N3    A    
C10   N6    A    
C42   N14   A    
C39   H33   S    
C36   C37   D    
C26   H17   S    
C24   C26   S    
C21   H15   S    
C38   C39   D    
N7    Ni4   S    
C11   C14   A    
N13   Ni1   S    
C4    C41   A    
C18   C19   S    
C25   H19   S    
C18   H9    S    
N9    N14   A    
C29   H23   S    
C31   C33   S    
N9    Ni2   S    
C6    C15   A    
N11   N13   A    
N1    Ni1   S    
C21   C22   S    
N2    N8    A    
N6    Ni1   S    
C45   N17   T    
C38   H31   S    
C4    C34   A    
C6    N2    A    
N2    Ni2   S    
C9    H5    S    
C24   C25   S    
C21   H16   S    
C36   H29   S    
C14   C35   S    
N4    N5    A    
C32   H26   S    
C7    H3    S    
C28   H22   S    
C43   C44   A    
C8    H4    S    
N8    Ni3   S    
C41   H35   S    
C29   C30   D    
C13   H8    S    
C4    C22   S    
C11   N7    A    
C1    C44   A    
C31   C32   D    
N12   Ni2   S    
N10   N12   A    
C17   C37   S    
C5    C14   A    
N10   Ni3   S    
C19   H10   S    
C9    C17   A    
C15   C24   S    
C20   C22   S    
C3    C40   A    
C13   C15   A    
C43   H37   S    
C40   H34   S    
C25   H14   S    
C10   H6    S    
N3    Ni3   S    
N5    Ni2   S    
N3    N6    A    
C7    C16   A    
C6    H2    S    
C18   C22   S    
C43   N15   A    
C40   N12   A    
N11   Ni4   S    
C35   H28   S    
C39   C44   S    
C20   C45   S    
C1    N1    A    
C8    C17   A    
N7    N16   A    
C2    C30   S    
C23   H21   S    
C36   C38   S    
C19   C24   S    
C26   H18   S    
C10   C16   A    
C9    N5    A    
C5    H38   S    
C1    H1    S    
C41   N13   A    
C2    C42   A    
C33   C35   D    
C8    N4    A    
C18   Cl1   S    
C3    C32   S    
C30   H24   S    
C12   H11   S    
C11   H7    S    
C27   H20   S    
C33   H27   S    
C31   H25   S    
C5    N16   A    
N16   Ni1   S    
N1    N15   A    
C27   C28   D    
C23   N10   A    
C20   H13   S    
N15   Ni3   S    
C34   H32   S    
N4    Ni4   S    
