data_mof_unit_34660.cif
_audit_creation_date              2013-03-05T16:22:27-0500
_audit_creation_method            fapswitch 2.2
_symmetry_space_group_name_H-M    P1
_symmetry_Int_Tables_number       1
_space_group_crystal_system       triclinic
_cell_length_a                    15.741695
_cell_length_b                    10.509236
_cell_length_c                    9.84504
_cell_angle_alpha                 89.35498
_cell_angle_beta                  91.262434
_cell_angle_gamma                 87.975755
_cell_volume                      1627.1668359

loop_
_atom_site_label
_atom_site_type_symbol
_atom_site_description
_atom_site_fract_x
_atom_site_fract_y
_atom_site_fract_z
_atom_type_partial_charge
O1    O     O_R   0.500000 0.313960 0.616610 -0.598245
O2    O     O_R   0.500000 0.686040 0.383390 -0.598247
O3    O     O_R   0.500040 0.313950 0.383350 -0.635442
O4    O     O_R   0.499960 0.686050 0.616650 -0.635442
C1    C     C_R   0.499165 0.258048 0.500679 0.900315
C2    C     C_R   0.500834 0.741952 0.499321 0.900313
O5    O     O_R   0.376760 0.499990 0.616610 -0.588253
O6    O     O_R   0.623240 0.500010 0.383390 -0.588253
O7    O     O_R   0.376790 0.499980 0.383350 -0.647008
O8    O     O_R   0.623210 0.500020 0.616650 -0.647007
C3    C     C_R   0.338430 0.500225 0.498667 0.873166
C4    C     C_R   0.661570 0.499774 0.501333 0.873167
Zn1   Zn    Zn3+2 0.499980 0.500010 0.655740 0.969705
Zn2   Zn    Zn3+2 0.500020 0.499990 0.344260 0.969704
C5    C     C_3   0.976279 0.385721 0.537984 0.261517
C6    C     C_3   0.023721 0.614277 0.462016 0.261516
C7    C     C_3   0.029247 0.411020 0.410404 -0.351825
C8    C     C_3   0.970753 0.588978 0.589597 -0.351825
H1    H     H_    0.052830 0.338792 0.337555 0.223897
H2    H     H_    0.947170 0.661206 0.662445 0.223897
C9    C     C_1   0.249778 0.500391 0.495917 -0.106817
C10   C     C_1   0.750222 0.499608 0.504083 -0.106820
C11   C     C_3   0.031264 0.472981 0.623119 0.256571
C12   C     C_3   0.968736 0.527017 0.376882 0.256570
C13   C     C_3   0.084033 0.500391 0.497579 -0.108077
C14   C     C_3   0.915967 0.499607 0.502421 -0.108077
C15   C     C_1   0.174662 0.500473 0.495634 0.165255
C16   C     C_1   0.825338 0.499526 0.504366 0.165255
C17   C     C_3   0.477787 0.037998 0.621087 0.410948
C18   C     C_3   0.522210 0.962002 0.378912 0.410950
C19   C     C_3   0.557142 0.953609 0.594914 -0.240953
C20   C     C_3   0.442855 0.046392 0.405086 -0.240940
H3    H     H_    0.602455 0.912491 0.673033 0.183488
H4    H     H_    0.397541 0.087510 0.326968 0.183492
C21   C     C_3   0.501077 0.876775 0.498348 -0.125951
C22   C     C_3   0.498920 0.123224 0.501651 -0.125942
C23   C     C_3   0.421292 0.959604 0.527682 -0.324276
C24   C     C_3   0.578705 0.040396 0.472317 -0.324273
H5    H     H_    0.358049 0.923082 0.552433 0.175420
H6    H     H_    0.641948 0.076917 0.447566 0.175417
C25   C     C_3   0.468361 0.397282 0.049859 -0.084326
C26   C     C_3   0.531639 0.602718 0.950141 -0.084330
C27   C     C_3   0.544963 0.404813 0.957989 0.094075
C28   C     C_3   0.455037 0.595187 0.042011 0.094075
H7    H     H_    0.441306 0.310667 0.094977 0.168659
H8    H     H_    0.558694 0.689332 0.905023 0.168654
N1    N     N_3   0.499940 0.500030 0.863290 -0.114985
N2    N     N_3   0.500060 0.499970 0.136710 -0.114985
C29   C     C_3   0.423843 0.491774 0.947678 -0.102530
C30   C     C_3   0.576157 0.508226 0.052322 -0.102533
H9    H     H_    0.359428 0.485060 0.900607 0.186827
H10   H     H_    0.640572 0.514940 0.099393 0.186827
N3    N     N_R   0.951962 0.259633 0.582451 0.253363
O9    O     O_R   0.010386 0.171910 0.609530 -0.304368
O10   O     O_R   0.872320 0.233668 0.594573 -0.399248
N4    N     N_R   0.048038 0.740366 0.417550 0.253364
O11   O     O_R   0.989614 0.828088 0.390470 -0.304369
O12   O     O_R   0.127679 0.766331 0.405430 -0.399249
N5    N     N_R   0.936076 0.559219 0.240646 0.252164
O13   O     O_R   0.988799 0.580946 0.143944 -0.290262
O14   O     O_R   0.854699 0.565698 0.214515 -0.361245
N6    N     N_R   0.063924 0.440779 0.759355 0.252164
O15   O     O_R   0.011201 0.419052 0.856057 -0.290262
O16   O     O_R   0.145301 0.434300 0.785486 -0.361242
N7    N     N_R   0.452158 0.083256 0.753761 0.194848
O17   O     O_R   0.494108 0.044656 0.862553 -0.373786
O18   O     O_R   0.384932 0.157750 0.764457 -0.392657
N8    N     N_R   0.547834 0.916747 0.246234 0.194845
O19   O     O_R   0.505888 0.955381 0.137446 -0.373796
O20   O     O_R   0.615057 0.842249 0.235527 -0.392663
C31   C     C_R   0.602392 0.286985 0.938528 0.113914
C32   C     C_R   0.622613 0.209963 0.053965 -0.112792
C33   C     C_R   0.677602 0.103153 0.045422 -0.005015
C34   C     C_R   0.713008 0.070658 0.921465 -0.049458
C35   C     C_R   0.694973 0.146872 0.806945 -0.133170
C36   C     C_R   0.641182 0.255035 0.816163 -0.079460
H11   H     H_    0.596412 0.233156 0.151788 0.144814
H12   H     H_    0.693060 0.046023 0.135218 0.178424
H13   H     H_    0.755183 0.987513 0.914527 0.162728
H14   H     H_    0.723391 0.122965 0.710993 0.177028
H15   H     H_    0.632070 0.312515 0.727989 0.183039
C37   C     C_R   0.397609 0.713015 0.061473 0.113911
C38   C     C_R   0.377388 0.790037 0.946037 -0.112808
C39   C     C_R   0.322396 0.896844 0.954580 -0.005019
C40   C     C_R   0.286990 0.929338 0.078537 -0.049449
C41   C     C_R   0.305026 0.853126 0.193057 -0.133176
C42   C     C_R   0.358819 0.744965 0.183838 -0.079467
H16   H     H_    0.403588 0.766844 0.848213 0.144812
H17   H     H_    0.306935 0.953971 0.864784 0.178422
H18   H     H_    0.244813 0.012482 0.085475 0.162729
H19   H     H_    0.276608 0.877032 0.289009 0.177029
H20   H     H_    0.367930 0.687485 0.272010 0.183041

loop_
_geom_bond_atom_site_label_1
_geom_bond_atom_site_label_2
_geom_bond_distance
_ccdc_geom_bond_type
C28   C29   1.524824 S    
C18   C20   1.534417 S    
C33   C34   1.393716 A    
C8    C14   1.550885 S    
C35   C36   1.398247 A    
N1    C29   1.477263 S    
N3    O9    1.300226 A    
C2    C21   1.416960 S    
O5    C3    1.296654 A    
C17   C22   1.519896 S    
N6    O15   1.300238 A    
C18   C21   1.519897 S    
O1    C1    1.289610 A    
C20   C22   1.537966 S    
C21   C23   1.537179 S    
C12   C14   1.534493 S    
C28   C37   1.523539 S    
C41   H19   1.082419 S    
C31   C36   1.401398 A    
C37   C42   1.401397 A    
C1    C22   1.416963 S    
C4    C10   1.395141 S    
N4    O11   1.300223 A    
C18   C24   1.532332 S    
C26   H8    1.110792 S    
O4    Zn1   1.988386 S    
N6    O16   1.300285 A    
C11   N6    1.457702 S    
N8    O19   1.299244 A    
N7    O18   1.300802 A    
C30   H10   1.110414 S    
C33   H12   1.081425 S    
C19   H3    1.110681 S    
C35   H14   1.082419 S    
C5    C11   1.527768 S    
C38   H16   1.082921 S    
C9    C15   1.182357 T    
N5    O13   1.300238 A    
C6    C12   1.527766 S    
C10   C16   1.182357 T    
C42   H20   1.056215 S    
C17   C19   1.534415 S    
C25   C27   1.526960 S    
O2    C2    1.289609 A    
C26   C28   1.526961 S    
C25   C29   1.544826 S    
N3    O10   1.300176 A    
N5    O14   1.300284 A    
C7    C12   1.548348 S    
C34   C35   1.393832 A    
C8    C11   1.548347 S    
C39   C40   1.393717 A    
O4    C2    1.290577 A    
Zn1   N1    2.043354 S    
C41   C42   1.398245 A    
C5    C14   1.533643 S    
Zn2   N2    2.043353 S    
C29   H9    1.110414 S    
C40   C41   1.393823 A    
C3    C9    1.395141 S    
C20   H4    1.110681 S    
O7    Zn2   1.985958 S    
C6    N4    1.457466 S    
C32   H11   1.082921 S    
C38   C39   1.397507 A    
O6    C4    1.296654 A    
C20   C23   1.555306 S    
O7    C3    1.297577 A    
O3    Zn2   1.988387 S    
O8    C4    1.297577 A    
C26   C30   1.544826 S    
C17   N7    1.455599 S    
N8    O20   1.300811 A    
N7    O17   1.299208 A    
C34   H13   1.082276 S    
O6    Zn2   1.969242 S    
O1    Zn1   1.997075 S    
C39   H17   1.081419 S    
C5    N3    1.457465 S    
C6    C13   1.533643 S    
C5    C7    1.548497 S    
C27   C31   1.523542 S    
C32   C33   1.397508 A    
O3    C1    1.290576 A    
O8    Zn1   1.985959 S    
C36   H15   1.056222 S    
C40   H18   1.082274 S    
C27   C30   1.524824 S    
C13   C15   1.427240 S    
C14   C16   1.427238 S    
C19   C24   1.555310 S    
C7    C13   1.550885 S    
C22   C24   1.537181 S    
C31   C32   1.411828 A    
C23   H5    1.110593 S    
C24   H6    1.110592 S    
C12   N5    1.457703 S    
C19   C21   1.537972 S    
N2    C30   1.477263 S    
C7    H1    1.110159 S    
C25   N2    1.478088 S    
N4    O12   1.300175 A    
C8    H2    1.110158 S    
C26   N1    1.478088 S    
C11   C13   1.534492 S    
O2    Zn2   1.997073 S    
O5    Zn1   1.969241 S    
C6    C8    1.548497 S    
C37   C38   1.411820 A    
C17   C23   1.532332 S    
C25   H7    1.110793 S    
C27   N1    1.507522 S    
C18   N8    1.455604 S    
C28   N2    1.507522 S    
