data_mof_unit_19837.cif
_audit_creation_date              2012-12-10T17:40:30-0500
_audit_creation_method            fapswitch 2.2
_symmetry_space_group_name_H-M    P1
_symmetry_Int_Tables_number       1
_space_group_crystal_system       triclinic
_cell_length_a                    13.764541
_cell_length_b                    15.044133
_cell_length_c                    15.869197
_cell_angle_alpha                 89.049458
_cell_angle_beta                  69.717743
_cell_angle_gamma                 90.700782
_cell_volume                      3081.38088353

loop_
_atom_site_label
_atom_site_type_symbol
_atom_type_description
_atom_site_fract_x
_atom_site_fract_y
_atom_site_fract_z
_atom_type_partial_charge
C1    C     C_R   0.499353 0.670994 0.502740 0.877495
C2    C     C_R   0.500659 0.329018 0.497224 0.876625
C3    C     C_R   0.372942 0.483630 0.096628 -0.205309
C4    C     C_R   0.622996 0.466314 0.906176 -0.204504
C5    C     C_R   0.301882 0.485001 0.052425 -0.203282
C6    C     C_R   0.693849 0.462855 0.950535 -0.200432
C7    C     C_R   0.422664 0.185631 0.558631 -0.257414
C8    C     C_R   0.577438 0.814401 0.441335 -0.257211
C9    C     C_R   0.501080 0.232590 0.492856 -0.137907
C10   C     C_R   0.498937 0.767443 0.507050 -0.138946
C11   C     C_R   0.579534 0.188046 0.426069 0.320221
C12   C     C_R   0.420372 0.812022 0.573708 0.319884
C13   C     C_R   0.575329 0.093663 0.423455 -0.029476
C14   C     C_R   0.424652 0.906390 0.576366 -0.029613
C15   C     C_R   0.499938 0.046830 0.496558 0.030652
C16   C     C_R   0.500091 0.953218 0.503302 0.030911
C17   C     C_R   0.423910 0.093558 0.563194 0.095664
C18   C     C_R   0.576155 0.906482 0.436707 0.095609
C19   C     C_R   0.644709 0.043556 0.353191 -0.013397
C20   C     C_R   0.355290 0.956480 0.646650 -0.014079
C21   C     C_R   0.647417 0.951454 0.363274 -0.230454
C22   C     C_R   0.352645 0.048586 0.636620 -0.230447
C23   C     C_R   0.437087 0.499523 0.672360 0.831855
C24   C     C_R   0.562893 0.499463 0.327681 0.829963
C25   C     C_R   0.230942 0.553987 0.440967 -0.029301
C26   C     C_R   0.769012 0.446107 0.559131 -0.029394
C27   C     C_R   0.181465 0.445423 0.559630 0.508529
C28   C     C_R   0.818553 0.554509 0.440312 0.508186
C29   C     C_R   0.077600 0.444536 0.561191 -0.058619
C30   C     C_R   0.922378 0.555488 0.438850 -0.060456
C31   C     C_R   0.051656 0.499894 0.500237 0.061119
C32   C     C_R   0.948305 0.500168 0.499844 0.061310
C33   C     C_R   0.128928 0.554935 0.439575 -0.002634
C34   C     C_R   0.871020 0.445162 0.560538 -0.000457
C35   C     C_R   0.998927 0.389948 0.621726 -0.128651
C36   C     C_R   0.001025 0.610139 0.378379 -0.128205
C37   C     C_R   0.897255 0.390410 0.621319 -0.194824
C38   C     C_R   0.102670 0.609737 0.378846 -0.193391
C39   C     C_R   0.400015 0.496180 0.771105 -0.047079
C40   C     C_R   0.599626 0.493879 0.229282 -0.048031
C41   C     C_R   0.262179 0.491624 0.915696 -0.180450
C42   C     C_R   0.734947 0.471112 0.086386 -0.175856
C43   C     C_R   0.294279 0.495446 0.822226 -0.113570
C44   C     C_R   0.704022 0.480706 0.179111 -0.106479
C45   C     C_R   0.472985 0.492306 0.814388 -0.243509
C46   C     C_R   0.526900 0.497782 0.185797 -0.241109
C47   C     C_R   0.442730 0.485413 0.908397 0.092487
C48   C     C_R   0.555160 0.484260 0.093077 0.095018
C49   C     C_R   0.335353 0.487278 0.959045 0.155786
C50   C     C_R   0.661581 0.472827 0.043106 0.155303
C51   C     C_R   0.516108 0.478813 0.953285 0.070941
C52   C     C_R   0.481014 0.483006 0.048707 0.070920
Cu1   Cu    Cu3+1 0.402580 0.500010 0.499990 1.034012
Cu2   Cu    Cu3+1 0.597420 0.499990 0.500010 1.033529
H1    H     H_    0.219887 0.485190 0.091852 0.153447
H2    H     H_    0.774846 0.452796 0.911795 0.151431
H3    H     H_    0.290492 0.596385 0.394701 0.143352
H4    H     H_    0.709437 0.403766 0.605450 0.142750
H5    H     H_    0.014695 0.346362 0.670099 0.197613
H6    H     H_    0.985249 0.653750 0.330029 0.198986
H7    H     H_    0.839025 0.347738 0.668754 0.144307
H8    H     H_    0.160869 0.652486 0.331484 0.147330
H9    H     H_    0.448474 0.512883 0.225852 0.148514
H10   H     H_    0.553496 0.496911 0.773111 0.154538
H11   H     H_    0.761486 0.477361 0.211447 0.192458
H12   H     H_    0.236573 0.498494 0.790146 0.195723
H13   H     H_    0.179986 0.492256 0.954226 0.145409
H14   H     H_    0.816248 0.461580 0.048490 0.144894
H15   H     H_    0.339931 0.480396 0.168861 0.147495
H16   H     H_    0.654645 0.456109 0.834867 0.140059
H17   H     H_    0.364027 0.221523 0.610063 0.199805
H18   H     H_    0.636151 0.778499 0.389978 0.199895
H19   H     H_    0.701572 0.913651 0.310228 0.179034
H20   H     H_    0.298528 0.086386 0.689696 0.178760
N1    N     N_R   0.256170 0.500070 0.500040 -0.204602
N2    N     N_R   0.743830 0.499930 0.499960 -0.205013
O1    O     O_R   0.417730 0.629750 0.499970 -0.552912
O2    O     O_R   0.582270 0.370250 0.500030 -0.553647
O3    O     O_R   0.582270 0.629730 0.499980 -0.539975
O4    O     O_R   0.417730 0.370270 0.500020 -0.540110
O5    O     O_R   0.371590 0.500020 0.629830 -0.521017
O6    O     O_R   0.628410 0.499980 0.370170 -0.521482
O7    O     O_R   0.536130 0.499990 0.629840 -0.612897
O8    O     O_R   0.463870 0.500010 0.370160 -0.612214
Cl1   Cl    Cl    0.214290 0.374367 0.634736 -0.659223
Cl2   Cl    Cl    0.785819 0.625272 0.364927 -0.652922
Cl3   Cl    Cl    0.686175 0.252300 0.354204 -0.581809
Cl4   Cl    Cl    0.313430 0.747893 0.645282 -0.575400
C53   C     C_2   0.706102 0.080827 0.263327 0.942132
O9    O     O_2   0.664581 0.127679 0.222434 -0.547475
O10   O     O_R   0.809989 0.058138 0.223266 -0.738909
H21   H     H_    0.843273 0.086462 0.161283 0.345809
C54   C     C_2   0.293906 0.919179 0.736507 0.942547
O11   O     O_2   0.335372 0.872116 0.777276 -0.546248
O12   O     O_R   0.190108 0.942082 0.776706 -0.738738
H22   H     H_    0.156828 0.913727 0.838675 0.346772

loop_
_geom_bond_atom_site_label_1
_geom_bond_atom_site_label_2
_ccdc_geom_bond_type
C20   C54   S    
C54   O11   D    
C27   C29   A    
C34   C37   A    
C1    O1    A    
O12   H22   S    
C4    H16   S    
C41   H13   S    
Cu1   Cu2   S    
C40   C46   A    
C23   O7    A    
Cu1   O8    S    
C19   C53   S    
C35   H5    S    
C19   C21   A    
C7    H17   S    
C15   C16   A    
C18   C21   A    
C21   H19   S    
Cu1   O5    S    
C27   Cl1   S    
C24   O6    A    
C26   C34   A    
C47   C51   A    
C11   Cl3   S    
C7    C17   A    
C26   N2    A    
C31   C33   A    
C53   O10   S    
C39   C45   A    
C3    H15   S    
C48   C50   A    
C54   O12   S    
C42   H14   S    
C41   C43   A    
C5    C49   A    
C44   H11   S    
Cu1   N1    S    
C42   C44   A    
C27   N1    A    
C41   C49   A    
Cu2   O7    S    
C45   C47   A    
C46   C48   A    
C8    H18   S    
C12   Cl4   S    
C4    C51   A    
C51   C52   A    
C25   H3    S    
C14   C20   A    
Cu1   O4    S    
C4    C6    A    
O10   H21   S    
C13   C19   A    
C39   C43   A    
C3    C5    A    
C8    C18   A    
C25   N1    A    
C32   C34   A    
Cu1   O1    S    
C2    O2    A    
C26   H4    S    
C31   C32   A    
C40   C44   A    
C6    C50   A    
C9    C11   A    
C10   C12   A    
C42   C50   A    
Cu2   N2    S    
C16   C18   A    
C20   C22   A    
C13   C15   A    
C28   Cl2   S    
C1    O3    A    
C14   C16   A    
C22   H20   S    
C28   N2    A    
Cu2   O6    S    
Cu2   O3    S    
C15   C17   A    
C23   O5    A    
C35   C37   A    
C5    H1    S    
C1    C10   S    
C33   C38   A    
C6    H2    S    
C36   H6    S    
C37   H7    S    
C3    C52   A    
C47   C49   A    
C29   C35   A    
C45   H10   S    
C17   C22   A    
C30   C36   A    
C46   H9    S    
C36   C38   A    
C12   C14   A    
C29   C31   A    
C30   C32   A    
C11   C13   A    
C43   H12   S    
C23   C39   S    
C28   C30   A    
C24   C40   S    
C24   O8    A    
C2    O4    A    
C7    C9    A    
C48   C52   A    
C8    C10   A    
C38   H8    S    
C53   O9    D    
C2    C9    S    
C25   C33   A    
Cu2   O2    S    
