data_mof_unit_37316.cif
_audit_creation_date              2012-12-11T15:34:16-0500
_audit_creation_method            fapswitch 2.2
_symmetry_space_group_name_H-M    P1
_symmetry_Int_Tables_number       1
_space_group_crystal_system       triclinic
_cell_length_a                    15.052789
_cell_length_b                    15.051027
_cell_length_c                    34.953244
_cell_angle_alpha                 90.538177
_cell_angle_beta                  90.039317
_cell_angle_gamma                 60.050738
_cell_volume                      6861.1869051

loop_
_atom_site_label
_atom_site_type_symbol
_atom_type_description
_atom_site_fract_x
_atom_site_fract_y
_atom_site_fract_z
_atom_type_partial_charge
C1    C     C_R   0.302899 0.608041 0.555859 0.551675
C2    C     C_R   0.181657 0.732428 0.395255 0.261114
C3    C     C_R   0.764482 0.095184 0.271733 -0.094107
C4    C     C_R   0.772466 0.082722 0.231862 0.238397
C5    C     C_R   0.695524 0.159429 0.208671 0.000605
C6    C     C_R   0.739915 0.196249 0.352962 -0.103601
C7    C     C_R   0.717814 0.225409 0.391349 -0.109486
C8    C     C_R   0.554178 0.231935 0.384706 -0.124461
C9    C     C_R   0.731978 0.572857 0.650632 -0.116868
C10   C     C_R   0.575780 0.204157 0.346356 -0.118672
C11   C     C_R   0.666878 0.190053 0.330003 0.027983
C12   C     C_R   0.622835 0.247595 0.407075 0.022130
C13   C     C_R   0.151305 0.741534 0.356986 -0.089366
C14   C     C_R   0.078412 0.712705 0.095143 0.021432
C15   C     C_R   0.092304 0.622643 0.112253 -0.113563
C16   C     C_R   0.120447 0.603566 0.150577 -0.119715
C17   C     C_R   0.134407 0.674582 0.172310 0.040272
C18   C     C_R   0.127637 0.760735 0.154355 -0.055507
C19   C     C_R   0.100490 0.779318 0.116083 -0.089933
C20   C     C_R   0.210269 0.694747 0.232960 -0.090974
C21   C     C_R   0.169831 0.654929 0.335580 -0.025234
C22   C     C_R   0.562629 0.723575 0.650472 -0.104756
C23   C     C_R   0.236582 0.633122 0.411439 0.012716
C24   C     C_R   0.735848 0.025992 0.943402 0.551183
C25   C     C_R   0.744918 0.722186 0.945370 0.574348
C26   C     C_R   0.038662 0.733796 0.948441 0.536249
C27   C     C_R   0.723463 0.037812 0.053115 0.552499
C28   C     C_R   0.733074 0.734211 0.054605 0.577980
C29   C     C_R   0.650628 0.653977 0.670578 0.035679
C30   C     C_R   0.026885 0.745247 0.058047 0.545179
C31   C     C_R   0.552621 0.707040 0.611767 -0.124356
C32   C     C_R   0.659512 0.670918 0.789912 0.365475
C33   C     C_R   0.654912 0.661207 0.712487 0.347113
C34   C     C_R   0.731383 0.592426 0.853300 -0.064702
C35   C     C_R   0.751512 0.601693 0.891861 0.238186
C36   C     C_R   0.638636 0.786364 0.887420 -0.171817
C37   C     C_R   0.617927 0.775621 0.849512 -0.134186
C38   C     C_R   0.667815 0.679317 0.831607 -0.011823
C39   C     C_R   0.610615 0.588193 0.555343 0.544247
C40   C     C_R   0.214945 0.694144 0.272656 -0.093619
C41   C     C_R   0.709424 0.701072 0.908631 0.003226
C42   C     C_R   0.721255 0.079618 0.906751 -0.029341
C43   C     C_R   0.631273 0.111454 0.885597 -0.134429
C44   C     C_R   0.624875 0.144685 0.848124 -0.111718
C45   C     C_R   0.707742 0.147512 0.831171 0.046413
C46   C     C_R   0.796327 0.121768 0.852897 0.287423
C47   C     C_R   0.802166 0.088117 0.890535 -0.093776
C48   C     C_R   0.641841 0.263411 0.773875 0.300263
C49   C     C_R   0.631928 0.272764 0.734039 -0.036139
C50   C     C_R   0.683029 0.186265 0.710143 0.016705
C51   C     C_R   0.158263 0.661319 0.294052 0.037557
C52   C     C_R   0.589753 0.301483 0.553929 0.550949
C53   C     C_R   0.747528 0.090127 0.725873 -0.078684
C54   C     C_R   0.757270 0.079633 0.765442 -0.101222
C55   C     C_R   0.703893 0.165288 0.789694 0.048675
C56   C     C_R   0.576939 0.205600 0.652011 0.277252
C57   C     C_R   0.556564 0.231804 0.613385 -0.099708
C58   C     C_R   0.715777 0.234097 0.607486 -0.137581
C59   C     C_R   0.736809 0.207887 0.645897 -0.164180
C60   C     C_R   0.666353 0.197077 0.668648 0.006046
C61   C     C_R   0.623649 0.250019 0.591226 -0.029275
C62   C     C_R   0.097187 0.628441 0.275530 -0.087936
C63   C     C_R   0.094367 0.696282 0.911828 0.012509
C64   C     C_R   0.297678 0.611446 0.446729 0.582055
C65   C     C_R   0.126117 0.756803 0.892196 -0.107336
C66   C     C_R   0.152860 0.738135 0.853663 -0.097094
C67   C     C_R   0.149566 0.657983 0.834217 0.017750
C68   C     C_R   0.127774 0.591192 0.854573 -0.109933
C69   C     C_R   0.100008 0.610376 0.893178 -0.113327
C70   C     C_R   0.223501 0.558307 0.773621 -0.080229
C71   C     C_R   0.232232 0.554368 0.733800 -0.082398
C72   C     C_R   0.174458 0.643213 0.712012 0.022338
C73   C     C_R   0.090854 0.630877 0.235755 -0.069305
C74   C     C_R   0.106381 0.735446 0.730765 -0.102185
C75   C     C_R   0.098663 0.739583 0.770499 -0.099195
C76   C     C_R   0.608348 0.590132 0.445526 0.540758
C77   C     C_R   0.158084 0.651428 0.792225 0.019888
C78   C     C_R   0.196249 0.722053 0.652769 -0.110615
C79   C     C_R   0.225263 0.714665 0.614514 -0.118745
C80   C     C_R   0.237698 0.548125 0.609700 -0.115365
C81   C     C_R   0.208340 0.555696 0.647978 -0.105969
C82   C     C_R   0.190661 0.641233 0.670211 0.028032
C83   C     C_R   0.249930 0.625998 0.592999 0.020420
C84   C     C_R   0.147280 0.664259 0.214118 0.057290
C85   C     C_R   0.692428 0.721812 0.091444 0.011923
C86   C     C_R   0.628112 0.811407 0.112619 -0.161229
C87   C     C_R   0.605446 0.806201 0.150772 -0.134918
C88   C     C_R   0.588226 0.302080 0.443989 0.544841
C89   C     C_R   0.646922 0.711282 0.168882 -0.008859
C90   C     C_R   0.704533 0.621117 0.147214 -0.097369
C91   C     C_R   0.726231 0.625037 0.108509 0.229554
C92   C     C_R   0.624541 0.626849 0.226529 -0.115343
C93   C     C_R   0.624204 0.616334 0.266042 -0.114571
C94   C     C_R   0.633192 0.685920 0.290397 0.024361
C95   C     C_R   0.211658 0.559553 0.353033 -0.143100
C96   C     C_R   0.640132 0.767679 0.274972 -0.108609
C97   C     C_R   0.642332 0.777286 0.235364 -0.101849
C98   C     C_R   0.635683 0.706211 0.210730 0.034329
C99   C     C_R   0.560756 0.744124 0.355803 -0.112618
C100  C     C_R   0.630711 0.620933 0.592610 0.021875
C101  C     C_R   0.555165 0.721095 0.394032 -0.114394
C102  C     C_R   0.708388 0.555166 0.385230 -0.121892
C103  C     C_R   0.712865 0.577610 0.347010 -0.119807
C104  C     C_R   0.637278 0.670673 0.331848 0.023648
C105  C     C_R   0.626928 0.624823 0.408673 0.018152
C106  C     C_R   0.245123 0.548593 0.390590 -0.172344
C107  C     C_R   0.703096 0.093082 0.089836 0.031074
C108  C     C_R   0.775461 0.116537 0.105191 -0.076971
C109  C     C_R   0.770183 0.144057 0.143665 -0.028448
C110  C     C_R   0.693375 0.147076 0.167107 0.057582
C111  C     C_R   0.616030 0.132769 0.151143 -0.122163
C112  C     C_R   0.722310 0.556728 0.611964 -0.124331
C113  C     C_R   0.620555 0.106290 0.112683 -0.118806
C114  C     C_R   0.612854 0.245617 0.225686 -0.164020
C115  C     C_R   0.604726 0.255641 0.265216 -0.133943
C116  C     C_R   0.679742 0.180047 0.288376 -0.023267
Cr1   Cr    Cr6+3 0.421670 0.426920 0.499620 1.028711
Cr2   Cr    Cr6+3 0.427030 0.651190 0.500980 1.072966
Cr3   Cr    Cr6+3 0.651280 0.421870 0.499380 1.026070
Cr4   Cr    Cr6+3 0.910810 0.908010 0.001130 1.048045
Cr5   Cr    Cr6+3 0.682800 0.909890 0.998370 1.033709
Cr6   Cr    Cr6+3 0.908370 0.682300 0.002180 1.136869
H1    H     H_    0.784274 0.490193 0.597904 0.137346
H2    H     H_    0.286551 0.482611 0.720178 0.168727
H3    H     H_    0.171273 0.789406 0.838518 0.149375
H4    H     H_    0.059573 0.804624 0.714726 0.115467
H5    H     H_    0.045829 0.811728 0.784336 0.148217
H6    H     H_    0.184018 0.788571 0.669224 0.119561
H7    H     H_    0.234162 0.775869 0.602512 0.135839
H8    H     H_    0.125167 0.528698 0.840009 0.135797
H9    H     H_    0.772865 0.520589 0.328796 0.115503
H10   H     H_    0.617089 0.572265 0.208375 0.112343
H11   H     H_    0.558305 0.876909 0.166473 0.115843
H12   H     H_    0.872004 0.063926 0.906557 0.179741
H13   H     H_    0.801591 0.519174 0.665231 0.141466
H14   H     H_    0.652713 0.838276 0.224093 0.105368
H15   H     H_    0.501949 0.816410 0.344355 0.124044
H16   H     H_    0.736338 0.547269 0.160857 0.125670
H17   H     H_    0.839310 0.107945 0.088090 0.141164
H18   H     H_    0.519259 0.198402 0.328931 0.111951
H19   H     H_    0.499083 0.787460 0.665059 0.149414
H20   H     H_    0.828540 0.158111 0.155554 0.149646
H21   H     H_    0.821985 0.037167 0.289971 0.161862
H22   H     H_    0.810759 0.185205 0.340609 0.127776
H23   H     H_    0.805792 0.201071 0.658416 0.138402
H24   H     H_    0.480609 0.247948 0.396015 0.131875
H25   H     H_    0.090494 0.849397 0.103680 0.146221
H26   H     H_    0.767301 0.517238 0.839882 0.212771
H27   H     H_    0.264348 0.717438 0.286726 0.114909
H28   H     H_    0.255923 0.719097 0.217034 0.100309
H29   H     H_    0.127660 0.535227 0.163548 0.109100
H30   H     H_    0.053654 0.602270 0.291878 0.112904
H31   H     H_    0.039972 0.609039 0.222048 0.114607
H32   H     H_    0.225834 0.492120 0.336707 0.119772
H33   H     H_    0.284606 0.471964 0.402244 0.143247
H34   H     H_    0.787598 0.023008 0.707575 0.132999
H35   H     H_    0.137168 0.817291 0.170372 0.155242
H36   H     H_    0.567294 0.843966 0.833671 0.157449
H37   H     H_    0.582815 0.347044 0.721449 0.163671
H38   H     H_    0.435571 0.441389 0.836670 0.369083
H39   H     H_    0.556886 0.163485 0.831601 0.172558
H40   H     H_    0.352554 0.176706 0.667635 0.375152
H41   H     H_    0.033375 0.132337 0.855598 0.380657
H42   H     H_    0.768991 0.247532 0.591155 0.144267
H43   H     H_    0.076197 0.562246 0.907577 0.170133
H44   H     H_    0.269606 0.489486 0.789934 0.160326
H45   H     H_    0.804432 0.003971 0.777313 0.136576
H46   H     H_    0.871442 0.327529 0.911038 0.394247
H47   H     H_    0.255842 0.478920 0.593817 0.141673
H48   H     H_    0.599779 0.886662 0.100404 0.142790
H49   H     H_    0.838370 0.383652 0.123167 0.338933
H50   H     H_    0.617269 0.553597 0.277702 0.113337
H51   H     H_    0.647240 0.821814 0.293540 0.118125
H52   H     H_    0.491686 0.776239 0.411474 0.156593
H53   H     H_    0.764891 0.480406 0.395617 0.136422
H54   H     H_    0.563571 0.088970 0.101667 0.129212
H55   H     H_    0.539326 0.322162 0.277836 0.121528
H56   H     H_    0.485349 0.243726 0.601198 0.183184
H57   H     H_    0.553158 0.304132 0.208228 0.123849
H58   H     H_    0.782027 0.909195 0.189188 0.330484
H59   H     H_    0.772326 0.236390 0.408016 0.139324
H60   H     H_    0.555459 0.136337 0.168978 0.105861
H61   H     H_    0.076489 0.569589 0.096650 0.156093
H62   H     H_    0.116014 0.815705 0.343317 0.166697
H63   H     H_    0.112489 0.898171 0.479836 0.365113
H64   H     H_    0.603324 0.863328 0.899306 0.151415
H65   H     H_    0.567702 0.105739 0.897264 0.150338
H66   H     H_    0.481256 0.758058 0.597558 0.135333
H67   H     H_    0.123522 0.823013 0.905804 0.155159
H68   H     H_    0.202692 0.493155 0.660510 0.134901
N1    N     N_R   0.728209 0.585064 0.770718 -0.190908
N2    N     N_R   0.725782 0.580242 0.732765 -0.208933
N3    N     N_R   0.585572 0.746757 0.731681 -0.208303
N4    N     N_R   0.588268 0.751732 0.769645 -0.208770
O1    O     O_R   0.502070 0.323090 0.541280 -0.514022
O2    O     O_R   0.831550 0.656950 0.958960 -0.425234
O3    O     O_R   0.998590 0.685540 0.963930 -0.498858
O4    O     O_R   0.338340 0.520690 0.539540 -0.503139
O5    O     O_R   0.008220 0.831200 0.045060 -0.513872
O6    O     O_R   0.813270 0.997930 0.038810 -0.493657
O7    O     O_R   0.657500 0.016560 0.039940 -0.518613
O8    O     O_R   0.685680 0.820940 0.038120 -0.516923
O9    O     O_R   0.822130 0.666070 0.043610 -0.426645
O10   O     O_R   0.989860 0.694000 0.042400 -0.499507
O11   O     O_3   0.833990 0.833400 0.000560 -0.267126
O12   O     O_R   0.520720 0.641670 0.461580 -0.495577
O13   O     O_R   0.324760 0.674070 0.543580 -0.509097
O14   O     O_R   0.522400 0.640310 0.540110 -0.504003
O15   O     O_R   0.675940 0.500630 0.542210 -0.517850
O16   O     O_R   0.641790 0.337020 0.538150 -0.496840
O17   O     O_R   0.500260 0.324550 0.456580 -0.518421
O18   O     O_R   0.336660 0.522040 0.461020 -0.519450
O19   O     O_R   0.322940 0.675540 0.458880 -0.427499
O20   O     O_2   0.642322 0.372606 0.835024 -0.212918
O21   O     O_2   0.541794 0.469361 0.779593 -0.278330
O22   O     O_3   0.470500 0.377037 0.821407 -0.547379
O23   O     O_R   0.674120 0.502090 0.457500 -0.518195
O24   O     O_2   0.541861 0.092420 0.701933 -0.263687
O25   O     O_2   0.431503 0.279022 0.706059 -0.308306
O26   O     O_3   0.401390 0.182183 0.650188 -0.540105
O27   O     O_2   0.964768 0.031215 0.809362 -0.329690
O28   O     O_2   0.866443 0.219123 0.808902 -0.218576
O29   O     O_3   0.976532 0.129675 0.868779 -0.529331
O30   O     O_2   0.936337 0.467652 0.919177 -0.278881
O31   O     O_2   0.786719 0.497039 0.957186 -0.208336
O32   O     O_3   0.828367 0.387709 0.894914 -0.467730
O33   O     O_2   0.754486 0.519680 0.042894 -0.180859
O34   O     O_R   0.640110 0.338380 0.459630 -0.501052
O35   O     O_2   0.906469 0.475931 0.081466 -0.282776
O36   O     O_3   0.781404 0.415227 0.104580 -0.519942
O37   O     O_2   0.954340 0.991499 0.196458 -0.285780
O38   O     O_2   0.925048 0.888417 0.242879 -0.295126
O39   O     O_3   0.834483 0.921302 0.177080 -0.505194
O40   O     O_2   0.239406 0.864228 0.420244 -0.286230
O41   O     O_2   0.058754 0.936293 0.403075 -0.290699
O42   O     O_3   0.120549 0.835999 0.466659 -0.509934
O43   O     O_3   0.499990 0.499990 0.499990 -0.253003
O44   O     O_R   0.017640 0.822070 0.960410 -0.515386
O45   O     O_R   0.822000 0.989470 0.960340 -0.498833
O46   O     O_R   0.666920 0.007430 0.955290 -0.513373
O47   O     O_R   0.694410 0.812480 0.959650 -0.518376
S1    S     S_3+6 0.574788 0.374611 0.802949 0.032792
S2    S     S_3+6 0.486976 0.189252 0.679157 -0.005179
S3    S     S_3+6 0.902658 0.125850 0.833410 0.019280
S4    S     S_3+6 0.828270 0.487198 0.917328 0.054939
S5    S     S_3+6 0.794690 0.507494 0.082999 0.044148
S6    S     S_3+6 0.875637 0.968252 0.212430 -0.018404
S7    S     S_3+6 0.149585 0.846518 0.421066 0.016304

loop_
_geom_bond_atom_site_label_1
_geom_bond_atom_site_label_2
_ccdc_geom_bond_type
Cr6   O9    S    
C48   C55   A    
O37   S6    D    
C63   C65   A    
C93   H50   S    
C76   C105  S    
C22   C29   A    
C5    C114  A    
C72   C74   A    
C24   C42   S    
C87   H11   S    
C1    O4    A    
C67   C77   S    
C46   S3    S    
C54   H45   S    
C26   C63   S    
C78   H6    S    
C97   C98   A    
C85   C91   A    
C92   C98   A    
C74   H4    S    
C53   C54   A    
C108  C109  A    
C28   C85   S    
Cr5   O47   S    
N3    N4    A    
C52   O1    A    
C17   C84   S    
C93   C94   A    
C62   H30   S    
C33   N2    A    
Cr4   O11   S    
C36   C37   A    
Cr2   O12   S    
Cr5   O8    S    
C18   C19   A    
C52   C61   S    
C70   H44   S    
H46   O32   S    
C57   H56   S    
C20   C40   A    
C5    C110  S    
C115  C116  A    
H38   O22   S    
C29   C33   S    
Cr4   O5    S    
C56   C57   A    
C39   O15   A    
C102  C105  A    
C34   C35   A    
Cr6   O10   S    
C2    C13   A    
C26   O3    A    
O42   S7    S    
C110  C111  A    
C107  C113  A    
C2    S7    S    
C66   C67   A    
O40   S7    D    
C68   H8    S    
C68   C69   A    
C34   H26   S    
C63   C69   A    
C20   H28   S    
C16   C17   A    
O21   S1    D    
C88   O17   A    
C15   H61   S    
C31   H66   S    
C107  C108  A    
C62   C73   A    
C70   C71   A    
Cr5   O11   S    
Cr2   O19   S    
C76   O23   A    
C73   C84   A    
C75   H5    S    
O36   S5    S    
C9    C29   A    
C9    C112  A    
C30   O5    A    
C91   S5    S    
Cr1   O43   S    
C59   C60   A    
C114  H57   S    
C34   C38   A    
C39   O14   A    
C70   C77   A    
C52   O16   A    
C25   O47   A    
Cr6   O11   S    
C36   C41   A    
C51   C62   A    
C10   H18   S    
C80   H47   S    
C14   C30   S    
C80   C83   A    
C1    O13   A    
C90   H16   S    
C76   O12   A    
Cr3   O34   S    
C114  C115  A    
C69   H43   S    
O31   S4    D    
C7    C12   A    
O26   S2    S    
H40   O26   S    
C35   S4    S    
C50   C53   A    
Cr3   O15   S    
C22   C31   A    
C12   C88   S    
N1    N2    A    
C64   O19   A    
Cr1   O17   S    
C3    H21   S    
C112  H1    S    
C48   S1    S    
C96   H51   S    
C25   C41   S    
C6    C11   A    
C94   C104  S    
C7    H59   S    
C78   C79   A    
O39   S6    S    
C21   C95   A    
C58   C59   A    
C85   C86   A    
C23   C106  A    
C111  H60   S    
C81   C82   A    
C56   C60   A    
C32   N1    A    
C37   H36   S    
Cr2   O14   S    
C43   C44   A    
C4    S6    S    
C37   C38   A    
Cr1   O1    S    
C95   C106  A    
C24   O45   A    
C26   O44   A    
C27   C107  S    
O29   S3    S    
C8    C12   A    
C13   H62   S    
C96   C97   A    
C2    C23   A    
C27   O7    A    
C17   C18   A    
C13   C21   A    
C111  C113  A    
C31   C100  A    
C94   C96   A    
C11   C116  S    
C75   C77   A    
C58   H42   S    
C115  H55   S    
C25   O2    A    
C113  H54   S    
O35   S5    D    
C9    H13   S    
Cr2   O43   S    
Cr3   O43   S    
C67   C68   A    
C99   C101  A    
C56   S2    S    
C65   H67   S    
H58   O39   S    
C100  C112  A    
C32   C38   S    
C20   C84   A    
C47   H12   S    
C71   H2    S    
C42   C43   A    
C6    H22   S    
C3    C4    A    
Cr5   O46   S    
C59   H23   S    
O41   S7    D    
C21   C51   S    
C101  H52   S    
C44   C45   A    
C86   C87   A    
O32   S4    S    
C54   C55   A    
C46   C47   A    
C23   C64   S    
Cr3   O16   S    
O28   S3    D    
C92   H10   S    
C86   H48   S    
C28   O9    A    
C14   C19   A    
Cr1   O18   S    
C8    H24   S    
C27   O6    A    
Cr6   O2    S    
C80   C81   A    
C78   C82   A    
C24   O46   A    
C43   H65   S    
C108  H17   S    
C57   C61   A    
C6    C7    A    
H41   O29   S    
C1    C83   S    
C40   C51   A    
C30   O10   A    
C3    C116  A    
C66   H3    S    
C89   C98   S    
O20   S1    D    
O38   S6    D    
C50   C60   S    
C95   H32   S    
C32   N4    A    
C87   C89   A    
Cr2   O13   S    
C102  H53   S    
C28   O8    A    
C71   C72   A    
C18   H35   S    
O24   S2    D    
C109  C110  A    
O33   S5    D    
C79   C83   A    
Cr5   O7    S    
O22   S1    S    
C39   C100  S    
C88   O34   A    
C99   H15   S    
C58   C61   A    
C48   C49   A    
C15   C16   A    
C22   H19   S    
C92   C93   A    
Cr4   O6    S    
C106  H33   S    
O25   S2    D    
C40   H27   S    
C99   C104  A    
C16   H29   S    
C36   H64   S    
C42   C47   A    
C65   C66   A    
Cr6   O3    S    
C102  C103  A    
C35   C41   A    
C101  C105  A    
C19   H25   S    
C81   H68   S    
H49   O36   S    
C10   C11   A    
Cr4   O45   S    
C33   N3    A    
C45   C46   A    
O30   S4    D    
C4    C5    A    
H63   O42   S    
C74   C75   A    
C45   C55   S    
C53   H34   S    
C8    C10   A    
C49   C50   A    
C44   H39   S    
C73   H31   S    
C103  C104  A    
Cr3   O23   S    
C14   C15   A    
C64   O18   A    
C97   H14   S    
C89   C90   A    
C103  H9    S    
C49   H37   S    
C72   C82   S    
Cr1   O4    S    
C90   C91   A    
C109  H20   S    
Cr4   O44   S    
O27   S3    D    
C79   H7    S    
