data_mof_unit_22957.cif
_audit_creation_date              2013-03-05T15:51:00-0500
_audit_creation_method            fapswitch 2.2
_symmetry_space_group_name_H-M    P1
_symmetry_Int_Tables_number       1
_space_group_crystal_system       triclinic
_cell_length_a                    6.940701
_cell_length_b                    17.648449
_cell_length_c                    19.303002
_cell_angle_alpha                 109.569717
_cell_angle_beta                  90.520059
_cell_angle_gamma                 90.240224
_cell_volume                      2227.73283163

loop_
_atom_site_label
_atom_site_type_symbol
_atom_site_description
_atom_site_fract_x
_atom_site_fract_y
_atom_site_fract_z
_atom_type_partial_charge
O1    O     O_R   0.505810 0.439670 0.562310 -0.580240
O2    O     O_R   0.169070 0.404920 0.411210 -0.583875
O3    O     O_R   0.005550 0.560330 0.437690 -0.578915
C1    C     C_R   0.337896 0.381936 0.382793 1.045647
O4    O     O_R   0.175650 0.430000 0.560110 -0.557261
O5    O     O_R   0.012170 0.585580 0.587650 -0.590417
C2    C     C_R   0.344863 0.414863 0.581681 1.031082
O6    O     O_R   0.499180 0.414420 0.412350 -0.613220
O7    O     O_3   0.341430 0.551020 0.508860 -0.257392
V1    V     V_3+5 0.063930 0.490540 0.498360 1.301201
O8    O     O_R   0.682850 0.595080 0.588790 -0.576005
C3    C     C_R   0.852496 0.617353 0.617003 1.143618
O9    O     O_R   0.676280 0.570000 0.439890 -0.573155
C4    C     C_R   0.844727 0.586302 0.419134 0.986581
V2    V     V_3+5 0.564760 0.509460 0.501640 1.295474
O10   O     O_3   0.837130 0.448980 0.491140 -0.265640
C5    C     C_R   0.070812 0.870542 0.182335 0.514333
C6    C     C_R   0.919116 0.867613 0.132431 -0.241875
C7    C     C_R   0.756059 0.820351 0.131298 -0.218348
C8    C     C_R   0.744158 0.772026 0.176161 -0.090708
C9    C     C_R   0.895039 0.774921 0.226882 0.050661
C10   C     C_R   0.059670 0.823582 0.229353 -0.006147
C11   C     C_R   0.583965 0.720840 0.171410 0.401838
C12   C     C_R   0.570800 0.675638 0.218313 0.499175
C13   C     C_R   0.716497 0.680515 0.272042 -0.156010
C14   C     C_R   0.881492 0.729250 0.275117 -0.154649
C15   C     C_R   0.032374 0.733139 0.326559 -0.032209
C16   C     C_R   0.195822 0.782441 0.327973 0.581494
C17   C     C_R   0.210543 0.823689 0.278182 -0.263475
C18   C     C_R   0.701811 0.636589 0.321273 0.572760
C19   C     C_R   0.854262 0.637836 0.371206 -0.473812
C20   C     C_R   0.017494 0.687710 0.374604 0.530617
H1    H     H_    0.638510 0.821855 0.094635 0.185322
H2    H     H_    0.342823 0.856767 0.279496 0.162923
C21   C     C_3   0.759227 0.806402 0.749992 0.377856
C22   C     C_3   0.919085 0.774168 0.693017 0.070247
C23   C     C_3   0.866703 0.686797 0.687024 -0.516250
C24   C     C_3   0.707355 0.719579 0.744705 0.372660
C25   C     C_3   0.852038 0.725271 0.807151 0.204293
C26   C     C_3   0.011626 0.692990 0.750233 0.352466
C27   C     C_3   0.063959 0.779773 0.755522 0.396685
C28   C     C_3   0.904433 0.812589 0.813193 -0.438977
C29   C     C_3   0.489479 0.239109 0.305528 -0.231995
C30   C     C_3   0.330696 0.182335 0.259510 0.590312
H3    H     H_    0.572177 0.229098 0.351161 0.177783
C31   C     C_3   0.415993 0.187619 0.187880 -0.356455
C32   C     C_3   0.575194 0.245635 0.232980 -0.239719
C33   C     C_3   0.438389 0.316747 0.240621 0.345006
C34   C     C_3   0.282526 0.259328 0.196117 0.259280
C35   C     C_3   0.193047 0.253473 0.267343 -0.307684
C36   C     C_3   0.353760 0.311310 0.312279 -0.329781
H4    H     H_    0.730056 0.243280 0.219308 0.208751
H5    H     H_    0.038020 0.255199 0.281117 0.173830
C37   C     C_R   0.263774 0.111751 0.809238 0.350544
C38   C     C_R   0.414766 0.126674 0.862296 -0.310245
C39   C     C_R   0.556460 0.183840 0.863854 -0.090781
C40   C     C_R   0.547331 0.228286 0.815890 0.098781
C41   C     C_R   0.396013 0.215233 0.763679 0.037354
C42   C     C_R   0.257043 0.154365 0.758035 -0.188161
C43   C     C_R   0.690920 0.284971 0.819165 -0.251139
C44   C     C_R   0.686294 0.330615 0.772673 0.560240
C45   C     C_R   0.526648 0.323837 0.723966 -0.071219
C46   C     C_R   0.385129 0.263079 0.717245 -0.133060
C47   C     C_R   0.231836 0.251026 0.665342 -0.142967
C48   C     C_R   0.095005 0.188771 0.658735 0.464822
C49   C     C_R   0.115415 0.137994 0.701305 0.343078
C50   C     C_R   0.500530 0.378549 0.685195 0.528969
C51   C     C_R   0.355275 0.364113 0.630054 -0.490744
C52   C     C_R   0.222737 0.300049 0.619869 0.349675
H6    H     H_    0.672642 0.195304 0.904092 0.173052
H7    H     H_    0.811590 0.292675 0.857069 0.180582
O11   O     O_R   0.271890 0.085690 0.087580 -0.587205
O12   O     O_R   0.595690 0.070020 0.939870 -0.578015
O13   O     O_R   0.758900 0.914390 0.912370 -0.580973
C53   C     C_R   0.426276 0.082688 0.916185 1.065531
O14   O     O_R   0.602020 0.095100 0.088770 -0.600452
O15   O     O_R   0.765280 0.939660 0.062330 -0.621256
C54   C     C_R   0.433020 0.117659 0.117276 1.067475
O16   O     O_R   0.265520 0.060430 0.937620 -0.569939
O17   O     O_3   0.429560 0.949050 0.991100 -0.277632
V3    V     V_3+5 0.707160 0.009450 0.001650 1.289405
O18   O     O_R   0.094540 0.929890 0.060190 -0.558146
C55   C     C_R   0.926657 0.915959 0.082571 1.003797
O19   O     O_R   0.088200 0.904800 0.911290 -0.575657
C56   C     C_R   0.918503 0.882149 0.883270 1.187276
V4    V     V_3+5 0.206300 0.990390 0.998440 1.318381
O20   O     O_3   0.934030 0.050940 0.008900 -0.268938
O21   O     O_3   0.224643 0.921472 0.185362 -0.723640
H8    H     H_    0.258946 0.949318 0.237629 0.334092
O22   O     O_3   0.630398 0.867415 0.750911 -0.644408
H9    H     H_    0.590306 0.856386 0.699058 0.367399
O23   O     O_3   0.523513 0.686087 0.739735 -0.691191
H10   H     H_    0.473953 0.706079 0.790585 0.359323
O24   O     O_3   0.817186 0.699775 0.867135 -0.732271
H11   H     H_    0.786820 0.641582 0.845609 0.362691
O25   O     O_3   0.140506 0.632195 0.749819 -0.689124
H12   H     H_    0.174305 0.641889 0.802088 0.342561
O26   O     O_3   0.249754 0.811476 0.761219 -0.633149
H13   H     H_    0.305622 0.785778 0.711957 0.373530
O27   O     O_3   0.276254 0.110223 0.269073 -0.746801
H14   H     H_    0.226417 0.125672 0.319846 0.336341
N1    N     N_R   0.488032 0.390672 0.227283 0.228797
O28   O     O_R   0.663326 0.403216 0.210269 -0.365525
O29   O     O_R   0.352354 0.440296 0.224756 -0.361030
N2    N     N_R   0.176755 0.271694 0.135278 0.264966
O30   O     O_R   0.990231 0.277895 0.137256 -0.348431
O31   O     O_R   0.268895 0.275656 0.078212 -0.369945
N3    N     N_R   0.115977 0.054620 0.808810 0.242054
O32   O     O_R   0.942248 0.078787 0.829206 -0.369960
O33   O     O_R   0.156360 0.978546 0.789807 -0.349133
O34   O     O_3   0.843720 0.379342 0.775317 -0.700509
H15   H     H_    0.876058 0.373976 0.724020 0.362818
O35   O     O_3   0.610482 0.448277 0.705427 -0.714672
H16   H     H_    0.534340 0.491974 0.697330 0.335585
N4    N     N_R   0.084098 0.283329 0.560979 0.277530
O36   O     O_R   0.911943 0.313512 0.573497 -0.353938
O37   O     O_R   0.137268 0.246430 0.493665 -0.401911
O38   O     O_3   0.945183 0.176003 0.608241 -0.686518
H17   H     H_    0.843454 0.142181 0.619063 0.366509
O39   O     O_3   0.001304 0.069949 0.682774 -0.685110
H18   H     H_    0.089524 0.023806 0.674670 0.376354
O40   O     O_3   0.437975 0.711308 0.120050 -0.689646
H19   H     H_    0.496780 0.708173 0.072652 0.327503
O41   O     O_3   0.416251 0.623755 0.207303 -0.630942
H20   H     H_    0.471456 0.569005 0.192965 0.376537
O42   O     O_3   0.535181 0.593948 0.321051 -0.640068
H21   H     H_    0.573715 0.539186 0.318318 0.340850
O43   O     O_3   0.163743 0.692732 0.424847 -0.660661
H22   H     H_    0.103823 0.699197 0.472893 0.336775
O44   O     O_3   0.345849 0.791724 0.377149 -0.690489
H23   H     H_    0.291128 0.818964 0.426485 0.354509
N5    N     N_R   0.949989 0.800946 0.630213 0.256052
O45   O     O_R   0.107864 0.838437 0.624920 -0.351586
O46   O     O_R   0.817478 0.788311 0.579458 -0.412233

loop_
_geom_bond_atom_site_label_1
_geom_bond_atom_site_label_2
_geom_bond_distance
_ccdc_geom_bond_type
C9    C14   1.424470 A    
C18   O42   1.376365 S    
O42   H21   0.988243 S    
C10   C17   1.402085 A    
C5    O21   1.380922 S    
C27   C28   1.548059 S    
C21   C22   1.540303 S    
C50   O35   1.383475 S    
C4    C19   1.500588 S    
C1    O6    1.292746 A    
O43   H22   0.991283 S    
O22   H9    0.990519 S    
C39   C40   1.400859 A    
N2    O31   1.300494 A    
C31   C34   1.537116 S    
C14   C15   1.422069 A    
C45   C46   1.423755 A    
C45   C50   1.417189 A    
C16   C17   1.390678 A    
O19   V4    2.011437 S    
C23   C26   1.549148 S    
C22   N5    1.458321 S    
C42   C49   1.419519 A    
O5    C3    1.291301 A    
C18   C19   1.419932 A    
O15   C55   1.299097 A    
V2    O10   2.152459 S    
O26   H13   0.989717 S    
C24   O23   1.392909 S    
C12   O41   1.375310 S    
N3    O32   1.300508 A    
C5    C6    1.409594 A    
C6    C7    1.398727 A    
C3    C23   1.491814 S    
C21   C28   1.550314 S    
O38   H17   0.990518 S    
O23   H10   0.990666 S    
O17   V4    1.702289 S    
C2    C51   1.496288 S    
C31   C32   1.550199 S    
O8    V2    2.011658 S    
C33   C36   1.539690 S    
C7    C8    1.406985 A    
C51   C52   1.415018 A    
N4    O37   1.300947 A    
O11   C54   1.289975 A    
C48   O38   1.383692 S    
O1    V2    2.006673 S    
C11   O40   1.380776 S    
O7    V1    2.172735 S    
C38   C53   1.493668 S    
O21   H8    0.989240 S    
C49   O39   1.377134 S    
O9    C4    1.301183 A    
O12   C53   1.304819 A    
C22   C27   1.540709 S    
N1    O28   1.300326 A    
C26   O25   1.397802 S    
O12   V3    2.001896 S    
C30   C31   1.540058 S    
C35   C36   1.555080 S    
C25   C28   1.547506 S    
C37   C42   1.429021 A    
C35   H5    1.108801 S    
C1    C36   1.511879 S    
C50   C51   1.418081 A    
C21   C24   1.542046 S    
C12   C13   1.423403 A    
C7    H1    1.081425 S    
C25   C26   1.538396 S    
C31   C54   1.507550 S    
V4    O20   2.152477 S    
N5    O45   1.300068 A    
C40   C43   1.395043 A    
C34   N2    1.457095 S    
C43   H7    1.084695 S    
C13   C14   1.418113 A    
O18   V4    2.006226 S    
C17   H2    1.081450 S    
C43   C44   1.392595 A    
O2    C1    1.305778 A    
C29   C30   1.544121 S    
C25   O24   1.398145 S    
C23   C24   1.547190 S    
C32   C33   1.544973 S    
C8    C11   1.412415 A    
O15   V3    2.003444 S    
C11   C12   1.396118 A    
C33   N1    1.452595 S    
O25   H12   0.990974 S    
C38   C39   1.398833 A    
C6    C55   1.485828 S    
O24   H11   0.991241 S    
C28   C56   1.493497 S    
C47   C52   1.425205 A    
O19   C56   1.295856 A    
N1    O29   1.300337 A    
C29   H3    1.110185 S    
V3    O20   1.718404 S    
O3    C4    1.300525 A    
N5    O46   1.300393 A    
C26   C27   1.542090 S    
O18   C55   1.297200 A    
O6    V2    2.008460 S    
C39   H6    1.084642 S    
O9    V2    2.006094 S    
O13   V3    1.998237 S    
O2    V1    1.993603 S    
O39   H18   0.991527 S    
O4    C2    1.300912 A    
O35   H16   0.990516 S    
C30   C35   1.548330 S    
C13   C18   1.417412 A    
C37   C38   1.419195 A    
C52   N4    1.434668 S    
O34   H15   0.990543 S    
C15   C20   1.418698 A    
O1    C2    1.300961 A    
C19   C20   1.419242 A    
C41   C46   1.424224 A    
O14   C54   1.306152 A    
O17   V3    2.172628 S    
O14   V3    1.993511 S    
O5    V1    1.998182 S    
O11   V4    2.009324 S    
O8    C3    1.295603 A    
C32   H4    1.106727 S    
N2    O30   1.299504 A    
C5    C10   1.421677 A    
C37   N3    1.433376 S    
C47   C48   1.421443 A    
C20   O43   1.379350 S    
O44   H23   0.991816 S    
C41   C42   1.416762 A    
O4    V1    2.001725 S    
O3    V1    2.003651 S    
V1    O10   1.718491 S    
C30   O27   1.396840 S    
C29   C36   1.558539 S    
C40   C41   1.412460 A    
C24   C25   1.538684 S    
C29   C32   1.565532 S    
C33   C34   1.525097 S    
O27   H14   0.991192 S    
N3    O33   1.300288 A    
C16   O44   1.374279 S    
C48   C49   1.410900 A    
O13   C56   1.291849 A    
O7    V2    1.704431 S    
C44   C45   1.425020 A    
C46   C47   1.420221 A    
C21   O22   1.398174 S    
C8    C9    1.416074 A    
C22   C23   1.548630 S    
C34   C35   1.548155 S    
C15   C16   1.421278 A    
C27   O26   1.392204 S    
O40   H19   0.989838 S    
C9    C10   1.417322 A    
C53   O16   1.297690 A    
O16   V4    2.012916 S    
N4    O36   1.301623 A    
O41   H20   0.991431 S    
C44   O34   1.377571 S    
