data_mof_unit_34791.cif
_audit_creation_date              2012-10-26T19:39:06-0400
_audit_creation_method            fapswitch 2.2
_symmetry_space_group_name_H-M    P1
_symmetry_Int_Tables_number       1
_space_group_crystal_system       triclinic
_cell_length_a                    12.197064
_cell_length_b                    12.549105
_cell_length_c                    7.437334
_cell_angle_alpha                 90.167036
_cell_angle_beta                  107.585771
_cell_angle_gamma                 89.845319
_cell_volume                      1085.16726739

loop_
_atom_site_label
_atom_site_type_symbol
_atom_type_description
_atom_site_fract_x
_atom_site_fract_y
_atom_site_fract_z
_atom_type_partial_charge
C1    C     C_R   0.350700 0.850338 0.455044 0.565905
C2    C     C_2   0.751731 0.787074 0.567189 -0.026566
C3    C     C_2   0.719445 0.242668 0.561571 -0.022582
C4    C     C_2   0.280555 0.757332 0.438429 -0.022582
C5    C     C_2   0.748269 0.712926 0.432811 -0.026565
C6    C     C_2   0.251731 0.287074 0.567189 -0.026565
C7    C     C_2   0.219445 0.742668 0.561571 -0.022582
C8    C     C_2   0.780555 0.257332 0.438429 -0.022582
C9    C     C_3   0.641937 0.688219 0.268496 -0.380957
C10   C     C_3   0.358063 0.311781 0.731503 -0.380957
C11   C     C_3   0.212207 0.823668 0.710549 -0.385329
C12   C     C_R   0.649300 0.149662 0.544956 0.565904
C13   C     C_3   0.787792 0.176332 0.289451 -0.385329
C14   C     C_3   0.141937 0.188219 0.268496 -0.380957
C15   C     C_3   0.858062 0.811781 0.731504 -0.380957
C16   C     C_3   0.712207 0.323668 0.710549 -0.385329
C17   C     C_3   0.287792 0.676332 0.289451 -0.385329
C18   C     C_R   0.654671 0.855326 0.545898 0.565934
C19   C     C_R   0.345329 0.144674 0.454102 0.565934
C20   C     C_R   0.850700 0.350338 0.455044 0.565905
C21   C     C_R   0.149300 0.649662 0.544956 0.565904
C22   C     C_R   0.154671 0.355326 0.545898 0.565934
C23   C     C_R   0.845329 0.644674 0.454102 0.565934
C24   C     C_2   0.248269 0.212926 0.432811 -0.026565
Cu1   Cu    Cu3+1 0.517640 1.000000 0.687200 0.921896
Cu2   Cu    Cu3+1 0.482360 1.000000 0.312800 0.921896
Cu3   Cu    Cu3+1 0.017640 0.500000 0.687200 0.921896
Cu4   Cu    Cu3+1 0.982360 0.500000 0.312800 0.921896
H1    H     H_    0.377303 0.004605 0.929087 0.235574
H2    H     H_    0.434535 0.318942 0.681045 0.122740
H3    H     H_    0.141185 0.805531 0.770036 0.128703
H4    H     H_    0.292848 0.822621 0.830319 0.161197
H5    H     H_    0.194954 0.904701 0.648476 0.121445
H6    H     H_    0.858814 0.194469 0.229964 0.128703
H7    H     H_    0.805046 0.095299 0.351524 0.121445
H8    H     H_    0.707152 0.177379 0.169681 0.161197
H9    H     H_    0.150512 0.111106 0.200109 0.127455
H10   H     H_    0.065464 0.181058 0.318955 0.122740
H11   H     H_    0.127973 0.250952 0.158899 0.167419
H12   H     H_    0.622697 0.995395 0.070913 0.235574
H13   H     H_    0.849488 0.888894 0.799891 0.127455
H14   H     H_    0.872027 0.749047 0.841100 0.167419
H15   H     H_    0.934535 0.818942 0.681045 0.122740
H16   H     H_    0.641185 0.305531 0.770036 0.128703
H17   H     H_    0.792848 0.322620 0.830319 0.161197
H18   H     H_    0.694954 0.404701 0.648476 0.121445
H19   H     H_    0.358814 0.694469 0.229964 0.128703
H20   H     H_    0.305046 0.595299 0.351524 0.121445
H21   H     H_    0.207152 0.677379 0.169681 0.161197
H22   H     H_    0.877303 0.504605 0.929087 0.235574
H23   H     H_    0.122697 0.495395 0.070913 0.235574
H24   H     H_    0.650512 0.611106 0.200109 0.127455
H25   H     H_    0.565464 0.681058 0.318955 0.122741
H26   H     H_    0.627973 0.750953 0.158899 0.167419
H27   H     H_    0.349488 0.388894 0.799891 0.127455
H28   H     H_    0.372027 0.249048 0.841100 0.167419
N1    N     N_2   0.455760 0.000000 0.031460 -0.267121
N2    N     N_2   0.544240 1.000000 0.968540 -0.267120
N3    N     N_2   0.955760 0.500000 0.031460 -0.267121
N4    N     N_2   0.044240 0.500000 0.968540 -0.267120
O1    O     O_R   0.398880 0.887420 0.621600 -0.510629
O2    O     O_R   0.630920 0.112580 0.694560 -0.508215
O3    O     O_R   0.630920 0.887420 0.694560 -0.500533
O4    O     O_R   0.369080 0.112580 0.305440 -0.500533
O5    O     O_R   0.869080 0.387420 0.305440 -0.508215
O6    O     O_R   0.130920 0.612580 0.694560 -0.508215
O7    O     O_R   0.130920 0.387420 0.694560 -0.500533
O8    O     O_R   0.869080 0.612580 0.305440 -0.500533
O9    O     O_R   0.601120 0.112580 0.378400 -0.510628
O10   O     O_R   0.601120 0.887420 0.378400 -0.516337
O11   O     O_R   0.398880 0.112580 0.621600 -0.516337
O12   O     O_R   0.898880 0.387420 0.621600 -0.510629
O13   O     O_R   0.101120 0.612580 0.378400 -0.510628
O14   O     O_R   0.101120 0.387420 0.378400 -0.516337
O15   O     O_R   0.898880 0.612580 0.621600 -0.516337
O16   O     O_R   0.369080 0.887420 0.305440 -0.508215

loop_
_geom_bond_atom_site_label_1
_geom_bond_atom_site_label_2
_ccdc_geom_bond_type
C18   O10   A    
C12   O9    A    
C8    C13   S    
C21   O6    A    
C2    C18   S    
C19   O11   A    
C17   H20   S    
Cu4   O14   S    
C7    C11   S    
C8    C20   S    
H22   N3    S    
Cu4   O8    S    
C13   H7    S    
Cu3   N4    S    
C18   O3    A    
C6    C22   S    
C21   O13   A    
Cu1   O3    S    
C14   C24   S    
Cu2   O4    S    
C3    C12   S    
C14   H11   S    
Cu2   O16   S    
Cu1   O11   S    
C10   H28   S    
C16   H16   S    
C11   H3    S    
N3    N4    D    
C9    H24   S    
C4    C7    D    
Cu3   O15   S    
Cu4   O13   S    
H12   N2    S    
C20   O5    A    
C11   H5    S    
C15   H13   S    
C13   H8    S    
C3    C8    D    
C16   H18   S    
Cu1   Cu2   S    
C7    C21   S    
C23   O8    A    
C5    C9    S    
C10   H27   S    
C14   H10   S    
C12   O2    A    
C10   H2    S    
C5    C23   S    
C19   O4    A    
C6    C24   D    
Cu1   O1    S    
C2    C15   S    
C4    C17   S    
H1    N1    S    
C11   H4    S    
Cu2   O10   S    
C2    C5    D    
C9    H25   S    
Cu1   N2    S    
C22   O14   A    
C17   H21   S    
Cu4   N3    S    
C1    O16   A    
C17   H19   S    
C15   H14   S    
C23   O15   A    
C1    O1    A    
C16   H17   S    
C6    C10   S    
H23   N4    S    
C1    C4    S    
Cu4   O5    S    
C15   H15   S    
C13   H6    S    
Cu3   O6    S    
C14   H9    S    
N1    N2    D    
C19   C24   S    
Cu1   O2    S    
Cu2   N1    S    
C22   O7    A    
Cu3   O7    S    
Cu3   O12   S    
Cu3   Cu4   S    
Cu2   O9    S    
C20   O12   A    
C9    H26   S    
C3    C16   S    
