data_mof_unit_47869.cif
_audit_creation_date              2012-12-10T17:22:57-0500
_audit_creation_method            fapswitch 2.2
_symmetry_space_group_name_H-M    P1
_symmetry_Int_Tables_number       1
_space_group_crystal_system       triclinic
_cell_length_a                    10.132567
_cell_length_b                    10.490981
_cell_length_c                    10.815071
_cell_angle_alpha                 90.234441
_cell_angle_beta                  97.045494
_cell_angle_gamma                 80.893236
_cell_volume                      1126.44781737

loop_
_atom_site_label
_atom_site_type_symbol
_atom_type_description
_atom_site_fract_x
_atom_site_fract_y
_atom_site_fract_z
_atom_type_partial_charge
C1    C     C_R   0.441530 0.509073 0.266927 0.873061
C2    C     C_3   0.501011 0.122190 0.499685 0.033338
C3    C     C_3   0.593233 0.943929 0.591059 -0.188078
C4    C     C_3   0.406768 0.056070 0.408944 -0.188077
C5    C     C_2   0.403819 0.523538 0.133372 -0.189193
C6    C     C_2   0.596185 0.476454 0.866623 -0.189186
C7    C     C_2   0.500591 0.478020 0.063348 -0.207527
C8    C     C_2   0.499434 0.522003 0.936655 -0.207579
C9    C     C_2   0.071982 0.490021 0.489060 -0.129035
C10   C     C_2   0.928019 0.509978 0.510940 -0.129035
C11   C     C_R   0.729005 0.401235 0.917698 0.128339
C12   C     C_R   0.558470 0.490927 0.733071 0.873073
C13   C     C_R   0.774581 0.280018 0.868880 -0.122573
C14   C     C_R   0.898962 0.209466 0.917306 -0.148747
C15   C     C_R   0.978838 0.259203 0.014546 -0.130924
C16   C     C_R   0.934719 0.379811 0.063278 -0.145579
C17   C     C_R   0.810963 0.451181 0.014497 -0.154744
C18   C     C_R   0.270965 0.598691 0.082279 0.128322
C19   C     C_R   0.189088 0.548715 0.985429 -0.154742
C20   C     C_R   0.065300 0.620023 0.936632 -0.145574
C21   C     C_R   0.021065 0.740596 0.985402 -0.130922
C22   C     C_R   0.100859 0.790362 0.082693 -0.148758
C23   C     C_R   0.500195 0.257396 0.499821 0.851917
C24   C     C_R   0.225274 0.719874 0.131132 -0.122577
C25   C     C_R   0.499805 0.742604 0.500180 0.851915
C26   C     C_3   0.622923 0.021479 0.479590 -0.133315
C27   C     C_3   0.377078 0.978521 0.520412 -0.133316
C28   C     C_3   0.528480 0.952688 0.388889 -0.182287
C29   C     C_3   0.471521 0.047313 0.611114 -0.182291
C30   C     C_3   0.498990 0.877810 0.500317 0.033340
H1    H     H_    0.551387 0.909236 0.298633 0.131000
H2    H     H_    0.106451 0.421784 0.419663 0.158619
H3    H     H_    0.878318 0.384045 0.383301 0.160523
H4    H     H_    0.121682 0.615955 0.616699 0.160521
H5    H     H_    0.713273 0.239548 0.794326 0.118594
H6    H     H_    0.933230 0.115952 0.879733 0.125715
H7    H     H_    0.074937 0.204334 0.052068 0.120219
H8    H     H_    0.996827 0.418453 0.138358 0.139660
H9    H     H_    0.778749 0.545157 0.052343 0.145925
H10   H     H_    0.221390 0.454765 0.947554 0.145937
H11   H     H_    0.003257 0.581359 0.861511 0.139647
H12   H     H_    0.448614 0.090764 0.701369 0.130993
H13   H     H_    0.924941 0.795416 0.947869 0.120205
H14   H     H_    0.066501 0.883850 0.120295 0.125707
H15   H     H_    0.286517 0.760368 0.205725 0.118640
H16   H     H_    0.723198 0.042946 0.462956 0.141050
H17   H     H_    0.276802 0.957054 0.537046 0.141048
H18   H     H_    0.668923 0.893475 0.665049 0.124416
H19   H     H_    0.331078 0.106525 0.334954 0.124421
H20   H     H_    0.411319 0.587451 0.895268 0.191011
H21   H     H_    0.588725 0.412601 0.104743 0.191027
H22   H     H_    0.893549 0.578216 0.580338 0.158610
N1    N     N_2   0.157310 0.552180 0.551120 -0.193694
N2    N     N_2   0.842690 0.447820 0.448880 -0.193687
O1    O     O_R   0.568940 0.489500 0.307530 -0.608459
O2    O     O_R   0.431060 0.510500 0.692470 -0.608459
O3    O     O_R   0.348880 0.522990 0.340350 -0.606734
O4    O     O_R   0.651120 0.477010 0.659650 -0.606723
O5    O     O_R   0.610000 0.297210 0.483560 -0.621963
O6    O     O_R   0.390000 0.702790 0.516440 -0.621973
O7    O     O_R   0.389940 0.330700 0.516390 -0.612878
O8    O     O_R   0.610060 0.669300 0.483610 -0.612877
Zn1   Zn    Zn3+2 0.646930 0.477640 0.478080 0.932362
Zn2   Zn    Zn3+2 0.353070 0.522360 0.521920 0.932347

loop_
_geom_bond_atom_site_label_1
_geom_bond_atom_site_label_2
_ccdc_geom_bond_type
O7    Zn2   S    
C2    C4    S    
O2    Zn2   S    
O8    Zn1   S    
C25   O6    A    
C1    O3    A    
C29   H12   S    
C3    C30   S    
C3    C26   S    
C9    C10   S    
O5    Zn1   S    
C19   C20   A    
C4    H19   S    
O6    Zn2   S    
H3    N2    S    
C10   H22   S    
C2    C23   S    
C28   C30   S    
C20   H11   S    
C1    O1    A    
C7    H21   S    
C7    C8    S    
C2    C26   S    
C21   H13   S    
C21   C22   A    
C27   C30   S    
C23   O5    A    
C11   C13   A    
C12   O2    A    
C22   H14   S    
C12   O4    A    
O3    Zn2   S    
C2    C29   S    
C18   C24   A    
C24   H15   S    
C4    C28   S    
C13   H5    S    
C22   C24   A    
C25   O8    A    
C6    C11   S    
C6    C12   S    
C10   N2    D    
N1    Zn2   S    
C1    C5    S    
C27   C29   S    
N2    Zn1   S    
C26   H16   S    
C15   C16   A    
C8    H20   S    
C3    H18   S    
C23   O7    A    
C4    C27   S    
C9    N1    D    
C20   C21   A    
H4    N1    S    
C5    C7    D    
C18   C19   A    
C19   H10   S    
C27   H17   S    
C25   C30   S    
C3    C29   S    
C17   H9    S    
C14   C15   A    
C15   H7    S    
C14   H6    S    
C6    C8    D    
C5    C18   S    
C9    H2    S    
C13   C14   A    
C26   C28   S    
C28   H1    S    
C11   C17   A    
O4    Zn1   S    
C16   H8    S    
C16   C17   A    
O1    Zn1   S    
