data_mof_unit_27117.cif
_audit_creation_date              2012-12-10T20:25:39-0500
_audit_creation_method            fapswitch 2.2
_symmetry_space_group_name_H-M    P1
_symmetry_Int_Tables_number       1
_space_group_crystal_system       triclinic
_cell_length_a                    8.592047
_cell_length_b                    10.670485
_cell_length_c                    9.872031
_cell_angle_alpha                 90.066897
_cell_angle_beta                  98.423972
_cell_angle_gamma                 90.170033
_cell_volume                      895.310802671

loop_
_atom_site_label
_atom_site_type_symbol
_atom_type_description
_atom_site_fract_x
_atom_site_fract_y
_atom_site_fract_z
_atom_type_partial_charge
C1    C     C_R   0.508648 0.260006 0.500868 0.884158
C2    C     C_R   0.584728 0.933035 0.395475 -0.265653
C3    C     C_R   0.533873 0.871015 0.506146 -0.129596
C4    C     C_R   0.519649 0.936411 0.625294 0.124955
C5    C     C_3   0.394714 0.930245 0.715638 -0.468609
C6    C     C_3   0.397028 0.072276 0.715382 -0.481785
C7    C     C_R   0.432121 0.403545 0.062716 0.243592
C8    C     C_R   0.579545 0.588977 0.082196 -0.137983
C9    C     C_R   0.579574 0.588979 0.938268 -0.137018
C10   C     C_R   0.431222 0.403915 0.920057 0.216150
C11   C     C_3   0.261648 0.367336 0.894953 -0.521338
C12   C     C_R   0.201239 0.500148 0.464201 0.970842
C13   C     C_3   0.264080 0.364695 0.048814 -0.508027
C14   C     C_R   0.505643 0.739964 0.500874 0.887742
C15   C     C_R   0.798659 0.501067 0.535617 0.957425
C16   C     C_2   0.036142 0.499158 0.444661 -0.396512
C17   C     C_2   0.963481 0.504627 0.554387 -0.384882
C18   C     C_R   0.521780 0.063940 0.624828 0.105040
C19   C     C_R   0.539160 0.128598 0.505459 -0.134222
C20   C     C_R   0.589478 0.063655 0.394439 0.092099
H1    H     H_    0.974822 0.492642 0.340316 0.179260
H2    H     H_    0.641368 0.662191 0.892010 0.146643
H3    H     H_    0.186057 0.442939 0.844782 0.214933
H4    H     H_    0.242079 0.273659 0.846481 0.200400
H5    H     H_    0.187849 0.437237 0.086063 0.218256
H6    H     H_    0.250309 0.268899 0.089660 0.206190
H7    H     H_    0.024472 0.512625 0.658238 0.170631
H8    H     H_    0.612079 0.880978 0.307668 0.160604
H9    H     H_    0.282507 0.889508 0.663165 0.201617
H10   H     H_    0.438895 0.889198 0.817442 0.202438
H11   H     H_    0.285994 0.114270 0.662939 0.197613
H12   H     H_    0.442872 0.113059 0.817144 0.205528
H13   H     H_    0.641346 0.662186 0.144388 0.142379
N1    N     N_R   0.498950 0.499140 0.142680 -0.109103
N2    N     N_R   0.498950 0.499180 0.857030 -0.106843
O1    O     O_R   0.500020 0.316790 0.614690 -0.619968
O2    O     O_R   0.500000 0.316760 0.385350 -0.597227
O3    O     O_R   0.271760 0.500010 0.587850 -0.612888
O4    O     O_R   0.271740 0.499970 0.358500 -0.626778
O5    O     O_R   0.500000 0.683240 0.614650 -0.622988
O6    O     O_R   0.499980 0.683210 0.385310 -0.627118
O7    O     O_R   0.728260 0.500030 0.641500 -0.626598
O8    O     O_R   0.728240 0.499990 0.412150 -0.619202
Zn1   Zn    Zn3+2 0.500010 0.500020 0.653130 0.938510
Zn2   Zn    Zn3+2 0.499990 0.499980 0.346870 0.942058
N3    N     N_3   0.636029 0.129065 0.279438 -0.426192
H14   H     H_    0.741848 0.175303 0.314188 0.184073
H15   H     H_    0.659827 0.065907 0.204086 0.167394

loop_
_geom_bond_atom_site_label_1
_geom_bond_atom_site_label_2
_ccdc_geom_bond_type
C8    C9    A    
C7    C10   A    
C6    H12   S    
O3    Zn1   S    
C16   H1    S    
O2    Zn2   S    
O8    Zn2   S    
C19   C20   A    
C1    O2    A    
O4    Zn2   S    
C4    C18   A    
C12   O4    A    
C7    C13   S    
C2    C3    A    
C15   O8    A    
N1    Zn2   S    
C8    N1    A    
N2    Zn1   S    
C11   C13   S    
C13   H5    S    
C10   N2    A    
C3    C14   S    
O7    Zn1   S    
C14   O6    A    
C11   H3    S    
C6    H11   S    
C5    H9    S    
C8    H13   S    
C12   O3    A    
C5    C6    S    
C6    C18   S    
C7    N1    A    
N3    H15   S    
C13   H6    S    
O1    Zn1   S    
C1    C19   S    
C10   C11   S    
C14   O5    A    
C3    C4    A    
C17   H7    S    
C16   C17   D    
C11   H4    S    
O5    Zn1   S    
C1    O1    A    
C9    N2    A    
C9    H2    S    
C5    H10   S    
C15   C17   S    
O6    Zn2   S    
N3    H14   S    
C18   C19   A    
C2    H8    S    
C2    C20   A    
C20   N3    S    
C12   C16   S    
C15   O7    A    
C4    C5    S    
