data_mof_unit_54586.cif
_audit_creation_date              2012-12-10T19:32:10-0500
_audit_creation_method            fapswitch 2.2
_symmetry_space_group_name_H-M    P1
_symmetry_Int_Tables_number       1
_space_group_crystal_system       triclinic
_cell_length_a                    23.381201
_cell_length_b                    15.75314
_cell_length_c                    14.95036
_cell_angle_alpha                 90.501632
_cell_angle_beta                  90.83464
_cell_angle_gamma                 90.652801
_cell_volume                      5505.46543513

loop_
_atom_site_label
_atom_site_type_symbol
_atom_type_description
_atom_site_fract_x
_atom_site_fract_y
_atom_site_fract_z
_atom_type_partial_charge
C1    C     C_R   0.499125 0.337747 0.499571 0.883971
C2    C     C_R   0.499194 0.662329 0.500306 0.903482
C3    C     C_R   0.240104 0.576901 0.512421 0.446453
C4    C     C_R   0.763450 0.439626 0.466301 0.397583
C5    C     C_R   0.299727 0.573968 0.520792 0.247354
C6    C     C_R   0.703983 0.432661 0.471033 0.336466
C7    C     C_R   0.327802 0.499283 0.497096 -0.331066
C8    C     C_R   0.672626 0.502508 0.502434 -0.335754
C9    C     C_R   0.297423 0.425991 0.469324 0.379135
C10   C     C_R   0.700564 0.577239 0.532851 0.312717
C11   C     C_R   0.237280 0.425713 0.471402 -0.141890
C12   C     C_R   0.760347 0.580248 0.538774 -0.112580
C13   C     C_R   0.209265 0.502366 0.491139 0.017293
C14   C     C_R   0.791590 0.512339 0.502403 0.039677
C15   C     C_3   0.536386 0.977989 0.567370 0.348159
C16   C     C_3   0.462151 0.023389 0.438301 0.345296
C17   C     C_3   0.550672 0.032703 0.485443 0.366722
C18   C     C_3   0.447525 0.969246 0.520162 0.329998
C19   C     C_1   0.497279 0.249367 0.498582 -0.174156
C20   C     C_1   0.499235 0.750915 0.501055 -0.180996
C21   C     C_3   0.481986 0.030005 0.582760 -0.194427
C22   C     C_3   0.516724 0.972012 0.421998 -0.219883
C23   C     C_R   0.389459 0.498762 0.499279 1.047259
C24   C     C_R   0.610669 0.500078 0.500575 0.961246
C25   C     C_3   0.496299 0.084084 0.500643 -0.063357
C26   C     C_3   0.501969 0.916643 0.504305 -0.141985
C27   C     C_1   0.496038 0.174446 0.498483 0.145663
C28   C     C_1   0.500248 0.825961 0.502337 0.084910
C29   C     C_3   0.493883 0.419062 0.969833 0.497984
C30   C     C_3   0.507111 0.576626 0.031013 0.426314
C31   C     C_3   0.543124 0.451078 0.031350 0.438044
C32   C     C_3   0.457249 0.544675 0.970882 0.432001
C33   C     C_3   0.449865 0.464788 0.029643 -0.394543
C34   C     C_3   0.551126 0.530539 0.971214 -0.507476
C35   C     C_3   0.499958 0.497460 0.090475 -0.150161
C36   C     C_3   0.500167 0.498277 0.910072 -0.157446
C37   C     C_1   0.499886 0.498867 0.190073 0.158649
C38   C     C_1   0.499894 0.499504 0.810088 0.139542
C39   C     C_R   0.881856 0.498449 0.578655 0.597410
C40   C     C_R   0.119258 0.519243 0.414597 0.553968
C41   C     C_R   0.879152 0.534103 0.423898 0.642583
C42   C     C_R   0.121704 0.489836 0.570988 0.579807
C43   C     C_R   0.938644 0.525497 0.418131 -0.141180
C44   C     C_R   0.061801 0.488406 0.574239 -0.138285
C45   C     C_R   0.970329 0.509982 0.497567 -0.099957
C46   C     C_R   0.030377 0.504603 0.494598 -0.086834
C47   C     C_R   0.941949 0.501455 0.580304 -0.077865
C48   C     C_R   0.058998 0.515649 0.412271 -0.084478
C49   C     C_R   0.966649 0.529284 0.335140 0.399593
C50   C     C_R   0.032811 0.474249 0.655398 0.419865
C51   C     C_R   0.026485 0.524412 0.331777 -0.120315
C52   C     C_R   0.974226 0.490750 0.660350 -0.125869
H1    H     H_    0.592316 0.557673 0.948179 0.175547
H2    H     H_    0.408852 0.436882 0.052519 0.173434
N1    N     N_R   0.852473 0.516547 0.501936 -0.312025
N2    N     N_R   0.148371 0.504333 0.492287 -0.328628
N3    N     N_1   0.500020 0.500000 0.268010 -0.099016
N4    N     N_1   0.499980 0.500000 0.731990 -0.100650
O1    O     O_R   0.500000 0.376780 0.574460 -0.607385
O2    O     O_R   0.500000 0.623220 0.425540 -0.593563
O3    O     O_R   0.500010 0.376780 0.425520 -0.618173
O4    O     O_R   0.499990 0.623220 0.574480 -0.628915
O5    O     O_R   0.416150 0.499970 0.574490 -0.609883
O6    O     O_R   0.583850 0.500030 0.425510 -0.615540
O7    O     O_R   0.416160 0.499980 0.425550 -0.633853
O8    O     O_R   0.583840 0.500020 0.574450 -0.606619
O9    O     O_2   0.852521 0.473670 0.651155 -0.563931
O10   O     O_2   0.149145 0.539654 0.341245 -0.555467
O11   O     O_2   0.847655 0.558710 0.352536 -0.510431
O12   O     O_2   0.153679 0.479248 0.645862 -0.516307
Zn1   Zn    Zn3+2 0.499990 0.500000 0.599450 0.991663
Zn2   Zn    Zn3+2 0.500010 0.500000 0.400550 0.993475
O13   O     O_3   0.935768 0.538173 0.255967 -0.613314
C53   C     C_3   0.919276 0.456753 0.223555 0.093230
H3    H     H_    0.891265 0.423787 0.272219 0.173326
H4    H     H_    0.957412 0.416832 0.210962 0.131063
C54   C     C_3   0.886095 0.466889 0.135591 -0.274756
H5    H     H_    0.848817 0.508650 0.146654 0.249147
H6    H     H_    0.914266 0.497451 0.085678 0.227111
C55   C     C_3   0.864850 0.381472 0.098527 -0.976775
H7    H     H_    0.901409 0.338465 0.087170 0.271868
H8    H     H_    0.842042 0.391188 0.033827 0.275849
H9    H     H_    0.834704 0.351395 0.145724 0.266792
O14   O     O_3   0.061978 0.450987 0.732713 -0.613874
C56   C     C_3   0.073136 0.362615 0.729907 0.157197
H10   H     H_    0.112581 0.351767 0.770343 0.199703
H11   H     H_    0.082053 0.338217 0.661206 0.121847
C57   C     C_3   0.024063 0.311483 0.770883 -0.449622
H12   H     H_    0.016746 0.334413 0.840243 0.239750
H13   H     H_    0.984261 0.320259 0.730701 0.210295
C58   C     C_3   0.037575 0.216990 0.773238 -0.898806
H14   H     H_    0.044170 0.192235 0.704393 0.263257
H15   H     H_    0.001291 0.181723 0.803144 0.269837
H16   H     H_    0.076671 0.205976 0.814430 0.267475
O15   O     O_3   0.586044 0.396656 0.064027 -0.637345
C59   C     C_3   0.630855 0.445118 0.104040 0.078936
H17   H     H_    0.614474 0.496108 0.148669 0.152790
H18   H     H_    0.657334 0.474476 0.051084 0.146872
C60   C     C_3   0.668451 0.386695 0.160289 -0.335965
H19   H     H_    0.641767 0.354203 0.210874 0.254727
H20   H     H_    0.687438 0.337605 0.116260 0.223595
C61   C     C_3   0.716437 0.436148 0.208450 -0.843126
H21   H     H_    0.743331 0.470105 0.159365 0.251260
H22   H     H_    0.743812 0.391511 0.246370 0.299781
H23   H     H_    0.698390 0.482806 0.256207 0.272845
O16   O     O_3   0.412732 0.595722 0.937308 -0.656448
C62   C     C_3   0.376298 0.619041 0.007781 0.082976
H24   H     H_    0.400677 0.638091 0.069535 0.169829
H25   H     H_    0.347361 0.564796 0.023457 0.157174
C63   C     C_3   0.340249 0.694479 0.978790 -0.349425
H26   H     H_    0.369002 0.748191 0.960811 0.228772
H27   H     H_    0.313904 0.676261 0.919039 0.240435
C64   C     C_3   0.300852 0.723405 0.053340 -0.932825
H28   H     H_    0.270890 0.671283 0.071378 0.275904
H29   H     H_    0.275566 0.778521 0.030318 0.270299
H30   H     H_    0.326329 0.742968 0.113492 0.266064
O17   O     O_3   0.483641 0.333813 0.943841 -0.621846
C65   C     C_3   0.526153 0.305213 0.885170 0.107226
H31   H     H_    0.569858 0.327034 0.906132 0.158610
H32   H     H_    0.516691 0.328185 0.816519 0.155238
C66   C     C_3   0.524844 0.208118 0.884001 -0.303390
H33   H     H_    0.535337 0.184504 0.952081 0.225003
H34   H     H_    0.481111 0.185213 0.865240 0.258501
C67   C     C_3   0.567348 0.171805 0.817820 -0.906837
H35   H     H_    0.556555 0.192751 0.748969 0.294315
H36   H     H_    0.565338 0.101356 0.819272 0.275047
H37   H     H_    0.611551 0.192883 0.835848 0.256933
O18   O     O_3   0.513029 0.657967 0.070558 -0.639431
C68   C     C_3   0.520420 0.719770 0.004058 0.078577
H38   H     H_    0.486308 0.714825 0.951607 0.173501
H39   H     H_    0.563002 0.712761 0.972684 0.145922
C69   C     C_3   0.517049 0.807549 0.047866 -0.285545
H40   H     H_    0.475664 0.813179 0.082975 0.236355
H41   H     H_    0.552295 0.815336 0.098089 0.248746
C70   C     C_3   0.521393 0.878072 0.978987 -1.000976
H42   H     H_    0.562685 0.874319 0.943443 0.274167
H43   H     H_    0.519116 0.940757 0.013220 0.273297
H44   H     H_    0.485434 0.872756 0.929783 0.265026
C71   C     C_2   0.052221 0.523877 0.241616 0.524260
H45   H     H_    0.039787 0.571303 0.193061 0.081015
O19   O     O_2   0.083958 0.466845 0.218814 -0.543680
C72   C     C_2   0.949940 0.503688 0.750814 0.565507
H46   H     H_    0.964433 0.465924 0.806791 0.053755
O20   O     O_2   0.916443 0.561009 0.765009 -0.510027
O21   O     O_3   0.211172 0.650517 0.532929 -0.632258
C73   C     C_3   0.215858 0.708548 0.461619 0.130033
H47   H     H_    0.180165 0.696626 0.413028 0.170079
H48   H     H_    0.257022 0.703916 0.425029 0.162555
C74   C     C_3   0.211309 0.798705 0.499116 -0.317980
H49   H     H_    0.168882 0.806691 0.530512 0.233469
H50   H     H_    0.245004 0.809028 0.551354 0.229346
C75   C     C_3   0.218678 0.864978 0.426209 -0.963553
H51   H     H_    0.261752 0.860092 0.396274 0.264829
H52   H     H_    0.214308 0.929491 0.455649 0.267178
H53   H     H_    0.185453 0.855922 0.373015 0.272594
O22   O     O_3   0.792294 0.379320 0.416456 -0.596312
C76   C     C_3   0.828588 0.329755 0.471065 0.118200
H54   H     H_    0.813017 0.323390 0.540774 0.097662
H55   H     H_    0.872152 0.358275 0.473951 0.120422
C77   C     C_3   0.833411 0.240737 0.430354 -0.350346
H56   H     H_    0.858132 0.200098 0.477029 0.173798
H57   H     H_    0.790121 0.212220 0.421018 0.226774
C78   C     C_3   0.863210 0.242151 0.340172 -0.802707
H58   H     H_    0.837861 0.279214 0.291175 0.275515
H59   H     H_    0.867128 0.176261 0.314201 0.242429
H60   H     H_    0.906733 0.270652 0.347380 0.233074
O23   O     O_3   0.331247 0.646747 0.540997 -0.645925
C79   C     C_3   0.331593 0.660657 0.634395 0.117567
H61   H     H_    0.348011 0.604164 0.670645 0.166596
H62   H     H_    0.287785 0.675164 0.657914 0.182049
C80   C     C_3   0.370838 0.736527 0.655917 -0.310152
H63   H     H_    0.415046 0.721909 0.635355 0.246073
H64   H     H_    0.356066 0.792206 0.617483 0.260321
C81   C     C_3   0.371509 0.758522 0.755359 -1.014658
H65   H     H_    0.327649 0.773073 0.778063 0.266957
H66   H     H_    0.399259 0.815182 0.767847 0.267020
H67   H     H_    0.388836 0.704648 0.794250 0.302223
O24   O     O_3   0.677671 0.359381 0.437196 -0.609191
C82   C     C_3   0.652077 0.311163 0.506169 0.107933
H68   H     H_    0.628967 0.256943 0.473555 0.194948
H69   H     H_    0.619293 0.347111 0.542582 0.126240
C83   C     C_3   0.695604 0.275157 0.573337 -0.403000
H70   H     H_    0.725721 0.233376 0.537951 0.217792
H71   H     H_    0.720174 0.327530 0.606679 0.217807
C84   C     C_3   0.665631 0.224497 0.645745 -0.918412
H72   H     H_    0.638274 0.267310 0.685584 0.262538
H73   H     H_    0.697988 0.195936 0.691092 0.266034
H74   H     H_    0.638739 0.172843 0.615687 0.307607
O25   O     O_3   0.327087 0.353550 0.446298 -0.593862
C85   C     C_3   0.331243 0.349233 0.352075 0.111276
H75   H     H_    0.351255 0.408063 0.325230 0.139710
H76   H     H_    0.288189 0.340509 0.320284 0.162140
C86   C     C_3   0.368208 0.273572 0.326710 -0.275976
H77   H     H_    0.410345 0.279297 0.361440 0.239017
H78   H     H_    0.347125 0.213801 0.348599 0.252952
C87   C     C_3   0.377810 0.269242 0.226033 -0.936621
H79   H     H_    0.336325 0.261332 0.189603 0.264956
H80   H     H_    0.405259 0.214240 0.210174 0.276015
H81   H     H_    0.399632 0.328004 0.203072 0.264946
O26   O     O_3   0.669527 0.648028 0.557598 -0.653778
C88   C     C_3   0.651034 0.692024 0.480154 0.084640
H82   H     H_    0.614790 0.732241 0.499887 0.153653
H83   H     H_    0.634534 0.649085 0.425961 0.153975
C89   C     C_3   0.697929 0.750304 0.443455 -0.412684
H84   H     H_    0.712505 0.795661 0.496592 0.218290
H85   H     H_    0.734905 0.712128 0.421648 0.244964
C90   C     C_3   0.675789 0.799530 0.362977 -0.881575
H86   H     H_    0.661898 0.755118 0.308553 0.280166
H87   H     H_    0.710254 0.841300 0.337373 0.262274
H88   H     H_    0.639084 0.839115 0.382589 0.272256
C91   C     C_2   0.203186 0.346439 0.455051 0.487557
H89   H     H_    0.157278 0.349187 0.444323 0.043634
O27   O     O_2   0.225495 0.276742 0.455439 -0.542947
C92   C     C_2   0.788601 0.656825 0.579743 0.516330
H90   H     H_    0.764110 0.699394 0.621415 0.093556
O28   O     O_2   0.838612 0.674866 0.566210 -0.558018
O29   O     O_3   0.603197 0.074916 0.470485 -0.647786
C93   C     C_3   0.646199 0.015990 0.450490 0.118370
H91   H     H_    0.641652 0.995457 0.379476 0.138222
H92   H     H_    0.644669 0.959408 0.494657 0.157727
C94   C     C_3   0.704400 0.059663 0.463349 -0.346520
H93   H     H_    0.705457 0.118653 0.423163 0.231699
H94   H     H_    0.710666 0.076866 0.535065 0.236289
C95   C     C_3   0.753217 0.002707 0.434494 -0.954778
H95   H     H_    0.753103 0.943164 0.473676 0.273964
H96   H     H_    0.794675 0.036300 0.446421 0.267007
H97   H     H_    0.749106 0.987244 0.362066 0.268800
O30   O     O_3   0.394110 0.931282 0.539230 -0.661528
C96   C     C_3   0.351232 0.993485 0.547802 0.110172
H98   H     H_    0.320028 0.984809 0.491774 0.156934
H99   H     H_    0.367351 0.060404 0.545245 0.175086
C97   C     C_3   0.319824 0.980558 0.635721 -0.373920
H100  H     H_    0.299566 0.916522 0.636028 0.221287
H101  H     H_    0.350775 0.984800 0.692678 0.225380
C98   C     C_3   0.273567 0.046951 0.648425 -0.874976
H102  H     H_    0.292900 0.111697 0.650756 0.288852
H103  H     H_    0.251320 0.035442 0.712372 0.260066
H104  H     H_    0.241636 0.042958 0.592746 0.263809
O31   O     O_3   0.577584 0.968151 0.636830 -0.641398
C99   C     C_3   0.583089 0.882969 0.663134 0.102133
H105  H     H_    0.623205 0.878893 0.703513 0.175502
H106  H     H_    0.589235 0.839931 0.605122 0.127118
C100  C     C_3   0.533340 0.854754 0.722236 -0.403993
H107  H     H_    0.530057 0.899323 0.779813 0.226170
H108  H     H_    0.492339 0.856328 0.684066 0.226724
C101  C     C_3   0.542254 0.765022 0.756950 -0.912112
H109  H     H_    0.548705 0.720137 0.700497 0.293439
H110  H     H_    0.504007 0.744157 0.794291 0.263663
H111  H     H_    0.580167 0.763456 0.802495 0.255380
O32   O     O_3   0.423728 0.053162 0.372175 -0.656522
C102  C     C_3   0.396427 0.984500 0.326290 0.116512
H112  H     H_    0.350227 0.985119 0.342281 0.145734
H113  H     H_    0.412839 0.920592 0.344704 0.175002
C103  C     C_3   0.402485 0.996434 0.225459 -0.332416
H114  H     H_    0.381246 0.056172 0.205244 0.228809
H115  H     H_    0.448480 0.001604 0.208546 0.224144
C104  C     C_3   0.375591 0.922225 0.172970 -0.958083
H116  H     H_    0.396773 0.861912 0.191256 0.272595
H117  H     H_    0.380914 0.932564 0.100170 0.270763
H118  H     H_    0.329189 0.916915 0.187166 0.267176
C105  C     C_2   0.535271 0.942371 0.331510 0.373441
H119  H     H_    0.548146 0.988604 0.282192 0.076158
O33   O     O_2   0.535481 0.866916 0.312500 -0.581107
C106  C     C_2   0.462450 0.060791 0.672231 0.454248
H120  H     H_    0.457806 0.016247 0.726573 0.047443
O34   O     O_2   0.451259 0.135419 0.684283 -0.580068

loop_
_geom_bond_atom_site_label_1
_geom_bond_atom_site_label_2
_ccdc_geom_bond_type
C70   H44   S    
C80   H63   S    
C95   H97   S    
C85   H75   S    
C16   C25   S    
C29   C33   S    
C18   C21   S    
C88   H83   S    
O13   C53   S    
O15   C59   S    
C18   C26   S    
C12   C92   S    
C94   C95   S    
C49   O13   S    
C16   C22   S    
C95   H95   S    
C49   C51   A    
O24   C82   S    
C89   H85   S    
C79   C80   S    
C50   O14   S    
C70   H42   S    
C54   H5    S    
C101  H111  S    
C80   H64   S    
C29   C36   S    
C76   H54   S    
C53   H4    S    
C30   C35   S    
C32   C36   S    
C39   C47   A    
O22   C76   S    
C78   H59   S    
O31   C99   S    
C64   H28   S    
C96   C97   S    
C74   H50   S    
C56   H10   S    
C105  H119  S    
C33   C35   S    
C2    O2    A    
N4    Zn1   S    
C84   H73   S    
C11   C13   A    
O16   C62   S    
O2    Zn2   S    
C22   C105  S    
C100  H107  S    
C59   C60   S    
C15   O31   S    
C42   O12   S    
C90   H87   S    
C61   H23   S    
C7    C9    A    
C104  H116  S    
C88   H82   S    
C94   H93   S    
C83   H70   S    
C41   N1    A    
C66   C67   S    
C103  H115  S    
C85   C86   S    
C42   N2    A    
C38   N4    T    
C48   C51   A    
C39   N1    A    
C84   H72   S    
C78   H58   S    
O26   C88   S    
C86   H78   S    
C53   C54   S    
C59   H18   S    
C90   H88   S    
C50   C52   A    
C98   H102  S    
C75   H53   S    
C19   C27   T    
C41   C43   A    
C34   C36   S    
C3    C13   A    
C24   O8    A    
C101  H109  S    
C68   C69   S    
C11   C91   S    
C100  C101  S    
C45   C47   A    
C14   N1    S    
C24   O6    A    
C13   N2    S    
C32   O16   S    
C65   H31   S    
C91   O27   D    
C88   C89   S    
C98   H103  S    
C61   H21   S    
C42   C44   A    
C55   H9    S    
C9    O25   S    
C97   H101  S    
O30   C96   S    
C96   H98   S    
C44   C46   A    
O21   C73   S    
C73   H48   S    
C56   H11   S    
C63   H27   S    
C37   N3    T    
C80   C81   S    
C101  H110  S    
C1    C19   S    
C53   H3    S    
C30   C34   S    
O17   C65   S    
C2    C20   S    
C90   H86   S    
C77   C78   S    
C102  H112  S    
C78   H60   S    
C54   H6    S    
O14   C56   S    
O18   C68   S    
C4    C6    A    
C74   C75   S    
O23   C79   S    
C105  O33   D    
C16   O32   S    
C92   H90   S    
C106  H120  S    
C84   H74   S    
C6    C8    A    
C20   C28   T    
C103  C104  S    
C40   N2    A    
O32   C102  S    
C45   C46   A    
C29   O17   S    
C99   C100  S    
C52   C72   S    
C63   H26   S    
C1    O3    A    
C104  H117  S    
C65   C66   S    
C77   H57   S    
C67   H36   S    
O8    Zn1   S    
C103  H114  S    
C58   H15   S    
C73   C74   S    
C5    C7    A    
C21   C106  S    
C93   H92   S    
C91   H89   S    
C63   C64   S    
C89   C90   S    
C62   H24   S    
C86   C87   S    
C59   H17   S    
C99   H106  S    
C31   C34   S    
C16   C18   S    
C89   H84   S    
C61   H22   S    
C43   C45   A    
C81   H67   S    
C66   H33   S    
O5    Zn1   S    
C73   H47   S    
C10   C12   A    
C69   H41   S    
O3    Zn2   S    
C55   H8    S    
C79   H61   S    
C60   H20   S    
C1    O1    A    
C57   H13   S    
C3    O21   S    
C76   C77   S    
C9    C11   A    
C22   C26   S    
C96   H99   S    
C98   H104  S    
C31   C35   S    
C55   H7    S    
C4    O22   S    
C106  O34   D    
C3    C5    A    
C58   H14   S    
C17   O29   S    
C35   C37   S    
C93   C94   S    
C41   O11   S    
C68   H38   S    
C62   C63   S    
C56   C57   S    
C44   C50   A    
C33   H2    S    
C70   H43   S    
C21   C25   S    
C40   C48   A    
C85   H76   S    
C83   H71   S    
C87   H81   S    
C39   O9    S    
C8    C10   A    
C43   C49   A    
C75   H52   S    
C87   H79   S    
C15   C26   S    
C95   H96   S    
C71   H45   S    
C64   H30   S    
C15   C17   S    
C47   C52   A    
C25   C27   S    
O7    Zn2   S    
C79   H62   S    
C26   C28   S    
C17   C22   S    
C60   H19   S    
C94   H94   S    
C104  H118  S    
C17   C25   S    
C32   C33   S    
C82   C83   S    
C36   C38   S    
C12   C14   A    
C92   O28   D    
C29   C31   S    
C74   H49   S    
C77   H56   S    
C58   H16   S    
C30   C32   S    
C71   O19   D    
C23   O7    A    
C93   H91   S    
C62   H25   S    
C57   C58   S    
C54   C55   S    
C69   C70   S    
C7    C23   S    
O29   C93   S    
C23   O5    A    
C97   H100  S    
C8    C24   S    
C81   H66   S    
O4    Zn1   S    
C69   H40   S    
C72   O20   D    
C97   C98   S    
N3    Zn2   S    
C4    C14   A    
O25   C85   S    
C102  C103  S    
C65   H32   S    
C66   H34   S    
C87   H80   S    
C102  H113  S    
C31   O15   S    
C10   O26   S    
C82   H68   S    
C46   C48   A    
C15   C21   S    
C60   C61   S    
C57   H12   S    
C34   H1    S    
C76   H55   S    
C86   H77   S    
C40   O10   S    
C67   H37   S    
C99   H105  S    
C72   H46   S    
C82   H69   S    
C75   H51   S    
C100  H108  S    
C68   H39   S    
C5    O23   S    
C18   O30   S    
C30   O18   S    
C83   C84   S    
C6    O24   S    
C2    O4    A    
O6    Zn2   S    
O1    Zn1   S    
C67   H35   S    
C64   H29   S    
C81   H65   S    
C51   C71   S    
