data_mof_unit_65387.cif
_audit_creation_date              2012-12-10T20:53:19-0500
_audit_creation_method            fapswitch 2.2
_symmetry_space_group_name_H-M    P1
_symmetry_Int_Tables_number       1
_space_group_crystal_system       triclinic
_cell_length_a                    15.858182
_cell_length_b                    15.076625
_cell_length_c                    10.748097
_cell_angle_alpha                 90.703679
_cell_angle_beta                  90.006856
_cell_angle_gamma                 90.011861
_cell_volume                      2569.54566921

loop_
_atom_site_label
_atom_site_type_symbol
_atom_type_description
_atom_site_fract_x
_atom_site_fract_y
_atom_site_fract_z
_atom_type_partial_charge
C1    C     C_R   0.338905 0.499976 0.499998 0.914385
C2    C     C_1   0.500017 0.192841 0.500021 0.091885
C3    C     C_R   0.498622 0.499176 0.262215 0.957440
C4    C     C_R   0.507140 0.500398 0.737642 0.933892
C5    C     C_2   0.529068 0.428845 0.934881 0.277595
C6    C     C_2   0.541968 0.439090 0.067891 0.276602
C7    C     C_2   0.534773 0.501727 0.864767 0.177530
C8    C     C_2   0.491145 0.494854 0.131095 0.185196
C9    C     C_R   0.955997 0.502754 0.367167 0.454118
C10   C     C_R   0.044026 0.502784 0.367210 0.452562
C11   C     C_R   0.912891 0.499808 0.482304 -0.065986
C12   C     C_R   0.661096 0.499989 0.499723 0.908225
C13   C     C_R   0.087100 0.499824 0.482386 -0.066770
C14   C     C_R   0.956483 0.496837 0.594691 -0.196019
C15   C     C_R   0.043476 0.496838 0.594732 -0.193573
C16   C     C_1   0.824025 0.499888 0.488709 -0.023321
C17   C     C_1   0.175968 0.499870 0.488871 -0.022168
C18   C     C_1   0.250659 0.499916 0.494723 -0.129109
C19   C     C_1   0.749336 0.499949 0.494499 -0.124572
C20   C     C_R   0.498470 0.952155 0.387759 -0.138331
C21   C     C_R   0.501604 0.954121 0.612310 -0.140373
C22   C     C_R   0.500031 0.905043 0.500033 0.059452
C23   C     C_R   0.501605 0.047861 0.612310 -0.142247
C24   C     C_R   0.498474 0.045891 0.387759 -0.147059
C25   C     C_R   0.500035 0.094967 0.500033 0.062445
C26   C     C_1   0.500014 0.807163 0.500019 0.102787
Cl1   Cl    Cl    0.582414 0.601426 0.920523 -0.557747
Cl2   Cl    Cl    0.403608 0.550810 0.065805 -0.578020
H1    H     H_    0.923044 0.494575 0.682606 0.192687
H2    H     H_    0.853596 0.505107 0.264819 0.343357
H3    H     H_    0.076889 0.494566 0.682678 0.194210
H4    H     H_    0.497248 0.080100 0.299748 0.145808
H5    H     H_    0.502833 0.083615 0.700320 0.151536
H6    H     H_    0.497240 0.916408 0.299748 0.155047
H7    H     H_    0.502833 0.919913 0.700320 0.156579
H8    H     H_    0.498983 0.304965 0.954925 0.345635
H9    H     H_    0.635698 0.356502 0.064240 0.351065
H10   H     H_    0.146454 0.505415 0.264973 0.344773
N1    N     N_1   0.500000 0.270550 0.500000 -0.069612
N2    N     N_1   0.500000 0.729450 0.500000 -0.070265
O1    O     O_R   0.378020 0.573650 0.500040 -0.603594
O2    O     O_3   0.604769 0.392076 0.127661 -0.761956
O3    O     O_3   0.084617 0.505776 0.253316 -0.685840
O4    O     O_3   0.915436 0.505692 0.253231 -0.688402
O5    O     O_R   0.621980 0.573650 0.499960 -0.608491
O6    O     O_R   0.378020 0.426320 0.500100 -0.613282
O7    O     O_R   0.621980 0.426320 0.499900 -0.606236
O8    O     O_R   0.500000 0.573650 0.319080 -0.594633
O9    O     O_R   0.500000 0.573650 0.680920 -0.584066
O10   O     O_R   0.500000 0.426320 0.319140 -0.598762
O11   O     O_R   0.500000 0.426320 0.680860 -0.572841
O12   O     O_3   0.502358 0.348165 0.886212 -0.746981
Zn1   Zn    Zn3+2 0.500000 0.598370 0.500000 1.052474
Zn2   Zn    Zn3+2 0.500000 0.401630 0.500000 1.042971

loop_
_geom_bond_atom_site_label_1
_geom_bond_atom_site_label_2
_ccdc_geom_bond_type
C24   H4    S    
C5    O12   S    
C15   H3    S    
C21   H7    S    
C11   C16   S    
H8    O12   S    
C13   C17   S    
C4    O9    A    
O11   Zn2   S    
H2    O4    S    
O6    Zn2   S    
C21   C23   A    
C17   C18   T    
C20   H6    S    
H10   O3    S    
C21   C22   A    
C9    C11   A    
O1    Zn1   S    
C1    C18   S    
O10   Zn2   S    
C12   O7    A    
O9    Zn1   S    
C5    C6    S    
C12   C19   S    
C1    O1    A    
C3    O10   A    
C20   C22   A    
C9    C10   A    
C2    C25   S    
O7    Zn2   S    
N2    Zn1   S    
C13   C15   A    
C16   C19   T    
O8    Zn1   S    
C8    Cl2   S    
C11   C14   A    
C1    O6    A    
N1    Zn2   S    
C4    O11   A    
O5    Zn1   S    
C3    O8    A    
C26   N2    T    
C23   C25   A    
C7    Cl1   S    
C24   C25   A    
C3    C8    S    
C22   C26   S    
H9    O2    S    
C5    C7    D    
C14   C15   A    
C9    O4    S    
C6    C8    D    
C14   H1    S    
C4    C7    S    
C10   O3    S    
C6    O2    S    
C2    N1    T    
C20   C24   A    
C12   O5    A    
C23   H5    S    
C10   C13   A    
