data_mof_unit_39903.cif
_audit_creation_date              2013-03-05T15:51:49-0500
_audit_creation_method            fapswitch 2.2
_symmetry_space_group_name_H-M    P1
_symmetry_Int_Tables_number       1
_space_group_crystal_system       triclinic
_cell_length_a                    15.864198
_cell_length_b                    10.818179
_cell_length_c                    9.633365
_cell_angle_alpha                 90.765624
_cell_angle_beta                  89.898543
_cell_angle_gamma                 93.456773
_cell_volume                      1650.13864508

loop_
_atom_site_label
_atom_site_type_symbol
_atom_site_description
_atom_site_fract_x
_atom_site_fract_y
_atom_site_fract_z
_atom_type_partial_charge
O1    O     O_R   0.499990 0.319640 0.618810 -0.527431
O2    O     O_R   0.500000 0.319660 0.381240 -0.574916
C1    C     C_R   0.507561 0.263566 0.499625 0.843654
O3    O     O_R   0.379070 0.499980 0.618770 -0.539707
O4    O     O_R   0.379080 0.500000 0.381190 -0.586493
C2    C     C_R   0.340054 0.499187 0.500033 0.810082
Cu1   Cu    Cu3+1 0.499990 0.499990 0.640660 1.076429
Cu2   Cu    Cu3+1 0.500010 0.500010 0.359340 0.995427
O5    O     O_R   0.500000 0.680340 0.618760 -0.554723
O6    O     O_R   0.500010 0.680360 0.381190 -0.616899
O7    O     O_R   0.620920 0.500000 0.618810 -0.513082
O8    O     O_R   0.620930 0.500020 0.381230 -0.593915
C3    C     C_R   0.494454 0.737398 0.501598 0.817030
C4    C     C_R   0.659823 0.499268 0.499539 0.859078
C5    C     C_3   0.967583 0.408899 0.579900 0.310579
C6    C     C_3   0.023854 0.384879 0.452556 0.276173
C7    C     C_1   0.250367 0.498275 0.499809 -0.074512
C8    C     C_1   0.749226 0.497275 0.497277 -0.019074
C9    C     C_3   0.027425 0.520179 0.623175 0.385701
C10   C     C_3   0.083149 0.496431 0.496016 -0.127811
C11   C     C_3   0.975519 0.608205 0.536648 -0.208209
C12   C     C_3   0.916164 0.495808 0.492920 -0.143187
C13   C     C_3   0.032405 0.584438 0.407934 -0.280415
C14   C     C_3   0.972445 0.472429 0.367246 0.257376
C15   C     C_1   0.174819 0.497398 0.498459 0.159567
C16   C     C_1   0.824611 0.496058 0.494272 0.213865
H1    H     H_    0.059414 0.655603 0.335826 0.227723
H2    H     H_    0.955083 0.699745 0.572198 0.243528
H3    H     H_    0.491172 0.108674 0.279821 0.204465
C17   C     C_R   0.569900 0.121431 0.745437 0.366205
C18   C     C_R   0.555777 0.067125 0.875599 0.416249
C19   C     C_R   0.506107 0.956986 0.885239 -0.218902
H4    H     H_    0.491935 0.917062 0.985734 0.169801
C20   C     C_R   0.479194 0.893444 0.764948 -0.144183
H5    H     H_    0.441339 0.808049 0.777871 0.185866
C21   C     C_R   0.499173 0.942112 0.632491 0.081975
C22   C     C_R   0.529949 0.066570 0.625675 -0.030961
C23   C     C_R   0.517601 0.130063 0.500037 -0.067365
C24   C     C_R   0.499470 0.062724 0.377563 -0.126003
H6    H     H_    0.482282 0.885249 0.281805 0.170371
C25   C     C_R   0.490883 0.934965 0.379621 -0.180408
C26   C     C_R   0.490736 0.872639 0.506171 -0.071147
H7    H     H_    0.389395 0.385528 0.128761 0.173057
C27   C     C_R   0.626678 0.636033 0.149922 -0.188241
H8    H     H_    0.619312 0.669390 0.253466 0.221129
C28   C     C_R   0.705277 0.660111 0.092297 -0.245418
H9    H     H_    0.756316 0.698310 0.157289 0.219132
C29   C     C_R   0.716697 0.640711 0.951491 0.350479
C30   C     C_R   0.644009 0.618851 0.868327 0.333482
C31   C     C_R   0.567109 0.562705 0.927798 0.029762
C32   C     C_R   0.563448 0.566052 0.076860 0.160538
N1    N     N_R   0.500800 0.501210 0.147910 -0.203341
C33   C     C_R   0.438973 0.437656 0.073695 -0.059408
C34   C     C_R   0.438087 0.438128 0.926345 0.415979
N2    N     N_R   0.500830 0.501290 0.852040 -0.235607
Cl1   Cl    Cl    0.055995 0.237590 0.395520 -0.408129
N3    N     N_R   0.799074 0.666194 0.891211 0.198032
O9    O     O_R   0.860711 0.717442 0.964964 -0.255865
O10   O     O_R   0.815387 0.626428 0.766774 -0.316082
Cl2   Cl    Cl    0.646977 0.731886 0.738769 -0.564215
N4    N     N_R   0.371134 0.368650 0.856737 0.137046
O11   O     O_R   0.294301 0.402784 0.870764 -0.301732
O12   O     O_R   0.382774 0.256177 0.814920 -0.345601
Cl3   Cl    Cl    0.923946 0.293790 0.694387 -0.321351
N5    N     N_R   0.943660 0.446343 0.225655 0.193831
O13   O     O_R   0.998513 0.429578 0.127786 -0.195210
O14   O     O_R   0.863632 0.441719 0.195682 -0.295178
Cl4   Cl    Cl    0.064798 0.552611 0.794859 -0.370195
Cl5   Cl    Cl    0.651451 0.239376 0.730650 -0.476490
Cl6   Cl    Cl    0.599357 0.135476 0.028113 -0.522205

loop_
_geom_bond_atom_site_label_1
_geom_bond_atom_site_label_2
_geom_bond_distance
_ccdc_geom_bond_type
O4    Cu2   1.929593 S    
Cu1   O7    1.929592 S    
C13   C14   1.541548 S    
C6    Cl1   1.781682 S    
C22   C23   1.419271 A    
C34   N4    1.426718 S    
C13   H1    1.110089 S    
C29   N3    1.441945 S    
C25   C26   1.400922 A    
Cu2   N1    2.037009 S    
C3    C26   1.467869 S    
C18   C19   1.392368 A    
C8    C16   1.197085 T    
C10   C13   1.546264 S    
Cu1   N2    2.036224 S    
Cu2   O8    1.930219 S    
C7    C15   1.198063 T    
C19   H4    1.083057 S    
H3    C24   1.082515 S    
C9    C10   1.537258 S    
N4    O11   1.301025 A    
C31   C32   1.437100 A    
C5    Cl3   1.782226 S    
C5    C12   1.538645 S    
C9    Cl4   1.781249 S    
C6    C14   1.534239 S    
C6    C10   1.538663 S    
C33   C34   1.419654 A    
N1    C33   1.361588 A    
C5    C9    1.540932 S    
N3    O9    1.301860 A    
C23   C24   1.399434 A    
C30   Cl2   1.757522 S    
C14   N5    1.457750 S    
O3    Cu1   1.930220 S    
C29   C30   1.411672 A    
O4    C2    1.300452 A    
C27   C32   1.404065 A    
Cu2   O6    1.959582 S    
H6    C25   1.083461 S    
C9    C11   1.548517 S    
C11   H2    1.110102 S    
O8    C4    1.297328 A    
C20   H5    1.079576 S    
C20   C21   1.415013 A    
C11   C13   1.559968 S    
C17   C18   1.403715 A    
O7    C4    1.303442 A    
C12   C14   1.530386 S    
N3    O10   1.299072 A    
O3    C2    1.301209 A    
N5    O14   1.300368 A    
C10   C15   1.453909 S    
C30   C31   1.450143 A    
C5    C6    1.544325 S    
C28   C29   1.383068 A    
Cu1   Cu2   2.710061 S    
C17   Cl5   1.768408 S    
C32   N1    1.369175 A    
C27   H8    1.064848 S    
C1    C23   1.462591 S    
C24   C25   1.381021 A    
N5    O13   1.300213 A    
C12   C16   1.452615 S    
C34   N2    1.377888 A    
Cu1   O5    1.965223 S    
C2    C7    1.422263 S    
O5    C3    1.299294 A    
C28   H9    1.083003 S    
C21   C22   1.406583 A    
O1    Cu1   1.959582 S    
O2    C1    1.308056 A    
O1    C1    1.300135 A    
C11   C12   1.546680 S    
C21   C26   1.423932 A    
C4    C8    1.419886 S    
H7    C33   1.082143 S    
C18   Cl6   1.759624 S    
O2    Cu2   1.965223 S    
C31   N2    1.408953 A    
C17   C22   1.422637 A    
C27   C28   1.375878 A    
N4    O12   1.300240 A    
O6    C3    1.311881 A    
C19   C20   1.393822 A    
