data_mof_unit_36696.cif
_audit_creation_date              2012-12-10T18:03:36-0500
_audit_creation_method            fapswitch 2.2
_symmetry_space_group_name_H-M    P1
_symmetry_Int_Tables_number       1
_space_group_crystal_system       triclinic
_cell_length_a                    10.698234
_cell_length_b                    9.64111
_cell_length_c                    19.42033
_cell_angle_alpha                 90.970111
_cell_angle_beta                  92.708373
_cell_angle_gamma                 89.568099
_cell_volume                      2000.49841254

loop_
_atom_site_label
_atom_site_type_symbol
_atom_type_description
_atom_site_fract_x
_atom_site_fract_y
_atom_site_fract_z
_atom_type_partial_charge
C1    C     C_R   0.871062 0.498229 0.498086 0.006447
C2    C     C_R   0.737242 0.499483 0.499033 0.796965
C3    C     C_R   0.506188 0.499034 0.368002 0.805897
C4    C     C_R   0.501186 0.501541 0.631969 0.873015
C5    C     C_R   0.059117 0.488413 0.435123 -0.215059
C6    C     C_R   0.941081 0.505285 0.560382 -0.220111
C7    C     C_R   0.929299 0.488297 0.435285 -0.192639
C8    C     C_R   0.070219 0.505288 0.560253 -0.201580
C9    C     C_R   0.628331 0.492200 0.742338 0.194246
C10   C     C_R   0.610885 0.592879 0.265939 0.189852
C11   C     C_R   0.459269 0.407843 0.247145 0.185341
C12   C     C_R   0.128724 0.499334 0.497736 0.020758
C13   C     C_R   0.404531 0.539674 0.745419 0.189418
C14   C     C_R   0.639167 0.508672 0.813983 -0.220630
C15   C     C_R   0.627358 0.593876 0.194730 -0.244819
C16   C     C_R   0.460394 0.429282 0.176285 -0.231321
C17   C     C_R   0.415786 0.545728 0.817580 -0.225320
C18   C     C_R   0.533024 0.531198 0.851699 0.058166
C19   C     C_R   0.547781 0.517844 0.149067 0.069104
C20   C     C_R   0.401758 0.073059 0.469465 0.256088
C21   C     C_R   0.586955 0.925372 0.539403 0.247826
C22   C     C_R   0.595535 0.072987 0.532591 0.231245
C23   C     C_R   0.539201 0.655509 0.965760 0.218757
C24   C     C_R   0.408454 0.924533 0.463820 0.227842
C25   C     C_R   0.510579 0.507587 0.707543 -0.095288
C26   C     C_R   0.525368 0.499141 0.293003 -0.101703
C27   C     C_3   0.241093 0.177068 0.390348 -0.633824
C28   C     C_3   0.781509 0.827827 0.594188 -0.644159
C29   C     C_3   0.810085 0.135543 0.517037 -0.641466
C30   C     C_3   0.193081 0.843572 0.436483 -0.651608
C31   C     C_3   0.785729 0.323727 0.715706 -0.706071
C32   C     C_3   0.650458 0.823296 0.311295 -0.658716
C33   C     C_3   0.486727 0.168978 0.275379 -0.678386
C34   C     C_R   0.565844 0.399008 0.033557 0.205015
C35   C     C_3   0.261699 0.711977 0.699974 -0.711102
C36   C     C_3   0.402930 0.848344 0.932460 -0.685097
C37   C     C_3   0.478271 0.169916 0.054841 -0.665467
C38   C     C_3   0.661221 0.862955 0.074843 -0.693614
C39   C     C_3   0.691314 0.212748 0.919771 -0.673329
C40   C     C_R   0.549712 0.653359 0.038432 0.213466
C41   C     C_R   0.561613 0.402531 0.961102 0.218595
C42   C     C_R   0.557630 0.524266 0.072891 -0.137988
C43   C     C_R   0.544353 0.530142 0.927441 -0.145563
C44   C     C_R   0.262615 0.500077 0.498397 0.781628
Cu1   Cu    Cu3+1 0.500000 0.640660 0.500000 0.985141
Cu2   Cu    Cu3+1 0.500000 0.359340 0.500000 0.981376
H1    H     H_    0.105187 0.481374 0.386670 0.113931
H2    H     H_    0.258206 0.093415 0.352224 0.203654
H3    H     H_    0.287387 0.273832 0.376765 0.277604
H4    H     H_    0.138952 0.199060 0.388985 0.192889
H5    H     H_    0.623768 0.896424 0.643629 0.217006
H6    H     H_    0.810880 0.812103 0.540604 0.243004
H7    H     H_    0.801773 0.731589 0.623075 0.217875
H8    H     H_    0.837403 0.911732 0.620118 0.187007
H9    H     H_    0.726599 0.117202 0.610732 0.228576
H10   H     H_    0.849671 0.029871 0.513974 0.189810
H11   H     H_    0.884577 0.205474 0.538538 0.228109
H12   H     H_    0.896029 0.510172 0.608768 0.143205
H13   H     H_    0.783379 0.167062 0.463534 0.234046
H14   H     H_    0.334375 0.867583 0.367087 0.217158
H15   H     H_    0.184121 0.846769 0.493298 0.228387
H16   H     H_    0.152533 0.745688 0.415406 0.228401
H17   H     H_    0.137116 0.928262 0.412261 0.200891
H18   H     H_    0.805127 0.536199 0.714445 0.232848
H19   H     H_    0.831430 0.315164 0.768062 0.208992
H20   H     H_    0.856387 0.300008 0.677082 0.227417
H21   H     H_    0.709284 0.246443 0.709922 0.236402
H22   H     H_    0.781591 0.666756 0.302317 0.234712
H23   H     H_    0.874549 0.480835 0.387012 0.118756
H24   H     H_    0.707525 0.880229 0.351641 0.217562
H25   H     H_    0.550424 0.834392 0.323306 0.236284
H26   H     H_    0.665243 0.870431 0.260489 0.204232
H27   H     H_    0.319696 0.261819 0.243143 0.237320
H28   H     H_    0.522829 0.142674 0.224051 0.210075
H29   H     H_    0.437797 0.076892 0.293890 0.204583
H30   H     H_    0.567051 0.191948 0.312012 0.247799
H31   H     H_    0.213528 0.519329 0.734633 0.242551
H32   H     H_    0.170457 0.724773 0.671058 0.217421
H33   H     H_    0.335540 0.757857 0.669325 0.255919
H34   H     H_    0.124330 0.508647 0.608569 0.154881
H35   H     H_    0.257491 0.768953 0.750081 0.220415
H36   H     H_    0.564592 0.789457 0.884026 0.253468
H37   H     H_    0.405618 0.952853 0.909416 0.222595
H38   H     H_    0.372039 0.860582 0.985989 0.248209
H39   H     H_    0.333916 0.784329 0.901962 0.209965
H40   H     H_    0.625854 0.265237 0.114083 0.250665
H41   H     H_    0.450362 0.128020 0.104672 0.202788
H42   H     H_    0.509400 0.082625 0.021945 0.279912
H43   H     H_    0.394565 0.219025 0.028986 0.218930
H44   H     H_    0.507011 0.781537 0.122912 0.253980
H45   H     H_    0.730204 0.500143 0.840483 0.143170
H46   H     H_    0.655258 0.953120 0.110914 0.218885
H47   H     H_    0.674467 0.902710 0.022464 0.261005
H48   H     H_    0.744438 0.799601 0.090475 0.206096
H49   H     H_    0.518510 0.272306 0.875690 0.255192
H50   H     H_    0.754382 0.280118 0.891648 0.206496
H51   H     H_    0.684064 0.110790 0.892463 0.216948
H52   H     H_    0.732778 0.195070 0.972356 0.249151
H53   H     H_    0.700438 0.656783 0.175423 0.157357
H54   H     H_    0.398693 0.368671 0.142152 0.160961
H55   H     H_    0.333311 0.562729 0.846938 0.139410
H56   H     H_    0.214056 0.100359 0.488960 0.234297
N1    N     N_R   0.500000 0.852070 0.500000 -0.207563
N2    N     N_2   0.286571 0.566130 0.711333 -0.456087
N3    N     N_2   0.526077 0.785307 0.931609 -0.408824
N4    N     N_2   0.580097 0.267643 0.066193 -0.421615
N5    N     N_2   0.547557 0.782110 0.075871 -0.415627
N6    N     N_2   0.568081 0.275148 0.922502 -0.400980
N7    N     N_R   0.500000 0.147930 0.500000 -0.209744
N8    N     N_2   0.282924 0.138097 0.459143 -0.371094
N9    N     N_2   0.649122 0.858180 0.596335 -0.378345
N10   N     N_2   0.703176 0.142550 0.560559 -0.356922
N11   N     N_2   0.322981 0.850322 0.418616 -0.367448
N12   N     N_2   0.736732 0.462443 0.705314 -0.439757
N13   N     N_2   0.687523 0.678621 0.310522 -0.419430
N14   N     N_2   0.401576 0.286647 0.270665 -0.438468
O1    O     O_R   0.319640 0.618740 0.500000 -0.552033
O2    O     O_R   0.680360 0.381260 0.500000 -0.546418
O3    O     O_R   0.680360 0.618740 0.500000 -0.555075
O4    O     O_R   0.319640 0.381260 0.500000 -0.548084
O5    O     O_R   0.500020 0.618830 0.400190 -0.543755
O6    O     O_R   0.499980 0.381170 0.599810 -0.563258
O7    O     O_R   0.499980 0.618830 0.599810 -0.560811
O8    O     O_R   0.500020 0.381170 0.400190 -0.569198

loop_
_geom_bond_atom_site_label_1
_geom_bond_atom_site_label_2
_ccdc_geom_bond_type
C27   H2    S    
C31   H20   S    
C41   N6    S    
H9    N10   S    
C6    H12   S    
C37   H42   S    
C34   C42   A    
Cu2   O8    S    
C4    C25   S    
C2    O2    A    
C9    C25   A    
C32   H26   S    
Cu1   Cu2   S    
Cu1   O7    S    
C15   C19   A    
C5    H1    S    
Cu2   N7    S    
H27   N14   S    
C9    N12   S    
H44   N5    S    
C10   C15   A    
C39   H51   S    
C44   O4    A    
C36   H37   S    
C23   C40   A    
C23   N3    S    
C38   H46   S    
C23   C43   A    
Cu2   O2    S    
C1    C2    S    
H36   N3    S    
C38   N5    S    
C14   C18   A    
C17   H55   S    
Cu1   N1    S    
C33   H29   S    
C20   C24   A    
C27   N8    S    
C31   N12   S    
C27   H4    S    
Cu1   O3    S    
C40   C42   A    
C24   N11   S    
C21   C22   A    
C41   C43   A    
C13   C25   A    
H14   N11   S    
H40   N4    S    
C34   C41   A    
C21   N9    S    
C32   H25   S    
C28   N9    S    
C35   H35   S    
C39   N6    S    
C14   H45   S    
H18   N12   S    
Cu2   O4    S    
C1    C6    A    
C34   N4    S    
C29   H13   S    
C5    C12   A    
C35   N2    S    
C5    C7    A    
C28   H8    S    
C16   H54   S    
C39   H52   S    
C32   H24   S    
C11   C26   A    
Cu1   O5    S    
C4    O7    A    
C29   N10   S    
C31   H21   S    
C9    C14   A    
C11   C16   A    
C33   H30   S    
C8    C12   A    
C22   N7    A    
C38   H48   S    
C17   C18   A    
C4    O6    A    
C13   N2    S    
C11   N14   S    
C40   N5    S    
C20   N8    S    
C29   H11   S    
C22   N10   S    
C30   H16   S    
H56   N8    S    
C3    O8    A    
Cu1   O1    S    
C31   H19   S    
C33   N14   S    
H5    N9    S    
C36   N3    S    
C1    C7    A    
C37   H41   S    
C3    C26   S    
C15   H53   S    
C7    H23   S    
C6    C8    A    
C2    O3    A    
C19   C42   S    
C29   H10   S    
C37   H43   S    
C36   H39   S    
C35   H32   S    
C13   C17   A    
C24   N1    A    
C37   N4    S    
C12   C44   S    
C18   C43   S    
C28   H6    S    
C10   C26   A    
C44   O1    A    
C36   H38   S    
C16   C19   A    
C38   H47   S    
C35   H33   S    
C32   N13   S    
C39   H50   S    
H49   N6    S    
H22   N13   S    
C20   N7    A    
C21   N1    A    
C27   H3    S    
C33   H28   S    
C30   H15   S    
C8    H34   S    
Cu2   O6    S    
H31   N2    S    
C30   H17   S    
C10   N13   S    
C3    O5    A    
C28   H7    S    
C30   N11   S    
