data_mof_unit_37780.cif
_audit_creation_date              2013-03-05T15:47:15-0500
_audit_creation_method            fapswitch 2.2
_symmetry_space_group_name_H-M    P1
_symmetry_Int_Tables_number       1
_space_group_crystal_system       triclinic
_cell_length_a                    27.715408
_cell_length_b                    10.987915
_cell_length_c                    9.845398
_cell_angle_alpha                 110.796375
_cell_angle_beta                  97.307747
_cell_angle_gamma                 91.875852
_cell_volume                      2770.32663138

loop_
_atom_site_label
_atom_site_type_symbol
_atom_site_description
_atom_site_fract_x
_atom_site_fract_y
_atom_site_fract_z
_atom_type_partial_charge
O1    O     O_R   0.504520 0.332330 0.577400 -0.531175
O2    O     O_R   0.495480 0.667670 0.422600 -0.516101
O3    O     O_R   0.490210 0.295500 0.332650 -0.536787
O4    O     O_R   0.509790 0.704500 0.667350 -0.534689
C1    C     C_R   0.494854 0.253601 0.441339 0.830120
C2    C     C_R   0.502354 0.746240 0.558694 0.834111
O5    O     O_R   0.437420 0.518430 0.622370 -0.546267
O6    O     O_R   0.562580 0.481570 0.377630 -0.546122
O7    O     O_R   0.423110 0.481600 0.377610 -0.544842
O8    O     O_R   0.576890 0.518400 0.622390 -0.550441
C3    C     C_R   0.407625 0.498557 0.501628 0.883756
C4    C     C_R   0.592385 0.502410 0.498566 0.887544
Cu1   Cu    Cu3+1 0.508480 0.521810 0.644910 1.141137
Cu2   Cu    Cu3+1 0.491520 0.478190 0.355090 1.141511
C5    C     C_R   0.182113 0.473754 0.607840 0.709260
C6    C     C_R   0.820628 0.600221 0.442685 0.745474
O9    O     O_2   0.210376 0.417722 0.687203 -0.400371
O10   O     O_2   0.793441 0.679792 0.393272 -0.394162
N1    N     N_R   0.203025 0.525452 0.519832 -0.437719
N2    N     N_R   0.797699 0.508986 0.482621 -0.436966
C7    C     C_R   0.176165 0.579678 0.433279 0.686701
C8    C     C_R   0.822959 0.423725 0.530494 0.654185
C9    C     C_R   0.288672 0.605383 0.631983 0.307140
C10   C     C_R   0.713131 0.418681 0.366257 0.304259
C11   C     C_R   0.338503 0.592837 0.626506 -0.241196
C12   C     C_R   0.663041 0.420135 0.373839 -0.223138
C13   C     C_R   0.320854 0.413868 0.389831 0.214032
C14   C     C_R   0.677973 0.598213 0.611674 0.204483
C15   C     C_R   0.270304 0.423252 0.395663 0.361384
C16   C     C_R   0.728642 0.598738 0.605035 0.371261
C17   C     C_R   0.254544 0.519864 0.515316 0.142841
C18   C     C_R   0.745917 0.508530 0.483537 0.142702
C19   C     C_R   0.103041 0.531079 0.523285 -0.159029
C20   C     C_R   0.898687 0.522456 0.500627 -0.159273
C21   C     C_R   0.131625 0.478456 0.615067 -0.098669
C22   C     C_R   0.871980 0.611212 0.453377 -0.107212
C23   C     C_R   0.109675 0.437016 0.715175 0.399512
C24   C     C_R   0.897108 0.712171 0.425690 0.395262
C25   C     C_R   0.125083 0.578340 0.427387 -0.128834
C26   C     C_R   0.873980 0.424304 0.534534 -0.116543
C27   C     C_R   0.354857 0.499678 0.506461 -0.210816
C28   C     C_R   0.645262 0.507956 0.494940 -0.217291
C29   C     C_R   0.977310 0.453826 0.578915 0.032588
C30   C     C_R   0.024528 0.601566 0.447071 0.029176
C31   C     C_R   0.974686 0.618099 0.463553 -0.053881
C32   C     C_R   0.029084 0.474281 0.607513 -0.054098
C33   C     C_R   0.950238 0.532094 0.515043 0.050034
C34   C     C_R   0.052283 0.536379 0.526898 0.049511
C35   C     C_R   0.952118 0.350611 0.600471 -0.074489
C36   C     C_R   0.046237 0.638147 0.344297 -0.057719
C37   C     C_R   0.901411 0.332474 0.574715 0.440267
C38   C     C_R   0.095237 0.623874 0.330484 0.446157
O11   O     O_2   0.798660 0.342253 0.578469 -0.452701
O12   O     O_2   0.199358 0.637628 0.356923 -0.446661
C39   C     C_R   0.058298 0.433391 0.710523 0.207874
C40   C     C_R   0.948392 0.714802 0.428641 0.203578
H1    H     H_    0.637548 0.351169 0.285171 0.241260
H2    H     H_    0.364897 0.660201 0.713660 0.236619
H3    H     H_    0.971541 0.276225 0.626577 0.218586
H4    H     H_    0.024539 0.668807 0.264908 0.221004
C41   C     C_2   0.490710 0.112533 0.411136 0.129280
C42   C     C_2   0.502482 0.886798 0.587593 0.116266
C43   C     C_2   0.476170 0.068192 0.512908 0.265605
C44   C     C_2   0.475097 0.927781 0.489999 0.242693
N3    N     N_2   0.478780 0.445430 0.137360 -0.302574
N4    N     N_2   0.521220 0.554570 0.862640 -0.295174
C45   C     C_2   0.506939 0.503241 0.078068 0.343430
C46   C     C_2   0.490941 0.512048 0.930179 0.348828
H5    H     H_    0.557190 0.575511 0.910741 0.258406
H6    H     H_    0.444701 0.406297 0.080414 0.253009
N5    N     N_R   0.337504 0.317206 0.267253 0.131204
O13   O     O_R   0.366238 0.232135 0.288104 -0.320160
O14   O     O_R   0.325486 0.317289 0.135130 -0.259015
N6    N     N_R   0.659855 0.689832 0.734977 0.133084
O15   O     O_R   0.629954 0.773143 0.715807 -0.271925
O16   O     O_R   0.672109 0.687564 0.866038 -0.253310
N7    N     N_R   0.533467 0.977124 0.715316 0.123766
O17   O     O_R   0.539228 0.955778 0.837944 -0.216735
O18   O     O_R   0.560569 0.071446 0.704790 -0.266742
N8    N     N_R   0.504171 0.024867 0.275979 0.109431
O19   O     O_R   0.490889 0.042388 0.153114 -0.250921
O20   O     O_R   0.534930 0.938547 0.278363 -0.243515
N9    N     N_R   0.440125 0.487294 0.872494 0.127842
O21   O     O_R   0.411372 0.579399 0.920360 -0.305640
O22   O     O_R   0.421220 0.367974 0.803176 -0.288961
N10   N     N_R   0.554585 0.558797 0.153362 0.125895
O23   O     O_R   0.591977 0.491853 0.118885 -0.321604
O24   O     O_R   0.561765 0.683511 0.228152 -0.255935
O25   O     O_3   0.234946 0.338391 0.289206 -0.657082
H7    H     H_    0.250093 0.263090 0.225212 0.390313
O26   O     O_3   0.762711 0.686244 0.713690 -0.647849
H8    H     H_    0.746181 0.756681 0.780156 0.392032
O27   O     O_3   0.139332 0.404307 0.818959 -0.601811
H9    H     H_    0.122841 0.416513 0.905612 0.367582
O28   O     O_3   0.870978 0.809136 0.400375 -0.603300
H10   H     H_    0.892390 0.890920 0.430872 0.380348
N11   N     N_R   0.729882 0.325616 0.239932 0.172418
O29   O     O_R   0.701757 0.222237 0.155689 -0.239229
O30   O     O_R   0.771736 0.346831 0.202114 -0.300588
N12   N     N_R   0.273432 0.705447 0.755547 0.170694
O31   O     O_R   0.302478 0.753154 0.880262 -0.245224
O32   O     O_R   0.232353 0.757002 0.741815 -0.293372
O33   O     O_3   0.880386 0.222040 0.586554 -0.631672
H11   H     H_    0.854399 0.183115 0.500897 0.373262
O34   O     O_3   0.111914 0.651902 0.218049 -0.627299
H12   H     H_    0.131853 0.580492 0.168986 0.361556
N13   N     N_R   0.036797 0.400572 0.819787 0.092787
O35   O     O_R   0.043556 0.289377 0.835596 -0.293231
O36   O     O_R   0.010191 0.481813 0.903369 -0.308317
N14   N     N_R   0.973790 0.822955 0.410580 0.095372
O37   O     O_R   0.961987 0.850833 0.293344 -0.296309
O38   O     O_R   0.008733 0.894096 0.511780 -0.281804
O39   O     O_3   0.444338 0.839122 0.371611 -0.666458
H13   H     H_    0.425130 0.887933 0.319121 0.368811
O40   O     O_3   0.461502 0.153841 0.638785 -0.644079
H14   H     H_    0.449180 0.102981 0.694582 0.359784

loop_
_geom_bond_atom_site_label_1
_geom_bond_atom_site_label_2
_geom_bond_distance
_ccdc_geom_bond_type
N4    C46   1.304453 D    
O27   H9    0.988276 S    
C13   C15   1.415112 A    
C42   N7    1.444651 S    
O28   H10   0.988948 S    
N1    C17   1.436857 S    
C15   O25   1.383177 S    
N11   O29   1.301684 A    
N7    O17   1.301009 A    
C5    N1    1.365677 A    
C29   C32   1.421285 A    
C19   C25   1.417187 A    
N6    O16   1.301101 A    
O1    C1    1.298167 A    
N1    C7    1.365110 A    
C10   C12   1.400008 A    
C7    O12   1.349014 S    
N10   O24   1.299226 A    
N4    H5    1.028870 S    
C41   N8    1.441328 S    
C37   O33   1.377317 S    
O40   H14   0.991932 S    
C40   N14   1.437542 S    
O4    Cu1   1.938550 S    
C41   C43   1.356567 D    
N14   O37   1.301792 A    
C4    C28   1.470267 S    
C31   C40   1.422878 A    
C35   C37   1.390746 A    
C24   O28   1.383806 S    
C36   C38   1.390386 A    
N13   O35   1.301810 A    
C16   O26   1.383355 S    
C42   C44   1.358739 D    
O6    C4    1.302416 A    
C43   O40   1.382699 S    
C31   C33   1.412376 A    
C25   C38   1.417778 A    
C14   N6    1.435152 S    
Cu1   Cu2   2.695446 S    
N13   O36   1.301397 A    
O2    C2    1.296079 A    
C5    C21   1.411825 A    
N11   O30   1.300914 A    
C8    O11   1.348996 S    
Cu1   N4    2.025001 S    
N7    O18   1.301617 A    
C32   C34   1.412292 A    
N6    O15   1.301127 A    
C1    C41   1.468529 S    
C10   N11   1.443243 S    
N8    O20   1.300211 A    
C11   C27   1.399172 A    
O26   H8    0.988426 S    
N5    O14   1.301413 A    
N10   O23   1.300914 A    
C29   C35   1.405522 A    
N3    C45   1.303886 D    
C45   C46   1.504869 S    
C39   N13   1.437659 S    
C9    C17   1.412794 A    
C32   C39   1.422838 A    
O5    C3    1.302631 A    
O7    Cu2   1.936777 S    
C10   C18   1.413690 A    
C13   C27   1.411873 A    
N9    O21   1.300393 A    
C7    C25   1.408933 A    
C6    N2    1.365708 A    
C8    C26   1.409275 A    
N12   O32   1.301099 A    
C23   O27   1.383948 S    
O7    C3    1.298754 A    
O3    Cu2   1.938549 S    
O8    C4    1.299043 A    
O4    C2    1.302196 A    
N9    O22   1.299193 A    
N2    C8    1.364732 A    
C38   O34   1.377236 S    
C20   C26   1.417373 A    
O1    Cu1   1.942252 S    
C11   H2    1.083127 S    
C13   N5    1.435635 S    
C30   C31   1.421312 A    
C12   C28   1.399696 A    
O39   H13   0.991776 S    
N2    C18   1.436193 S    
C30   C36   1.405443 A    
C5    O9    1.349314 S    
C45   N10   1.429265 S    
O6    Cu2   1.951297 S    
C44   O39   1.385969 S    
C14   C28   1.411756 A    
C21   C23   1.414892 A    
C46   N9    1.428922 S    
N8    O19   1.300986 A    
O3    C1    1.300877 A    
O8    Cu1   1.936783 S    
C26   C37   1.417673 A    
O34   H12   0.990727 S    
C35   H3    1.080150 S    
C36   H4    1.080159 S    
C2    C42   1.467521 S    
C9    N12   1.441724 S    
C22   C24   1.415048 A    
N5    O13   1.301351 A    
C15   C17   1.406658 A    
C6    C22   1.411703 A    
C16   C18   1.406201 A    
C14   C16   1.414044 A    
N12   O31   1.301677 A    
C19   C21   1.413296 A    
Cu2   N3    2.025000 S    
C3    C27   1.469620 S    
C20   C22   1.413221 A    
C9    C11   1.398361 A    
O2    Cu2   1.942253 S    
C12   H1    1.083444 S    
N14   O38   1.301378 A    
C43   C44   1.476566 S    
C23   C39   1.417630 A    
C30   C34   1.415783 A    
O5    Cu1   1.951297 S    
C24   C40   1.417081 A    
C6    O10   1.349357 S    
O33   H11   0.990999 S    
C19   C34   1.414314 A    
C20   C33   1.414418 A    
O25   H7    0.988760 S    
C29   C33   1.415702 A    
N3    H6    1.028996 S    
