data_mof_unit_12627.cif
_audit_creation_date              2012-12-11T17:37:43-0500
_audit_creation_method            fapswitch 2.2
_symmetry_space_group_name_H-M    P1
_symmetry_Int_Tables_number       1
_space_group_crystal_system       triclinic
_cell_length_a                    12.920834
_cell_length_b                    13.00573
_cell_length_c                    15.328794
_cell_angle_alpha                 116.144114
_cell_angle_beta                  64.207347
_cell_angle_gamma                 96.915416
_cell_volume                      2073.88546341

loop_
_atom_site_label
_atom_site_type_symbol
_atom_type_description
_atom_site_fract_x
_atom_site_fract_y
_atom_site_fract_z
_atom_type_partial_charge
C1    C     C_R   0.001580 0.832845 0.052028 -0.046944
C2    C     C_R   0.674002 0.531139 0.323200 -0.115238
C3    C     C_R   0.663609 0.457713 0.923039 0.118881
C4    C     C_R   0.070000 0.792887 0.303531 0.050528
C5    C     C_R   0.338224 0.516257 0.950654 -0.115022
C6    C     C_R   0.968749 0.179788 0.782741 -0.099120
C7    C     C_R   0.199556 0.508598 0.695366 -0.136197
C8    C     C_R   0.051838 0.255613 0.088799 -0.118900
C9    C     C_R   0.950809 0.172154 0.994973 -0.122233
C10   C     C_R   0.298114 0.596078 0.793224 -0.139451
C11   C     C_R   0.259720 0.415891 0.047331 -0.151183
C12   C     C_R   0.680157 0.461409 0.221056 0.513388
C13   C     C_R   0.048426 0.279541 0.684908 -0.148172
C14   C     C_R   0.362171 0.434141 0.974444 0.156667
C15   C     C_R   0.031282 0.170964 0.680361 0.057496
C16   C     C_R   0.294668 0.567646 0.697560 0.107043
C17   C     C_R   0.007563 0.152411 0.045823 0.039722
C18   C     C_R   0.437106 0.762959 0.157709 -0.292403
C19   C     C_R   0.331704 0.794791 0.249135 -0.172108
C20   C     C_R   0.283174 0.909415 0.306700 0.134596
C21   C     C_R   0.343539 0.992024 0.272632 -0.274217
C22   C     C_R   0.449256 0.960229 0.181505 -0.157893
C23   C     C_R   0.755734 0.519565 0.892248 -0.192913
C24   C     C_R   0.496446 0.845792 0.122961 0.601228
C25   C     C_R   0.154499 0.038181 0.497101 -0.243424
C26   C     C_R   0.046508 0.068996 0.585846 0.079361
C27   C     C_R   0.951731 0.004601 0.582401 0.023609
C28   C     C_R   0.966942 0.909660 0.489551 -0.228756
C29   C     C_R   0.072567 0.880816 0.399301 0.064182
C30   C     C_R   0.169042 0.942694 0.401557 0.039492
C31   C     C_R   0.779782 0.986516 0.734289 -0.181738
C32   C     C_R   0.663512 0.015192 0.807518 -0.107697
C33   C     C_R   0.597855 0.096038 0.811022 -0.098138
C34   C     C_R   0.014869 0.696694 0.301766 -0.151657
C35   C     C_R   0.648730 0.148921 0.741921 -0.097516
C36   C     C_R   0.765714 0.123118 0.670946 -0.127737
C37   C     C_R   0.831832 0.041507 0.666562 0.110894
C38   C     C_R   0.859800 0.318779 0.369184 -0.136085
C39   C     C_R   0.755801 0.364000 0.386925 -0.135514
C40   C     C_R   0.700590 0.468115 0.477073 0.130248
C41   C     C_R   0.749054 0.523642 0.550834 -0.187024
C42   C     C_R   0.852065 0.477089 0.533518 -0.123569
C43   C     C_R   0.907795 0.375117 0.442396 -0.094778
C44   C     C_R   0.496458 0.535154 0.589044 -0.262001
C45   C     C_R   0.678155 0.419255 0.987166 -0.043514
C46   C     C_R   0.389741 0.575626 0.608596 0.050420
C47   C     C_R   0.376742 0.610183 0.538779 0.057547
C48   C     C_R   0.473713 0.597759 0.445690 -0.258351
C49   C     C_R   0.578696 0.549720 0.423109 0.076119
C50   C     C_R   0.591688 0.519674 0.495912 0.037990
C51   C     C_R   0.222230 0.596026 0.480231 -0.207345
C52   C     C_R   0.115258 0.630664 0.495877 -0.224475
C53   C     C_R   0.047566 0.723870 0.590340 -0.235030
C54   C     C_R   0.086285 0.784867 0.670141 0.526871
C55   C     C_R   0.196396 0.752315 0.654257 0.371471
C56   C     C_R   0.093931 0.800412 0.209876 -0.086029
C57   C     C_R   0.263874 0.654748 0.558684 -0.071129
C58   C     C_2   0.476013 0.392705 0.945938 -0.224821
C59   C     C_2   0.568428 0.436451 0.893843 -0.229191
C60   C     C_2   0.836717 0.957229 0.082465 -0.215789
C61   C     C_2   0.801234 0.030043 0.186671 0.363411
C62   C     C_R   0.783571 0.556145 0.314088 -0.163620
C63   C     C_R   0.902552 0.747857 0.953647 -0.126353
C64   C     C_R   0.914625 0.852193 0.028817 0.187888
H1    H     H_    0.031932 0.895267 0.108638 0.136412
H2    H     H_    0.937241 0.110913 0.805802 0.133928
H3    H     H_    0.167232 0.481887 0.635022 0.099107
H4    H     H_    0.089317 0.275205 0.144487 0.090774
H5    H     H_    0.894622 0.114727 0.964148 0.110551
H6    H     H_    0.355496 0.651986 0.823812 0.100615
H7    H     H_    0.249842 0.361089 0.086105 0.097697
H8    H     H_    0.088562 0.303078 0.618785 0.100149
H9    H     H_    0.472220 0.673964 0.114102 0.142455
H10   H     H_    0.287826 0.729855 0.274844 0.140305
H11   H     H_    0.307857 0.080788 0.315475 0.138494
H12   H     H_    0.494277 0.024703 0.155693 0.135566
H13   H     H_    0.226359 0.088909 0.502632 0.137369
H14   H     H_    0.892303 0.863041 0.485253 0.140268
H15   H     H_    0.829126 0.921781 0.730355 0.157654
H16   H     H_    0.623880 0.973416 0.860293 0.132717
H17   H     H_    0.507312 0.116692 0.866330 0.111964
H18   H     H_    0.597237 0.208639 0.742044 0.133209
H19   H     H_    0.803953 0.163938 0.617163 0.115679
H20   H     H_    0.988103 0.339696 0.428580 0.103614
H21   H     H_    0.778177 0.549048 0.830851 0.105965
H22   H     H_    0.903455 0.240109 0.298563 0.129250
H23   H     H_    0.719288 0.318995 0.329809 0.109606
H24   H     H_    0.707610 0.603595 0.621117 0.118250
H25   H     H_    0.888992 0.520416 0.590476 0.118246
H26   H     H_    0.504245 0.507466 0.643398 0.133657
H27   H     H_    0.467256 0.623132 0.389489 0.148633
H28   H     H_    0.272280 0.521741 0.407047 0.142182
H29   H     H_    0.084085 0.584048 0.434976 0.149535
H30   H     H_    0.964089 0.748838 0.601614 0.146796
H31   H     H_    0.993289 0.660202 0.358148 0.097182
H32   H     H_    0.479882 0.346513 0.988574 0.137275
H33   H     H_    0.565750 0.478484 0.847467 0.135545
H34   H     H_    0.799089 0.971790 0.037478 0.125087
H35   H     H_    0.635204 0.352080 0.008940 0.150889
H36   H     H_    0.144997 0.861558 0.182562 0.096261
H37   H     H_    0.809715 0.604599 0.378073 0.134843
H38   H     H_    0.840475 0.731548 0.920504 0.136219
H39   H     H_    0.396807 0.555388 0.900954 0.089654
N1    N     N_R   0.037320 0.720000 0.995830 -0.059263
N2    N     N_R   0.946240 0.290870 0.848020 -0.047879
N3    N     N_R   0.146160 0.501170 0.788610 -0.040232
N4    N     N_R   0.025750 0.332680 0.063570 -0.040230
N5    N     N_R   0.962680 0.280000 0.004170 -0.044660
N6    N     N_R   0.209230 0.553860 0.848010 -0.042095
N7    N     N_R   0.175100 0.482030 0.063570 -0.043024
N8    N     N_R   0.996810 0.351820 0.788610 -0.039838
N9    N     N_R   0.790770 0.446140 0.151990 -0.073927
N10   N     N_R   0.824900 0.517970 0.936430 -0.043832
N11   N     N_R   0.003190 0.648180 0.211390 -0.034245
N12   N     N_R   0.774330 0.457010 0.995830 -0.050641
N13   N     N_R   0.053760 0.709130 0.151980 -0.043384
N14   N     N_R   0.853840 0.498830 0.211390 -0.068429
N15   N     N_R   0.974250 0.667320 0.936430 -0.050669
N16   N     N_R   0.225670 0.542990 0.004170 -0.047505
Ni1   Ni    Ni4+2 0.130310 0.630310 0.000000 0.221023
Ni2   Ni    Ni4+2 0.869690 0.369690 0.000000 0.239067
Ni3   Ni    Ni4+2 0.985660 0.509480 0.863750 0.214561
Ni4   Ni    Ni4+2 0.014340 0.490520 0.136250 0.209606
O1    O     O_3   0.599858 0.817725 0.032548 -0.797721
H40   H     H_    0.619912 0.733782 0.999441 0.304931
O2    O     O_3   0.595754 0.400099 0.193909 -0.809587
H41   H     H_    0.524398 0.416241 0.260636 0.309419
O3    O     O_3   0.014534 0.876523 0.761601 -0.799678
H42   H     H_    0.049935 0.910408 0.812836 0.355140
O4    O     O_3   0.235031 0.817917 0.731878 -0.783633
H43   H     H_    0.319234 0.800842 0.702007 0.326105
O5    O     O_3   0.836766 0.013600 0.252238 -0.752049
H44   H     H_    0.794737 0.077284 0.324233 0.313293

loop_
_geom_bond_atom_site_label_1
_geom_bond_atom_site_label_2
_ccdc_geom_bond_type
C5    H39   S    
O2    H41   S    
N12   Ni2   S    
C41   C42   A    
C3    C23   A    
C35   C36   A    
C39   H23   S    
N5    Ni2   S    
C2    C12   A    
O3    H42   S    
C20   C30   S    
C53   C54   A    
C9    N5    A    
C26   C27   A    
C38   H22   S    
C25   H13   S    
N1    Ni1   S    
C28   C29   A    
C9    H5    S    
C60   H34   S    
C38   C39   A    
C51   H28   S    
C11   C14   A    
C11   H7    S    
C32   H16   S    
C36   H19   S    
C24   O1    S    
C10   N6    A    
C31   C32   A    
C18   C19   A    
N15   Ni3   S    
C58   H32   S    
C62   N14   A    
C61   O5    S    
C6    C15   A    
C54   C55   A    
C8    N4    A    
N10   Ni3   S    
C19   C20   A    
O5    H44   S    
C48   H27   S    
C1    H1    S    
N4    N5    A    
C51   C57   A    
C22   H12   S    
C28   H14   S    
C4    C29   S    
C62   H37   S    
N2    N8    A    
C21   C22   A    
C4    C56   A    
C11   N7    A    
C43   H20   S    
C63   H38   S    
C35   H18   S    
C44   C46   A    
N1    N15   A    
C14   C58   S    
C4    C34   A    
C23   N10   A    
C34   H31   S    
C45   H35   S    
C16   C46   S    
C39   C40   A    
C63   N15   A    
C15   C26   S    
C25   C26   A    
C54   O3    S    
N4    Ni4   S    
C3    C45   A    
C38   C43   A    
C51   C52   A    
C31   C37   A    
C60   C61   D    
C29   C30   A    
C2    C49   S    
N7    Ni4   S    
C47   C57   S    
C45   N12   A    
C47   C48   A    
C55   O4    S    
N3    Ni3   S    
C56   N13   A    
C7    N3    A    
N2    Ni2   S    
C52   H29   S    
C1    N1    A    
C5    C14   A    
N11   Ni4   S    
C10   H6    S    
C9    C17   A    
C40   C41   A    
C5    N16   A    
C8    H4    S    
C18   H9    S    
C13   C15   A    
C59   H33   S    
C18   C24   A    
C42   C43   A    
C56   H36   S    
C1    C64   A    
C12   N9    A    
C44   H26   S    
C52   C53   A    
C44   C50   A    
C25   C30   A    
C41   H24   S    
C46   C47   A    
C48   C49   A    
C53   H30   S    
C19   H10   S    
C7    C16   A    
N7    N16   A    
N11   N13   A    
N16   Ni1   S    
C31   H15   S    
C13   H8    S    
C34   N11   A    
C21   H11   S    
C8    C17   A    
C60   C64   S    
C42   H25   S    
C32   C33   A    
C55   C57   A    
O4    H43   S    
C58   C59   D    
N9    Ni2   S    
C13   N8    A    
C10   C16   A    
N9    N14   A    
C27   C37   S    
C40   C50   S    
C33   C35   A    
C6    N2    A    
C22   C24   A    
N14   Ni4   S    
C7    H3    S    
C63   C64   A    
N13   Ni1   S    
C6    H2    S    
C12   O2    S    
C20   C21   A    
C36   C37   A    
C49   C50   A    
C23   H21   S    
C27   C28   A    
N10   N12   A    
C33   H17   S    
C2    C62   A    
N6    Ni1   S    
O1    H40   S    
N8    Ni3   S    
N3    N6    A    
C3    C59   S    
