data_mof_unit_10893.cif
_audit_creation_date              2012-12-10T18:58:48-0500
_audit_creation_method            fapswitch 2.2
_symmetry_space_group_name_H-M    P1
_symmetry_Int_Tables_number       1
_space_group_crystal_system       triclinic
_cell_length_a                    13.02081
_cell_length_b                    10.991507
_cell_length_c                    9.651182
_cell_angle_alpha                 87.790733
_cell_angle_beta                  94.825927
_cell_angle_gamma                 96.20915
_cell_volume                      1367.68530901

loop_
_atom_site_label
_atom_site_type_symbol
_atom_type_description
_atom_site_fract_x
_atom_site_fract_y
_atom_site_fract_z
_atom_type_partial_charge
C1    C     C_R   0.498356 0.262162 0.501277 0.861206
C2    C     C_R   0.029670 0.538857 0.555358 0.107858
C3    C     C_R   0.975062 0.525338 0.423280 0.067129
C4    C     C_R   0.866591 0.510672 0.414152 -0.173365
C5    C     C_R   0.868659 0.516812 0.665347 -0.182607
C6    C     C_R   0.976324 0.533870 0.675273 -0.200793
C7    C     C_R   0.439281 0.050668 0.594315 -0.091545
C8    C     C_R   0.490526 0.127740 0.497129 -0.346402
C9    C     C_R   0.521744 0.071112 0.379790 0.498604
C10   C     C_R   0.515210 0.943090 0.373284 0.493892
C11   C     C_R   0.484879 0.868581 0.487688 -0.290716
C12   C     C_R   0.301962 0.509291 0.473913 0.787076
C13   C     C_R   0.440006 0.924960 0.590536 -0.104295
C14   C     C_3   0.439660 0.903072 0.742386 0.161622
C15   C     C_3   0.438511 0.042841 0.750744 0.818199
C16   C     C_R   0.586550 0.541204 0.081460 0.071962
C17   C     C_R   0.419254 0.440080 0.069608 0.402261
C18   C     C_R   0.420338 0.436528 0.919156 0.399197
C19   C     C_R   0.588520 0.535198 0.936324 0.021411
C20   C     C_3   0.660709 0.649740 0.931321 0.330807
C21   C     C_3   0.644358 0.666194 0.083730 0.176293
C22   C     C_R   0.496794 0.737027 0.496873 0.884671
C23   C     C_R   0.699409 0.500964 0.524421 0.797457
C24   C     C_R   0.812980 0.508117 0.534994 -0.087468
C25   C     C_R   0.190907 0.525335 0.454765 -0.091520
C26   C     C_R   0.030661 0.528551 0.303902 0.423861
C27   C     C_R   0.137630 0.516177 0.322522 -0.324528
C28   C     C_R   0.137367 0.552677 0.566373 -0.260282
Cu1   Cu    Cu3+1 0.499990 0.499980 0.640670 1.027789
Cu2   Cu    Cu3+1 0.500010 0.500020 0.359330 1.039697
H1    H     H_    0.824020 0.500120 0.313379 0.242819
H2    H     H_    0.511497 0.871138 0.790138 0.158545
H3    H     H_    0.739793 0.630985 0.912007 0.111515
H4    H     H_    0.591067 0.736027 0.100843 0.157155
H5    H     H_    0.828668 0.510023 0.759426 0.152703
H6    H     H_    0.018477 0.538131 0.776583 0.139278
H7    H     H_    0.179312 0.503023 0.232984 0.202607
H8    H     H_    0.178678 0.581210 0.662284 0.160590
N1    N     N_R   0.500660 0.500930 0.148010 -0.235681
N2    N     N_R   0.500660 0.500890 0.852110 -0.230194
O1    O     O_R   0.500000 0.319640 0.618810 -0.522881
O2    O     O_R   0.500010 0.319680 0.381230 -0.535061
O3    O     O_R   0.348990 0.499960 0.599490 -0.585185
O4    O     O_R   0.349000 0.500000 0.361910 -0.531666
O5    O     O_R   0.499990 0.680320 0.618770 -0.545659
O6    O     O_R   0.500000 0.680360 0.381190 -0.544476
O7    O     O_R   0.651000 0.500000 0.638090 -0.580848
O8    O     O_R   0.651010 0.500040 0.400510 -0.547146
O9    O     O_3   0.343199 0.071863 0.793805 -0.544142
C29   C     C_3   0.338807 0.043099 0.937783 0.234740
H9    H     H_    0.379412 0.120031 0.995889 0.156306
H10   H     H_    0.381230 0.964443 0.976382 0.159463
C30   C     C_3   0.226162 0.012188 0.971475 -0.865809
H11   H     H_    0.188511 0.936402 0.906259 0.286296
H12   H     H_    0.223410 0.983822 0.082895 0.199420
H13   H     H_    0.180570 0.091000 0.951010 0.230940
O10   O     O_3   0.524435 0.110385 0.825753 -0.595379
C31   C     C_3   0.624434 0.088260 0.791286 -0.001225
H14   H     H_    0.664227 0.175703 0.751967 0.183788
H15   H     H_    0.625816 0.020354 0.709483 0.124811
C32   C     C_3   0.686432 0.046812 0.922086 -0.704683
H16   H     H_    0.646621 0.961642 0.966735 0.266843
H17   H     H_    0.764938 0.028953 0.896659 0.194622
H18   H     H_    0.694178 0.119007 0.000831 0.275913
O11   O     O_3   0.330196 0.400474 0.134584 -0.603960
C33   C     C_3   0.322641 0.273390 0.163916 0.092400
H19   H     H_    0.398737 0.236442 0.182642 0.201381
H20   H     H_    0.278405 0.228575 0.076060 0.149376
C34   C     C_3   0.257855 0.238222 0.286592 -0.777333
H21   H     H_    0.245537 0.136883 0.298160 0.197290
H22   H     H_    0.297257 0.273451 0.385048 0.241256
H23   H     H_    0.181005 0.273468 0.268361 0.240359
O12   O     O_3   0.353098 0.351342 0.844272 -0.523964
C35   C     C_3   0.249264 0.378806 0.839425 0.086385
H24   H     H_    0.244669 0.476529 0.817403 0.122900
H25   H     H_    0.212971 0.358341 0.937707 0.148937
C36   C     C_3   0.183757 0.301880 0.729444 -0.723296
H26   H     H_    0.182841 0.203409 0.756863 0.265509
H27   H     H_    0.102722 0.325432 0.721709 0.192152
H28   H     H_    0.215413 0.315908 0.626642 0.250823
F1    F     F_    0.625020 0.739244 0.843865 -0.717613
O13   O     O_3   0.737006 0.671129 0.171932 -0.565425
C37   C     C_3   0.773182 0.795123 0.196689 0.087710
H29   H     H_    0.712846 0.844571 0.237289 0.219229
H30   H     H_    0.797790 0.842647 0.099262 0.140979
C38   C     C_3   0.863968 0.803573 0.307157 -0.783375
H31   H     H_    0.927352 0.753688 0.276096 0.267680
H32   H     H_    0.894236 0.901038 0.321448 0.203684
H33   H     H_    0.838132 0.764551 0.407806 0.250999
O14   O     O_3   0.978743 0.541330 0.172758 -0.577138
C39   C     C_3   0.040838 0.615433 0.081519 0.044670
H34   H     H_    0.082376 0.555021 0.021134 0.148973
H35   H     H_    0.097971 0.684153 0.136299 0.150146
C40   C     C_3   0.973319 0.688131 0.981183 -0.786660
H36   H     H_    0.942243 0.760791 0.035903 0.246946
H37   H     H_    0.019382 0.732666 0.897988 0.201786
H38   H     H_    0.908890 0.626170 0.934097 0.251606
F2    F     F_    0.564315 0.138521 0.274066 -0.647865
F3    F     F_    0.542930 0.893809 0.257508 -0.695155
O15   O     O_3   0.344791 0.836041 0.774317 -0.552944
C41   C     C_3   0.362321 0.734877 0.864556 0.114001
H39   H     H_    0.431786 0.751279 0.939708 0.150655
H40   H     H_    0.370021 0.656062 0.800459 0.202000
C42   C     C_3   0.269918 0.702834 0.949821 -0.925281
H41   H     H_    0.197368 0.695920 0.880420 0.249631
H42   H     H_    0.276724 0.614353 0.006862 0.214487
H43   H     H_    0.267282 0.773011 0.028336 0.260272

loop_
_geom_bond_atom_site_label_1
_geom_bond_atom_site_label_2
_ccdc_geom_bond_type
C33   H20   S    
C9    F2    S    
C32   H18   S    
C1    C8    S    
O12   C35   S    
C19   C20   S    
C42   H42   S    
O14   C39   S    
C7    C8    A    
C36   H26   S    
C25   C28   A    
C26   C27   A    
C16   C21   S    
C35   H25   S    
Cu1   O7    S    
Cu2   O8    S    
C12   O3    A    
C34   H21   S    
C5    C6    A    
C4    C24   A    
C38   H32   S    
C30   H13   S    
C33   C34   S    
C31   H15   S    
C22   O6    A    
C32   H17   S    
C17   N1    A    
C34   H22   S    
C18   N2    A    
C8    C9    A    
C35   C36   S    
C29   H10   S    
C23   C24   S    
C9    C10   A    
C32   H16   S    
C31   C32   S    
C36   H27   S    
C33   H19   S    
C41   H40   S    
C20   F1    S    
Cu1   O3    S    
C15   O10   S    
Cu2   O4    S    
C2    C6    A    
C42   H41   S    
C29   H9    S    
C30   H12   S    
C29   C30   S    
C23   O7    A    
C35   H24   S    
C41   H39   S    
C10   C11   A    
C39   H34   S    
C38   H31   S    
C21   H4    S    
C40   H38   S    
C31   H14   S    
C30   H11   S    
Cu1   O5    S    
C34   H23   S    
Cu1   Cu2   S    
C39   H35   S    
C37   H29   S    
C28   H8    S    
C22   O5    A    
C17   C18   A    
C40   H36   S    
C21   O13   S    
C40   H37   S    
C20   H3    S    
C1    O1    A    
C37   H30   S    
O13   C37   S    
C41   C42   S    
O9    C29   S    
C25   C27   A    
C3    C4    A    
C36   H28   S    
C23   O8    A    
Cu1   O1    S    
Cu2   O6    S    
C3    C26   A    
C14   H2    S    
C38   H33   S    
C14   O15   S    
C26   O14   S    
C11   C22   S    
C17   O11   S    
C12   C25   S    
C18   O12   S    
C2    C3    A    
C12   O4    A    
C39   C40   S    
C11   C13   A    
O10   C31   S    
C5    C24   A    
C27   H7    S    
C16   C19   A    
C5    H5    S    
Cu1   N2    S    
C7    C15   S    
O15   C41   S    
C6    H6    S    
Cu2   N1    S    
C15   O9    S    
C10   F3    S    
C4    H1    S    
C19   N2    A    
C16   N1    A    
C1    O2    A    
C7    C13   A    
C37   C38   S    
C20   C21   S    
O11   C33   S    
C14   C15   S    
Cu2   O2    S    
C2    C28   A    
C13   C14   S    
C42   H43   S    
