data_mof_unit_45203.cif
_audit_creation_date              2013-03-05T16:20:09-0500
_audit_creation_method            fapswitch 2.2
_symmetry_space_group_name_H-M    P1
_symmetry_Int_Tables_number       1
_space_group_crystal_system       triclinic
_cell_length_a                    8.336431
_cell_length_b                    18.837703
_cell_length_c                    27.200514
_cell_angle_alpha                 100.570397
_cell_angle_beta                  91.722026
_cell_angle_gamma                 88.492966
_cell_volume                      4196.22450972

loop_
_atom_site_label
_atom_site_type_symbol
_atom_site_description
_atom_site_fract_x
_atom_site_fract_y
_atom_site_fract_z
_atom_type_partial_charge
P1    P     P_3+3 0.929380 0.335110 0.452880 0.445239
O1    O     O_2   0.106080 0.324280 0.466820 -0.394606
O2    O     O_3   0.859130 0.413620 0.470620 -0.402447
O3    O     O_3   0.376230 0.370290 0.556910 -0.360073
O4    O     O_2   0.242294 0.244701 0.520888 -0.376798
O5    O     O_3   0.921689 0.330449 0.387375 -0.562537
O6    O     O_3   0.366320 0.254851 0.609755 -0.522898
H1    H     H_    0.463400 0.338144 0.660247 0.127667
C1    C     C_3   0.520589 0.235371 0.681337 -0.978184
H2    H     H_    0.411145 0.235910 0.703469 0.271176
H3    H     H_    0.550297 0.178930 0.663331 0.243472
P2    P     P_3+3 0.398530 0.559060 0.613740 0.469340
P3    P     P_3+3 0.951274 0.416882 0.648012 0.475276
O7    O     O_2   0.227190 0.537650 0.620070 -0.357103
O8    O     O_3   0.971110 0.406970 0.583250 -0.350183
O9    O     O_2   0.037680 0.486365 0.673052 -0.380971
O10   O     O_3   0.395640 0.653034 0.632572 -0.557471
O11   O     O_3   0.061543 0.346225 0.667661 -0.488324
C2    C     C_3   0.967707 0.283889 0.656812 0.410046
H4    H     H_    0.952315 0.266574 0.615576 0.055887
H5    H     H_    0.847950 0.293925 0.673438 0.011776
C3    C     C_3   0.047376 0.221579 0.678265 -0.445958
H6    H     H_    0.159996 0.204940 0.658360 0.216110
C4    C     C_3   0.834548 0.621300 0.629913 0.421010
H7    H     H_    0.717397 0.602553 0.613095 0.094009
H8    H     H_    0.926416 0.577727 0.620526 0.150587
C5    C     C_3   0.820802 0.639477 0.686489 -0.903110
H9    H     H_    0.723933 0.680705 0.696669 0.266858
H10   H     H_    0.792384 0.590430 0.701373 0.235986
H11   H     H_    0.936215 0.660783 0.703868 0.262984
Ba1   Ba    Ba6+2 0.160810 0.465630 0.521640 1.542728
C6    C     C_3   0.030925 0.279874 0.361457 0.374677
H12   H     H_    0.137925 0.268275 0.383632 0.087493
H13   H     H_    0.078318 0.303608 0.330489 0.115404
C7    C     C_3   0.945056 0.210958 0.338182 -1.033756
H14   H     H_    0.878042 0.189742 0.366754 0.258480
H15   H     H_    0.033933 0.169374 0.321225 0.237711
H16   H     H_    0.858750 0.222255 0.308542 0.271570
C8    C     C_3   0.328286 0.685404 0.594248 0.462134
H17   H     H_    0.203359 0.667541 0.586098 0.091278
H18   H     H_    0.400471 0.672129 0.559964 0.125534
C9    C     C_3   0.326758 0.766898 0.611693 -1.018300
H19   H     H_    0.250339 0.781935 0.644903 0.271992
H20   H     H_    0.278494 0.794548 0.581620 0.223655
H21   H     H_    0.450822 0.785376 0.621820 0.259544
P4    P     P_3+3 0.880940 0.664900 0.547160 0.446196
O12   O     O_2   0.704230 0.675760 0.533200 -0.362580
O13   O     O_3   0.951180 0.586390 0.529420 -0.446448
O14   O     O_3   0.434080 0.629720 0.443130 -0.372089
O15   O     O_3   0.878961 0.683261 0.612606 -0.568494
P5    P     P_3+3 0.834169 0.588809 0.350337 0.473710
O16   O     O_3   0.351080 0.462080 0.440130 -0.422972
O17   O     O_3   0.839200 0.593040 0.416790 -0.411463
O18   O     O_2   0.670861 0.556157 0.330863 -0.354472
O19   O     O_3   0.817286 0.676665 0.337696 -0.514442
Ba2   Ba    Ba6+2 0.649380 0.534380 0.478400 1.532469
P6    P     P_3+3 0.391857 0.276359 0.550745 0.461711
C10   C     C_3   0.494622 0.282178 0.641678 0.463782
H22   H     H_    0.609713 0.281903 0.621950 -0.012951
H23   H     H_    0.620418 0.256336 0.707265 0.252485
O20   O     O_3   0.459240 0.537930 0.559910 -0.411938
C11   C     C_3   0.479088 0.313851 0.395145 0.439308
H24   H     H_    0.598858 0.336716 0.406368 0.130984
H25   H     H_    0.400754 0.322044 0.428143 0.103528
C12   C     C_3   0.501617 0.233052 0.376372 -1.066096
H26   H     H_    0.580233 0.223527 0.343513 0.286727
H27   H     H_    0.557707 0.206963 0.406209 0.225649
H28   H     H_    0.384308 0.207735 0.365163 0.248938
P7    P     P_3+3 0.402407 0.439539 0.375960 0.439760
O21   O     O_2   0.583120 0.462390 0.379940 -0.337623
O22   O     O_3   0.408259 0.345561 0.356693 -0.571370
H29   H     H_    0.967756 0.174157 0.670448 0.158002
C13   C     C_3   0.874182 0.725614 0.379479 0.550933
H30   H     H_    0.804354 0.722802 0.413223 0.153097
H31   H     H_    0.003152 0.714593 0.386824 -0.040167
C14   C     C_3   0.854571 0.801988 0.368997 -1.032105
H32   H     H_    0.725505 0.817769 0.368160 0.279127
H33   H     H_    0.917131 0.840541 0.398622 0.228073
H34   H     H_    0.905723 0.805138 0.332346 0.269122
P8    P     P_3+3 0.416459 0.723451 0.448257 0.438602
C15   C     C_3   0.331779 0.739055 0.358904 0.282657
H35   H     H_    0.238400 0.778204 0.375722 0.067653
O23   O     O_2   0.555609 0.755339 0.483206 -0.385776
O24   O     O_3   0.468530 0.743233 0.390545 -0.517429
H36   H     H_    0.282712 0.683601 0.352277 0.074129
C16   C     C_3   0.379683 0.757357 0.308778 -0.337254
H37   H     H_    0.436071 0.708368 0.286197 0.212303
H38   H     H_    0.471772 0.799975 0.315002 0.205206
C17   C     C_R   0.992318 0.047537 0.477937 0.004969
C18   C     C_R   0.081535 0.094880 0.455646 0.134778
C19   C     C_R   0.231903 0.072141 0.435809 -0.184738
C20   C     C_R   0.292679 0.002780 0.437668 -0.193282
C21   C     C_R   0.203776 0.954489 0.459012 0.134083
C22   C     C_R   0.053252 0.976827 0.479424 0.012809
C23   C     C_R   0.262691 0.884142 0.459546 -0.266248
C24   C     C_R   0.171525 0.833913 0.478799 -0.023387
C25   C     C_R   0.022599 0.856971 0.501272 0.002497
C26   C     C_R   0.964236 0.928728 0.501370 -0.020430
C27   C     C_R   0.223259 0.760974 0.475636 0.161640
C28   C     C_R   0.128258 0.713195 0.495110 -0.549993
C29   C     C_R   0.985607 0.735049 0.519590 0.273918
C30   C     C_R   0.931806 0.808584 0.523493 -0.050886
C31   C     C_R   0.842582 0.070806 0.498527 -0.017908
C32   C     C_R   0.783229 0.142345 0.497804 0.010572
C33   C     C_R   0.875264 0.190905 0.476117 -0.051353
C34   C     C_R   0.021202 0.164634 0.453973 -0.168804
H39   H     H_    0.303118 0.108212 0.419016 0.132596
H40   H     H_    0.409034 0.986736 0.422069 0.137880
H41   H     H_    0.170790 0.658221 0.493581 0.161826
H42   H     H_    0.378846 0.868733 0.443824 0.178044
H43   H     H_    0.093056 0.198201 0.436195 0.156393
C35   C     C_R   0.790014 0.835499 0.548237 -0.139508
C36   C     C_R   0.728252 0.905210 0.545991 0.117465
C37   C     C_R   0.815366 0.952134 0.522521 0.008283
C38   C     C_R   0.753923 0.022812 0.520712 0.013984
C39   C     C_R   0.578884 0.928515 0.566370 -0.175520
C40   C     C_R   0.516698 0.997511 0.563625 -0.193224
C41   C     C_R   0.603835 0.045381 0.541280 0.125755
C42   C     C_R   0.633006 0.165194 0.519270 -0.024114
C43   C     C_R   0.543670 0.115490 0.539834 -0.243549
C44   C     C_R   0.579082 0.237624 0.520546 0.167234
C45   C     C_R   0.674360 0.285637 0.501374 -0.511887
C46   C     C_R   0.819453 0.264090 0.478335 0.264691
H44   H     H_    0.723579 0.802280 0.568497 0.170736
H45   H     H_    0.509043 0.893076 0.584057 0.136609
H46   H     H_    0.400674 0.013669 0.579424 0.135873
H47   H     H_    0.427356 0.130858 0.555410 0.183075
H48   H     H_    0.633147 0.341091 0.503736 0.174704
C47   C     C_R   0.265983 0.444132 0.165878 0.525549
O25   O     O_2   0.261269 0.388420 0.182793 -0.590454
N1    N     N_R   0.237329 0.509720 0.196609 -0.159102
C48   C     C_R   0.242271 0.573129 0.177995 0.528064
C49   C     C_2   0.052461 0.538521 0.265691 -0.253673
C50   C     C_3   0.008588 0.531227 0.317819 0.165910
C51   C     C_1   0.285325 0.489513 0.332576 0.249385
C52   C     C_2   0.317950 0.484670 0.284343 -0.208609
C53   C     C_2   0.198231 0.512067 0.248622 0.178286
C54   C     C_R   0.298116 0.504930 0.094837 -0.090792
C55   C     C_R   0.300211 0.440961 0.115096 -0.041485
C56   C     C_R   0.335588 0.374756 0.084195 -0.088673
C57   C     C_R   0.258723 0.571921 0.125832 -0.130829
C58   C     C_2   0.160193 0.530608 0.350144 -0.151970
H49   H     H_    0.433946 0.463452 0.270778 0.165073
H50   H     H_    0.339519 0.325000 0.098892 0.166605
C59   C     C_2   0.637353 0.468463 0.634845 -0.418304
C60   C     C_R   0.393949 0.430143 0.960246 0.042160
C61   C     C_R   0.393166 0.562962 0.973678 0.061000
C62   C     C_R   0.413037 0.495003 0.941622 0.085588
C63   C     C_R   0.402840 0.363913 0.926022 -0.208816
C64   C     C_R   0.436286 0.361453 0.875928 -0.098809
C65   C     C_R   0.463381 0.424808 0.857660 -0.043777
C66   C     C_R   0.451814 0.491831 0.890402 -0.072025
C67   C     C_R   0.478520 0.555626 0.871923 -0.059529
C68   C     C_R   0.519439 0.551404 0.821308 0.531617
N2    N     N_R   0.531570 0.485134 0.789655 -0.163621
C69   C     C_R   0.500887 0.422368 0.807147 0.519330
C70   C     C_2   0.707450 0.440666 0.720368 -0.189581
C71   C     C_3   0.734968 0.422143 0.664804 0.063509
C72   C     C_1   0.515501 0.509081 0.654911 0.288712
C73   C     C_2   0.475734 0.515685 0.702494 -0.192730
C74   C     C_2   0.577525 0.480725 0.737969 0.145421
O26   O     O_2   0.505310 0.364231 0.778544 -0.626984
C75   C     C_R   0.365356 0.433497 0.012095 0.053011
C76   C     C_R   0.335179 0.501446 0.043422 0.085227
C77   C     C_R   0.343077 0.565854 0.023816 -0.004773
C78   C     C_R   0.367284 0.370978 0.033938 -0.210626
H51   H     H_    0.782571 0.414700 0.745417 0.140478
H52   H     H_    0.441577 0.309164 0.851440 0.160365
H53   H     H_    0.380372 0.312692 0.936473 0.125528
H54   H     H_    0.397553 0.318033 0.013452 0.126541
O27   O     O_2   0.240717 0.630240 0.207444 -0.647481
C79   C     C_R   0.239733 0.634308 0.103137 0.277840
H55   H     H_    0.963304 0.557172 0.240778 0.154951
C80   C     C_R   0.424778 0.625869 0.954307 -0.211779
C81   C     C_R   0.466290 0.622162 0.904621 -0.083355
O28   O     O_2   0.545914 0.606609 0.805590 -0.588584
C82   C     C_R   0.292747 0.630985 0.054213 -0.228321
H56   H     H_    0.423022 0.679082 0.977124 0.125620
H57   H     H_    0.489139 0.672099 0.891888 0.165810
H58   H     H_    0.367601 0.545487 0.715943 0.169645
H59   H     H_    0.283115 0.680174 0.039370 0.136658
H60   H     H_    0.654769 0.458881 0.594774 0.169673
C83   C     C_3   0.236164 0.782385 0.279074 -0.295042
C84   C     C_3   0.191819 0.862047 0.297199 -0.931675
H61   H     H_    0.160530 0.872647 0.337270 0.267920
H62   H     H_    0.293618 0.896631 0.292064 0.266025
H63   H     H_    0.086681 0.877232 0.275011 0.259601
H64   H     H_    0.268736 0.775724 0.239155 0.228188
H65   H     H_    0.130757 0.748204 0.281136 0.227672
C85   C     C_3   0.153589 0.704293 0.126864 -0.346277
C86   C     C_3   0.004051 0.719819 0.096130 -0.924185
H66   H     H_    0.036157 0.731718 0.059240 0.260063
H67   H     H_    0.923118 0.672910 0.090376 0.270170
H68   H     H_    0.937964 0.767734 0.116502 0.257364
H69   H     H_    0.108842 0.704141 0.164474 0.244671
H70   H     H_    0.237359 0.749933 0.130031 0.183160
C87   C     C_3   0.135083 0.549125 0.403785 -0.425078
C88   C     C_3   0.035812 0.488960 0.417750 -0.412309
H71   H     H_    0.929566 0.473565 0.393016 0.219485
H72   H     H_    0.100383 0.437137 0.415287 0.219054
H73   H     H_    0.993906 0.509473 0.455077 0.290849
H74   H     H_    0.238635 0.558083 0.426815 0.251728
H75   H     H_    0.093340 0.605573 0.412591 0.156910
C89   C     C_3   0.085698 0.240522 0.734793 -0.222964
C90   C     C_3   0.935456 0.249041 0.766329 -0.870869
H76   H     H_    0.863874 0.297381 0.760603 0.261784
H77   H     H_    0.860446 0.200344 0.756627 0.257927
H78   H     H_    0.971239 0.256079 0.806553 0.246535
H79   H     H_    0.161445 0.196087 0.745529 0.182195
H80   H     H_    0.156218 0.290723 0.743739 0.243247

loop_
_geom_bond_atom_site_label_1
_geom_bond_atom_site_label_2
_geom_bond_distance
_ccdc_geom_bond_type
C79   C82   1.404823 A    
O5    C6    1.407287 S    
C49   C53   1.363012 D    
C21   C22   1.410081 A    
C59   C71   1.507090 S    
C5    H10   1.108240 S    
C23   C24   1.410910 A    
C77   C82   1.409460 A    
C13   H30   1.111626 S    
Ba1   O20   2.937742 S    
C30   C35   1.413634 A    
C2    H4    1.113670 S    
C14   H34   1.108078 S    
O7    Ba1   2.816521 S    
P8    O24   1.748040 S    
C70   H51   1.084533 S    
O8    Ba1   2.731472 S    
C86   H67   1.111225 S    
C15   H35   1.107502 S    
C61   C80   1.416057 A    
C63   C64   1.391212 A    
C51   C52   1.334067 D    
C8    H18   1.111089 S    
C90   H76   1.107910 S    
N2    C74   1.455327 S    
C47   N1    1.378373 Am   
C85   C86   1.531772 S    
P3    O11   1.751961 S    
C63   H53   1.077130 S    
C90   H78   1.110359 S    
C20   C21   1.403210 A    
C76   C77   1.415827 A    
C7    H15   1.110306 S    
C4    H8    1.107822 S    
C35   H44   1.079416 S    
C52   H49   1.085345 S    
C72   C73   1.328556 D    
C59   C72   1.324563 D    
P5    C50   1.927563 S    
C16   H38   1.112341 S    
C26   C37   1.409472 A    
C22   C26   1.410121 A    
C24   C27   1.417393 A    
P1    Ba1   3.407483 S    
C84   H61   1.109249 S    
C33   C46   1.434646 A    
P1    O1    1.527830 D    
O10   C8    1.397779 S    
C17   C22   1.420165 A    
P7    O22   1.751479 S    
C80   C81   1.394044 A    
C73   H58   1.086023 S    
C11   H25   1.111296 S    
O16   P7    1.781412 S    
C61   C77   1.429336 A    
C61   C62   1.419365 A    
H1    C10   1.110156 S    
C20   H40   1.083760 S    
C51   C58   1.329513 D    
C75   C76   1.422518 A    
C12   H27   1.109171 S    
C89   H79   1.111500 S    
C11   O22   1.404630 S    
C83   H64   1.111044 S    
C65   C66   1.408093 A    
C4    C5    1.521113 S    
C88   H71   1.107837 S    
C48   O27   1.217756 D    
Ba1   Ba2   4.557802 S    
C40   H46   1.083680 S    
C80   H56   1.077835 S    
O6    C10   1.404314 S    
C25   C30   1.426507 A    
C85   H70   1.111327 S    
C32   C42   1.420530 A    
C12   H28   1.109078 S    
C42   C44   1.419927 A    
C69   O26   1.221911 D    
C28   H41   1.079654 S    
P7    C51   1.876567 S    
C17   C31   1.409651 A    
C5    H11   1.110684 S    
C4    O15   1.398521 S    
C89   C90   1.527653 S    
C13   H31   1.108834 S    
P7    O21   1.572826 D    
C9    H20   1.108079 S    
P8    O23   1.539820 D    
C83   H65   1.111698 S    
C3    H29   1.112113 S    
C35   C36   1.408996 A    
C25   C26   1.424114 A    
C8    C9    1.521222 S    
C60   C62   1.420198 A    
C34   H43   1.068634 S    
C90   H77   1.110684 S    
C56   C78   1.388756 A    
P4    C29   1.879772 S    
P4    O13   1.572450 S    
C43   H47   1.080945 S    
P1    O5    1.767073 S    
C29   C30   1.430914 A    
C19   H39   1.083617 S    
C75   C78   1.412600 A    
C4    H7    1.104447 S    
C18   C34   1.402666 A    
C19   C20   1.397967 A    
C16   H37   1.111952 S    
O11   C2    1.408976 S    
C81   H57   1.083551 S    
C79   C85   1.528462 S    
C10   H22   1.112725 S    
C59   H60   1.085187 S    
C23   H42   1.081361 S    
C57   C79   1.427500 A    
C86   H66   1.109305 S    
C70   C71   1.510534 S    
O1    Ba1   2.843938 S    
P1    O2    1.572479 S    
C9    H21   1.110568 S    
C6    H13   1.110410 S    
O3    P6    1.748239 S    
C31   C38   1.410640 A    
C83   C84   1.530365 S    
P1    C46   1.884539 S    
C11   H24   1.109814 S    
N1    C53   1.453872 S    
C50   C58   1.518802 S    
C60   C63   1.414864 A    
O2    Ba2   2.813105 S    
C27   C28   1.398386 A    
C47   C55   1.409081 A    
C55   C56   1.399937 A    
C38   C41   1.409280 A    
C64   H52   1.083794 S    
C24   C25   1.422503 A    
C7    H16   1.110376 S    
C88   H73   1.082821 S    
C68   N2    1.383571 Am   
C15   C16   1.532888 S    
C87   H74   1.049996 S    
Ba2   O20   2.753873 S    
C65   C69   1.410539 A    
C14   H32   1.109392 S    
O2    Ba1   2.937979 S    
C1    H3    1.110858 S    
C44   C45   1.398789 A    
C85   H69   1.099904 S    
C84   H63   1.110242 S    
P2    O7    1.517594 D    
C78   H54   1.077126 S    
Ba2   O21   2.816867 S    
Ba1   O13   2.812503 S    
P3    O8    1.749442 S    
P2    Ba1   3.401206 S    
C49   C50   1.506111 S    
C58   C87   1.456744 S    
C9    H19   1.110556 S    
C3    C89   1.539085 S    
P4    Ba2   3.408100 S    
N1    C48   1.382231 Am   
C17   C18   1.405890 A    
C70   C74   1.351817 D    
P3    C71   1.869099 S    
C8    H17   1.106417 S    
C15   O24   1.402653 S    
C36   C37   1.408893 A    
C1    H2    1.106897 S    
O17   Ba2   2.732086 S    
C48   C57   1.425568 A    
O13   Ba2   2.938827 S    
P4    O15   1.750559 S    
P4    O12   1.528131 D    
C1    C10   1.520842 S    
C11   C12   1.522578 S    
C2    H5    1.105800 S    
C3    H6    1.107078 S    
C6    C7    1.522734 S    
C62   C66   1.429894 A    
C14   H33   1.108476 S    
C52   C53   1.518252 S    
C54   C57   1.419737 A    
C32   C33   1.426710 A    
C88   H72   1.094453 S    
C42   C43   1.413524 A    
O14   P8    1.748105 S    
C36   C39   1.404983 A    
C37   C38   1.422723 A    
C68   O28   1.222235 D    
O14   Ba2   2.779656 S    
C33   C34   1.410973 A    
C67   C81   1.400763 A    
Ba1   O16   2.754525 S    
O4    P6    1.539586 D    
C39   H45   1.082232 S    
P5    O18   1.547088 D    
C6    H12   1.101341 S    
C1    H23   1.107147 S    
C56   H50   1.083731 S    
C47   O25   1.222729 D    
C86   H68   1.110840 S    
P8    C27   1.862089 S    
C40   C41   1.404376 A    
C73   C74   1.496487 S    
P2    O10   1.750027 S    
P2    O20   1.542267 S    
C18   C19   1.404843 A    
C16   C83   1.535757 S    
C60   C75   1.427063 A    
C82   H59   1.076768 S    
C28   C29   1.395820 A    
C13   C14   1.520933 S    
C2    C3    1.531784 S    
C84   H62   1.110739 S    
C39   C40   1.400522 A    
C87   H75   1.096032 S    
P5    O19   1.752342 S    
P2    C72   1.834203 S    
C45   H48   1.082236 S    
C87   C88   1.529648 S    
C41   C43   1.407267 A    
O3    Ba1   2.780273 S    
C54   C55   1.413522 A    
P6    C44   1.854851 S    
O19   C13   1.404637 S    
C66   C67   1.410254 A    
C21   C23   1.403529 A    
C12   H26   1.109393 S    
P3    O9    1.545636 D    
C89   H80   1.111462 S    
C31   C32   1.426665 A    
C45   C46   1.395323 A    
C64   C65   1.400280 A    
C54   C76   1.430663 A    
C7    H14   1.107983 S    
P5    O17   1.793917 S    
C67   C68   1.415883 A    
N2    C69   1.385422 Am   
C49   H55   1.085539 S    
O6    P6    1.746295 S    
C15   H36   1.113561 S    
O16   Ba2   2.936822 S    
O12   Ba2   2.844392 S    
C5    H9    1.110648 S    
