data_mof_unit_61771.cif
_audit_creation_date              2012-12-10T18:42:12-0500
_audit_creation_method            fapswitch 2.2
_symmetry_space_group_name_H-M    P1
_symmetry_Int_Tables_number       1
_space_group_crystal_system       triclinic
_cell_length_a                    21.304236
_cell_length_b                    21.303664
_cell_length_c                    55.736816
_cell_angle_alpha                 89.968287
_cell_angle_beta                  90.173119
_cell_angle_gamma                 90.054066
_cell_volume                      25296.4851807

loop_
_atom_site_label
_atom_site_type_symbol
_atom_type_description
_atom_site_fract_x
_atom_site_fract_y
_atom_site_fract_z
_atom_type_partial_charge
C1    C     C_R   0.121630 0.000127 0.500049 0.859610
C2    C     C_3   0.728849 0.005847 0.477329 -0.174872
C3    C     C_R   0.412227 0.927046 0.698900 -0.138709
C4    C     C_R   0.574767 0.086209 0.199071 -0.138957
C5    C     C_R   0.084847 0.575365 0.199115 -0.138830
C6    C     C_R   0.426900 0.913168 0.198928 -0.138900
C7    C     C_R   0.914156 0.424794 0.198912 -0.138926
C8    C     C_R   0.038480 0.543724 0.686469 -0.020836
C9    C     C_R   0.543148 0.036849 0.686518 -0.020731
C10   C     C_R   0.966476 0.455209 0.686512 -0.020824
C11   C     C_R   0.455762 0.963473 0.686416 -0.020690
C12   C     C_R   0.537891 0.043074 0.186500 -0.020653
C13   C     C_3   0.059576 0.728628 0.496145 -0.189920
C14   C     C_R   0.042350 0.537771 0.186528 -0.020669
C15   C     C_R   0.463763 0.956323 0.186429 -0.020705
C16   C     C_R   0.956763 0.462306 0.186426 -0.020600
C17   C     C_R   0.002795 0.499318 0.699252 -0.051549
C18   C     C_R   0.499383 0.000227 0.699227 -0.051645
C19   C     C_R   0.500816 0.999704 0.199225 -0.051671
C20   C     C_R   0.999498 0.500082 0.199237 -0.051691
C21   C     C_R   0.512048 0.944349 0.413956 -0.223212
C22   C     C_R   0.055479 0.488936 0.413936 -0.227579
C23   C     C_R   0.488210 0.055747 0.413902 -0.223380
C24   C     C_3   0.270727 0.994263 0.477459 -0.174950
C25   C     C_R   0.943753 0.511177 0.413926 -0.227804
C26   C     C_R   0.016913 0.444662 0.914166 -0.224840
C27   C     C_R   0.555128 0.987706 0.913920 -0.220094
C28   C     C_R   0.988742 0.555039 0.913755 -0.221990
C29   C     C_R   0.443994 0.012732 0.913948 -0.225527
C30   C     C_R   0.036747 0.543570 0.661321 0.501687
C31   C     C_R   0.542873 0.035592 0.661373 0.501672
C32   C     C_R   0.966960 0.455946 0.661361 0.501775
C33   C     C_R   0.456303 0.964496 0.661268 0.501685
C34   C     C_R   0.536723 0.042704 0.161352 0.501526
C35   C     C_3   0.451411 0.770591 0.013280 -0.183853
C36   C     C_R   0.042098 0.536523 0.161382 0.501551
C37   C     C_R   0.464891 0.956742 0.161285 0.501499
C38   C     C_R   0.957227 0.463406 0.161278 0.501530
C39   C     C_R   0.543165 0.039269 0.262739 0.044749
C40   C     C_R   0.037966 0.543443 0.262742 0.044781
C41   C     C_R   0.458162 0.960346 0.262643 0.044757
C42   C     C_R   0.960505 0.457109 0.262664 0.044780
C43   C     C_R   0.045620 0.539305 0.762696 0.044698
C44   C     C_R   0.538906 0.042666 0.762732 0.044668
C45   C     C_R   0.962794 0.458092 0.762760 0.044659
C46   C     C_3   0.228461 0.441183 0.994756 -0.191635
C47   C     C_R   0.459209 0.958386 0.762657 0.044708
C48   C     C_R   0.500614 0.999844 0.275273 0.071408
C49   C     C_R   0.999204 0.500298 0.275286 0.071339
C50   C     C_R   0.004405 0.498653 0.775311 0.071481
C51   C     C_R   0.499020 0.000562 0.775277 0.071539
C52   C     C_R   0.945282 0.511722 0.611085 -0.101500
C53   C     C_R   0.512056 0.944409 0.611046 -0.101706
C54   C     C_R   0.056636 0.488261 0.610977 -0.102250
C55   C     C_R   0.487464 0.055527 0.610978 -0.101947
C56   C     C_R   0.445082 0.012620 0.111000 -0.101949
C57   C     C_3   0.495077 0.229259 0.977291 -0.172710
C58   C     C_R   0.013053 0.444597 0.111037 -0.101672
C59   C     C_R   0.556011 0.987202 0.111017 -0.101776
C60   C     C_R   0.986553 0.555274 0.110978 -0.101916
C61   C     C_R   0.413899 0.925251 0.275967 -0.215704
C62   C     C_R   0.926106 0.412321 0.276010 -0.215745
C63   C     C_R   0.587319 0.074444 0.276172 -0.215698
C64   C     C_R   0.072258 0.588310 0.276149 -0.215767
C65   C     C_R   0.919865 0.421611 0.776179 -0.215205
C66   C     C_R   0.423596 0.914569 0.776008 -0.215362
C67   C     C_R   0.089038 0.575604 0.776046 -0.215379
C68   C     C_3   0.770610 0.479605 0.978671 -0.175269
C69   C     C_R   0.574388 0.086602 0.776138 -0.215364
C70   C     C_R   0.413290 0.926814 0.300859 -0.139908
C71   C     C_R   0.927583 0.411845 0.300909 -0.140579
C72   C     C_R   0.587725 0.073033 0.301069 -0.139919
C73   C     C_R   0.070698 0.588843 0.301042 -0.140565
C74   C     C_R   0.919683 0.423018 0.801073 -0.139050
C75   C     C_R   0.425023 0.914106 0.800906 -0.139237
C76   C     C_R   0.089865 0.574155 0.800945 -0.139697
C77   C     C_R   0.572867 0.087166 0.801031 -0.139024
C78   C     C_R   0.456732 0.963310 0.313445 -0.020265
C79   C     C_3   0.960703 0.229234 0.517350 -0.187407
C80   C     C_R   0.963278 0.455963 0.313478 -0.019602
C81   C     C_R   0.544181 0.036613 0.313551 -0.020239
C82   C     C_R   0.035014 0.544711 0.313544 -0.019619
C83   C     C_R   0.962224 0.460750 0.813571 -0.021022
C84   C     C_R   0.461894 0.957255 0.813472 -0.020457
C85   C     C_R   0.047518 0.536546 0.813514 -0.020181
C86   C     C_R   0.536016 0.044011 0.813533 -0.020650
C87   C     C_R   0.500510 0.999922 0.300739 -0.051820
C88   C     C_R   0.999159 0.500328 0.300752 -0.052187
C89   C     C_R   0.004740 0.498626 0.800781 -0.051644
C90   C     C_3   0.770428 0.951552 0.486768 -0.182538
C91   C     C_R   0.498968 0.000616 0.800743 -0.051714
C92   C     C_R   0.543677 0.035538 0.338698 0.500945
C93   C     C_R   0.033883 0.544276 0.338689 0.500728
C94   C     C_R   0.457038 0.964524 0.338591 0.500946
C95   C     C_R   0.964447 0.456361 0.338627 0.500770
C96   C     C_R   0.047252 0.535589 0.838669 0.499893
C97   C     C_R   0.534903 0.043598 0.838679 0.501208
C98   C     C_R   0.962757 0.462043 0.838714 0.501779
C99   C     C_R   0.463067 0.957640 0.838620 0.501334
C100  C     C_R   0.000402 0.499980 0.573371 -0.043908
C101  C     C_3   0.039572 0.770716 0.517378 -0.187594
C102  C     C_R   0.499911 0.999969 0.573359 -0.042770
C103  C     C_R   0.500287 0.999991 0.073356 -0.042496
C104  C     C_R   0.999928 0.499958 0.073356 -0.043836
C105  C     C_3   0.057710 0.229014 0.503905 -0.174761
C106  C     C_3   0.770818 0.994183 0.522755 -0.187574
C107  C     C_3   0.942350 0.770971 0.503935 -0.174777
C108  C     C_3   0.229576 0.005681 0.522909 -0.187845
C109  C     C_3   0.548934 0.729564 0.986896 -0.181196
C110  C     C_3   0.270950 0.557035 0.005190 -0.177620
C111  C     C_3   0.505054 0.270532 0.022833 -0.187884
C112  C     C_R   0.999133 0.121654 0.499947 0.856983
C113  C     C_3   0.229330 0.048499 0.486935 -0.182260
C114  C     C_3   0.729621 0.520838 0.021548 -0.186881
C115  C     C_3   0.019779 0.270174 0.521505 -0.134037
C116  C     C_3   0.729394 0.945682 0.509491 -0.157748
C117  C     C_3   0.980562 0.729758 0.521534 -0.133851
C118  C     C_3   0.270772 0.054255 0.509645 -0.157622
C119  C     C_3   0.554375 0.770877 0.009608 -0.156982
C120  C     C_3   0.229857 0.516240 0.021866 -0.131678
C121  C     C_3   0.554005 0.229332 0.009853 -0.152856
C122  C     C_3   0.770768 0.558990 0.003996 -0.161175
C123  C     C_3   0.999589 0.310929 0.500217 -0.002656
C124  C     C_3   0.505840 0.729464 0.022777 -0.187285
C125  C     C_3   0.689170 0.000056 0.500115 -0.005058
C126  C     C_3   0.000414 0.689068 0.500244 -0.002652
C127  C     C_3   0.310830 0.999939 0.500227 -0.005133
C128  C     C_3   0.499991 0.810824 0.000046 -0.005385
C129  C     C_3   0.189017 0.499625 0.000151 -0.002563
C130  C     C_3   0.499960 0.189219 0.000083 -0.003526
C131  C     C_3   0.810811 0.500125 0.000130 -0.006925
C132  C     C_3   0.037678 0.271255 0.482606 -0.186360
C133  C     C_3   0.729388 0.048599 0.513448 -0.184443
C134  C     C_3   0.962044 0.728794 0.482635 -0.186575
C135  C     C_3   0.270759 0.458023 0.016404 -0.189211
C136  C     C_3   0.270863 0.951322 0.513564 -0.184222
C137  C     C_3   0.494621 0.770857 0.977261 -0.174936
C138  C     C_3   0.228656 0.540540 0.983443 -0.188202
C139  C     C_3   0.450928 0.229238 0.013125 -0.188161
C140  C     C_3   0.770903 0.462001 0.017753 -0.179834
C141  C     C_3   0.978702 0.230815 0.478690 0.140728
C142  C     C_3   0.770133 0.053736 0.490761 0.151985
C143  C     C_3   0.020956 0.769241 0.478719 0.140859
C144  C     C_3   0.229706 0.946300 0.490889 0.151994
C145  C     C_3   0.446739 0.729600 0.990600 0.147704
C146  C     C_3   0.549055 0.270689 0.987124 -0.185804
C147  C     C_3   0.269006 0.482314 0.978230 0.141486
C148  C     C_3   0.446747 0.270336 0.990443 0.151908
C149  C     C_3   0.729621 0.442178 0.996320 0.155349
C150  C     C_3   0.955583 0.208663 0.454119 -0.413908
C151  C     C_3   0.937226 0.264372 0.438165 -0.367916
C152  C     C_3   0.918052 0.242528 0.413132 -0.828501
C153  C     C_3   0.795680 0.114632 0.480076 -0.449433
C154  C     C_3   0.742236 0.159258 0.473205 -0.321581
C155  C     C_3   0.767555 0.219450 0.462002 -0.880205
C156  C     C_3   0.043697 0.791426 0.454144 -0.413697
C157  C     C_3   0.729294 0.538435 0.982607 -0.185402
C158  C     C_3   0.061801 0.735738 0.438201 -0.368115
C159  C     C_3   0.080600 0.757617 0.413166 -0.828432
C160  C     C_3   0.203990 0.885444 0.480195 -0.449255
C161  C     C_3   0.257327 0.840872 0.473292 -0.321798
C162  C     C_3   0.231829 0.780730 0.462077 -0.880242
C163  C     C_3   0.386378 0.702638 0.979950 -0.436558
C164  C     C_3   0.340315 0.754591 0.972888 -0.331702
C165  C     C_3   0.279634 0.726886 0.962823 -0.864975
C166  C     C_3   0.290892 0.462644 0.953246 -0.407674
C167  C     C_3   0.234978 0.446441 0.937011 -0.367108
C168  C     C_3   0.998683 0.189252 0.499741 -0.021162
C169  C     C_3   0.256650 0.428990 0.911830 -0.842998
C170  C     C_3   0.386470 0.296714 0.979458 -0.444799
C171  C     C_3   0.342203 0.243978 0.971506 -0.325074
C172  C     C_3   0.282596 0.270487 0.960170 -0.888636
C173  C     C_3   0.703668 0.376284 0.991943 -0.454135
C174  C     C_3   0.756861 0.328524 0.989189 -0.321878
C175  C     C_3   0.731132 0.262744 0.984650 -0.872309
C176  C     C_3   0.810809 0.000017 0.500017 -0.016505
C177  C     C_3   0.001310 0.810747 0.499771 -0.021154
C178  C     C_3   0.189188 0.999962 0.500183 -0.016549
C179  C     C_3   0.500450 0.689217 0.000061 -0.016807
C180  C     C_R   0.878368 0.999863 0.499989 0.859592
C181  C     C_3   0.310705 0.498874 0.999701 -0.017738
C182  C     C_3   0.500180 0.310839 0.000099 -0.016522
C183  C     C_3   0.689174 0.500314 0.000142 -0.015713
C184  C     C_R   0.500255 0.000063 0.376376 0.311171
C185  C     C_R   0.999355 0.500177 0.376383 0.312710
C186  C     C_R   0.004729 0.499468 0.876418 0.311922
C187  C     C_R   0.499235 0.000441 0.876380 0.310768
C188  C     C_R   0.512417 0.944480 0.388981 -0.103223
C189  C     C_R   0.055191 0.488745 0.388962 -0.105634
C190  C     C_R   0.488015 0.055640 0.388924 -0.103066
C191  C     C_R   0.000860 0.878345 0.499959 0.856973
C192  C     C_R   0.943688 0.511514 0.388951 -0.105411
C193  C     C_R   0.018574 0.444569 0.889203 -0.104575
C194  C     C_R   0.554788 0.987571 0.888944 -0.102515
C195  C     C_R   0.989854 0.554691 0.888778 -0.102609
C196  C     C_R   0.443897 0.013158 0.888971 -0.102341
C197  C     C_R   0.001155 0.499999 0.623608 0.310522
C198  C     C_R   0.499717 0.999973 0.623589 0.310271
C199  C     C_R   0.500627 0.999867 0.123586 0.310268
C200  C     C_R   0.999767 0.499932 0.123590 0.309743
C201  C     C_R   0.944797 0.511455 0.586101 -0.220577
C202  C     C_R   0.621624 0.500376 0.000042 0.860230
C203  C     C_R   0.511873 0.944289 0.586067 -0.220549
C204  C     C_R   0.056375 0.488512 0.586002 -0.220210
C205  C     C_R   0.487841 0.055644 0.586003 -0.220369
C206  C     C_R   0.444791 0.012397 0.086024 -0.220745
C207  C     C_R   0.012830 0.444483 0.086058 -0.221311
C208  C     C_R   0.555964 0.987549 0.086039 -0.220308
C209  C     C_R   0.986937 0.555415 0.086002 -0.219899
C210  C     C_R   0.000098 0.499998 0.547049 0.872257
C211  C     C_R   0.499993 0.999986 0.547045 0.874757
C212  C     C_R   0.500087 0.000003 0.047044 0.874864
C213  C     C_R   0.500409 0.621634 0.000012 0.860895
C214  C     C_R   0.999995 0.499985 0.047044 0.872895
C215  C     C_R   0.999939 0.378392 0.500179 0.873376
C216  C     C_R   0.621643 0.000023 0.500073 0.877196
C217  C     C_R   0.000064 0.621606 0.500190 0.873397
C218  C     C_R   0.378358 0.999976 0.500110 0.877161
C219  C     C_R   0.499989 0.878355 0.000021 0.877207
C220  C     C_R   0.121593 0.499967 0.000153 0.872605
C221  C     C_R   0.500003 0.121660 0.000030 0.876725
C222  C     C_R   0.878351 0.500005 0.000040 0.878375
C223  C     C_R   0.999912 0.500002 0.452917 0.866503
C224  C     C_R   0.378327 0.499347 0.999927 0.852861
C225  C     C_R   0.500007 0.000015 0.452917 0.871382
C226  C     C_R   0.499907 0.000027 0.952918 0.870992
C227  C     C_R   0.000395 0.500000 0.952922 0.869591
C228  C     C_R   0.500080 0.000040 0.426604 -0.045382
C229  C     C_R   0.999708 0.500029 0.426606 -0.045713
C230  C     C_R   0.001910 0.499906 0.926625 -0.044345
C231  C     C_R   0.499673 0.000142 0.926608 -0.044493
C232  C     C_R   0.042473 0.542034 0.737277 0.044580
C233  C     C_R   0.541653 0.039906 0.737320 0.044627
C234  C     C_R   0.964945 0.455750 0.737331 0.044615
C235  C     C_R   0.500329 0.378381 0.000024 0.854177
C236  C     C_R   0.456696 0.960932 0.737230 0.044631
C237  C     C_R   0.540613 0.041871 0.237314 0.044593
C238  C     C_R   0.040795 0.540754 0.237331 0.044545
C239  C     C_R   0.460887 0.957620 0.237231 0.044583
C240  C     C_R   0.957867 0.459659 0.237239 0.044549
C241  C     C_R   0.003416 0.499027 0.724721 0.071597
C242  C     C_R   0.499241 0.000357 0.724693 0.071603
C243  C     C_R   0.500777 0.999727 0.224690 0.071518
C244  C     C_R   0.999385 0.500166 0.224702 0.071544
C245  C     C_R   0.076668 0.586867 0.723875 -0.215220
C246  C     C_3   0.940360 0.271381 0.496117 -0.190001
C247  C     C_R   0.585905 0.075010 0.723995 -0.215267
C248  C     C_R   0.930191 0.411149 0.723964 -0.215230
C249  C     C_R   0.412590 0.925694 0.723797 -0.215315
C250  C     C_R   0.576214 0.085709 0.223969 -0.215571
C251  C     C_R   0.084166 0.576947 0.224008 -0.215671
C252  C     C_R   0.425383 0.913710 0.223820 -0.215594
C253  C     C_R   0.914615 0.423377 0.223810 -0.215664
C254  C     C_R   0.074607 0.587597 0.698982 -0.138692
C255  C     C_R   0.586544 0.073404 0.699103 -0.138685
C256  C     C_R   0.931029 0.410995 0.699066 -0.138631
H1    H     H_    0.378460 0.899033 0.310215 0.188846
H2    H     H_    0.789016 0.911961 0.475978 0.140137
H3    H     H_    0.289357 0.989379 0.458973 0.130295
H4    H     H_    0.411571 0.789002 0.023961 0.143187
H5    H     H_    0.209289 0.393990 0.990577 0.140310
H6    H     H_    0.490808 0.210542 0.958770 0.129795
H7    H     H_    0.789155 0.462616 0.961252 0.134036
H8    H     H_    0.958033 0.218756 0.404192 0.260888
H9    H     H_    0.877763 0.209545 0.414178 0.253439
H10   H     H_    0.903983 0.283700 0.402142 0.270065
H11   H     H_    0.897327 0.290078 0.446376 0.227626
H12   H     H_    0.977506 0.297287 0.436495 0.226963
H13   H     H_    0.071195 0.789528 0.531521 0.149573
H14   H     H_    0.993686 0.181487 0.445386 0.219262
H15   H     H_    0.914387 0.177416 0.456649 0.205894
H16   H     H_    0.798961 0.244092 0.474830 0.254821
H17   H     H_    0.793915 0.208568 0.445374 0.266844
H18   H     H_    0.727910 0.251037 0.457364 0.254467
H19   H     H_    0.710376 0.135953 0.460119 0.227474
H20   H     H_    0.714662 0.171527 0.489436 0.224322
H21   H     H_    0.827000 0.137521 0.493458 0.191438
H22   H     H_    0.823724 0.102957 0.463909 0.209124
H23   H     H_    0.040492 0.781421 0.404219 0.260870
H24   H     H_    0.210546 0.088153 0.476168 0.140108
H25   H     H_    0.120919 0.790581 0.414210 0.253388
H26   H     H_    0.094484 0.716459 0.402184 0.270205
H27   H     H_    0.101821 0.710011 0.446420 0.227674
H28   H     H_    0.021489 0.702834 0.436534 0.226967
H29   H     H_    0.005463 0.818619 0.445403 0.219220
H30   H     H_    0.084938 0.822663 0.456669 0.206035
H31   H     H_    0.200665 0.756008 0.474906 0.254852
H32   H     H_    0.205163 0.791690 0.445461 0.266776
H33   H     H_    0.271402 0.749183 0.457414 0.254499
H34   H     H_    0.288944 0.864257 0.460205 0.227430
H35   H     H_    0.510664 0.711122 0.041338 0.160058
H36   H     H_    0.285196 0.828528 0.489511 0.224362
H37   H     H_    0.172922 0.862476 0.493581 0.191409
H38   H     H_    0.175649 0.897183 0.464041 0.209313
H39   H     H_    0.289578 0.698175 0.946644 0.264734
H40   H     H_    0.256375 0.697015 0.976521 0.257434
H41   H     H_    0.247152 0.765412 0.957731 0.253468
H42   H     H_    0.328929 0.783653 0.988848 0.224854
H43   H     H_    0.361982 0.785382 0.959089 0.227974
H44   H     H_    0.398340 0.674078 0.963926 0.215656
H45   H     H_    0.364568 0.671494 0.993523 0.187283
H46   H     H_    0.289631 0.424374 0.029816 0.145462
H47   H     H_    0.281717 0.469093 0.903440 0.266097
H48   H     H_    0.288396 0.387700 0.912514 0.253729
H49   H     H_    0.215254 0.417039 0.900564 0.255797
H50   H     H_    0.208579 0.406206 0.944716 0.223658
H51   H     H_    0.202752 0.487337 0.935748 0.229101
H52   H     H_    0.318057 0.501895 0.945215 0.218035
H53   H     H_    0.322062 0.421102 0.955007 0.206783
H54   H     H_    0.257099 0.300084 0.973297 0.256001
H55   H     H_    0.294320 0.299095 0.944135 0.264839
H56   H     H_    0.251419 0.231354 0.954542 0.252607
H57   H     H_    0.588808 0.289573 0.976526 0.146781
H58   H     H_    0.366146 0.213543 0.958178 0.223455
H59   H     H_    0.329149 0.214723 0.987244 0.224128
H60   H     H_    0.362805 0.326814 0.992972 0.191185
H61   H     H_    0.399037 0.326261 0.963750 0.210494
H62   H     H_    0.701141 0.247599 0.999851 0.258548
H63   H     H_    0.703197 0.261836 0.967796 0.261848
H64   H     H_    0.770678 0.229170 0.982890 0.252777
H65   H     H_    0.787384 0.342171 0.973905 0.227552
H66   H     H_    0.785932 0.327714 0.005782 0.225750
H67   H     H_    0.673317 0.362893 0.007310 0.199589
H68   H     H_    0.710570 0.569734 0.968357 0.147069
H69   H     H_    0.674495 0.377074 0.975385 0.204704
H70   H     H_    0.521619 0.900854 0.423338 0.162891
H71   H     H_    0.099175 0.479949 0.423297 0.162463
H72   H     H_    0.478582 0.099232 0.423242 0.162833
H73   H     H_    0.900379 0.376576 0.310283 0.188347
H74   H     H_    0.900192 0.520118 0.423281 0.162411
H75   H     H_    0.027788 0.401692 0.923696 0.161388
H76   H     H_    0.598587 0.977582 0.923273 0.163193
H77   H     H_    0.976931 0.598173 0.922964 0.162485
H78   H     H_    0.400700 0.022767 0.923323 0.161600
H79   H     H_    0.104488 0.623262 0.732080 0.143137
H80   H     H_    0.621920 0.103220 0.732263 0.143233
H81   H     H_    0.902814 0.374529 0.732192 0.143168
H82   H     H_    0.376492 0.897557 0.731978 0.143143
H83   H     H_    0.604703 0.121513 0.232221 0.143027
H84   H     H_    0.622478 0.100871 0.310510 0.188831
H85   H     H_    0.119477 0.606024 0.232283 0.143070
H86   H     H_    0.396899 0.877898 0.232021 0.143074
H87   H     H_    0.879238 0.394346 0.231997 0.143033
H88   H     H_    0.101694 0.622882 0.689568 0.189544
H89   H     H_    0.621363 0.101196 0.689746 0.189554
H90   H     H_    0.903522 0.375895 0.689680 0.189589
H91   H     H_    0.377512 0.899160 0.689459 0.189524
H92   H     H_    0.602924 0.120722 0.189699 0.189441
H93   H     H_    0.118974 0.604006 0.189759 0.189511
H94   H     H_    0.398782 0.878628 0.189502 0.189503
H95   H     H_    0.097859 0.624143 0.310465 0.188365
H96   H     H_    0.880112 0.396091 0.189472 0.189441
H97   H     H_    0.522262 0.901426 0.379389 0.145782
H98   H     H_    0.098321 0.479606 0.379350 0.145447
H99   H     H_    0.478233 0.098701 0.379286 0.145846
H100  H     H_    0.900427 0.520717 0.379330 0.145549
H101  H     H_    0.030492 0.401824 0.879757 0.144473
H102  H     H_    0.597654 0.977353 0.879318 0.146118
H103  H     H_    0.978794 0.597213 0.878992 0.145721
H104  H     H_    0.400867 0.023492 0.879366 0.145759
H105  H     H_    0.902286 0.521142 0.620744 0.146066
H106  H     H_    0.885837 0.394198 0.810498 0.189481
H107  H     H_    0.521908 0.901371 0.620688 0.146167
H108  H     H_    0.099915 0.478804 0.620550 0.145922
H109  H     H_    0.477540 0.098569 0.620566 0.146069
H110  H     H_    0.402181 0.022803 0.120609 0.145981
H111  H     H_    0.023666 0.401729 0.120672 0.146494
H112  H     H_    0.599038 0.976962 0.120638 0.146131
H113  H     H_    0.975880 0.598134 0.120567 0.146409
H114  H     H_    0.901097 0.520692 0.576778 0.163035
H115  H     H_    0.521585 0.900818 0.576730 0.162354
H116  H     H_    0.099813 0.479258 0.576607 0.163158
H117  H     H_    0.396863 0.879603 0.810283 0.189236
H118  H     H_    0.478192 0.099117 0.576616 0.162401
H119  H     H_    0.401331 0.022421 0.076655 0.162046
H120  H     H_    0.023279 0.401196 0.076713 0.162794
H121  H     H_    0.599293 0.977563 0.076681 0.162249
H122  H     H_    0.976540 0.598714 0.076614 0.162742
H123  H     H_    0.377852 0.897086 0.267696 0.142896
H124  H     H_    0.898597 0.375763 0.267755 0.142834
H125  H     H_    0.623426 0.102569 0.267990 0.142867
H126  H     H_    0.099765 0.624870 0.267941 0.142869
H127  H     H_    0.884500 0.392435 0.767995 0.143151
H128  H     H_    0.123959 0.602943 0.810320 0.189055
H129  H     H_    0.395113 0.878752 0.767762 0.143075
H130  H     H_    0.124214 0.604750 0.767796 0.143003
H131  H     H_    0.602866 0.122414 0.767935 0.143195
H132  H     H_    0.036598 0.288429 0.539035 0.136195
H133  H     H_    0.710931 0.901335 0.517216 0.147942
H134  H     H_    0.964022 0.711448 0.539064 0.136204
H135  H     H_    0.289379 0.098566 0.517374 0.147902
H136  H     H_    0.598564 0.789580 0.017439 0.147899
H137  H     H_    0.211704 0.530158 0.039737 0.138134
H138  H     H_    0.597895 0.210659 0.017904 0.146887
H139  H     H_    0.600977 0.121720 0.810452 0.189444
H140  H     H_    0.789254 0.607023 0.007170 0.150997
H141  H     H_    0.105476 0.209895 0.507096 0.132430
H142  H     H_    0.789356 0.989201 0.541295 0.160371
H143  H     H_    0.894635 0.790080 0.507128 0.132490
H144  H     H_    0.211340 0.010557 0.541451 0.160226
H145  H     H_    0.588729 0.710930 0.976248 0.139921
H146  H     H_    0.289319 0.604212 0.009792 0.130238
H147  H     H_    0.509366 0.288845 0.041409 0.160250
H148  H     H_    0.711330 0.537894 0.038996 0.156473
H149  H     H_    0.068990 0.290136 0.468437 0.134334
H150  H     H_    0.929302 0.210384 0.531493 0.149682
H151  H     H_    0.710996 0.088210 0.524277 0.142594
H152  H     H_    0.930505 0.709957 0.468466 0.134351
H153  H     H_    0.289466 0.911653 0.524369 0.142643
H154  H     H_    0.489701 0.789624 0.958764 0.131160
H155  H     H_    0.209896 0.574154 0.969991 0.139576
H156  H     H_    0.410828 0.210670 0.023650 0.139845
H157  H     H_    0.789648 0.430741 0.032012 0.139251
H158  H     H_    0.892573 0.290430 0.493011 0.142276
H159  H     H_    0.709868 0.010835 0.458853 0.130412
H160  H     H_    0.107314 0.709589 0.493039 0.142275
N1    N     N_R   0.500316 0.000056 0.350666 -0.353810
N2    N     N_R   0.999200 0.500290 0.350677 -0.353385
N3    N     N_R   0.005019 0.498949 0.850711 -0.354132
N4    N     N_R   0.499032 0.000586 0.850671 -0.354012
N5    N     N_R   0.001566 0.499888 0.649320 -0.354139
N6    N     N_R   0.499643 0.999999 0.649299 -0.354054
N7    N     N_R   0.500773 0.999753 0.149296 -0.354044
N8    N     N_R   0.999707 0.499938 0.149304 -0.353934
O1    O     O_R   0.093040 0.000030 0.479890 -0.628303
O2    O     O_R   0.999940 0.093010 0.520110 -0.616833
O3    O     O_R   0.906990 0.999940 0.520110 -0.624637
O4    O     O_R   0.000060 0.906990 0.520110 -0.616786
O5    O     O_R   0.593010 0.500060 0.020110 -0.624673
O6    O     O_R   0.499940 0.593010 0.020110 -0.624108
O7    O     O_R   0.406990 0.499940 0.020110 -0.615924
O8    O     O_R   0.500060 0.406990 0.020110 -0.625277
O9    O     O_2   0.586479 0.069276 0.351111 -0.567698
O10   O     O_2   0.066797 0.587732 0.351082 -0.572752
O11   O     O_2   0.414136 0.930856 0.350897 -0.567589
O12   O     O_R   0.999970 0.093040 0.479890 -0.637717
O13   O     O_2   0.931540 0.412896 0.350960 -0.572744
O14   O     O_2   0.089096 0.570665 0.851014 -0.567550
O15   O     O_2   0.569026 0.086121 0.851066 -0.565815
O16   O     O_2   0.921001 0.427144 0.851097 -0.565284
O17   O     O_2   0.428961 0.915114 0.850952 -0.566611
O18   O     O_R   0.947490 0.500060 0.535600 -0.623735
O19   O     O_R   0.499940 0.947490 0.535600 -0.625300
O20   O     O_R   0.052510 0.499940 0.535600 -0.624000
O21   O     O_R   0.500060 0.052510 0.535600 -0.625319
O22   O     O_R   0.447490 0.000060 0.035600 -0.625206
O23   O     O_R   0.906960 0.999970 0.479890 -0.628280
O24   O     O_R   0.999940 0.447490 0.035600 -0.624519
O25   O     O_R   0.552510 0.999940 0.035600 -0.625200
O26   O     O_R   0.000060 0.552510 0.035600 -0.624172
O27   O     O_R   0.947490 0.407010 0.499980 -0.626291
O28   O     O_R   0.592990 0.947490 0.499980 -0.625512
O29   O     O_R   0.052510 0.592990 0.499980 -0.626297
O30   O     O_R   0.407010 0.052510 0.499980 -0.625487
O31   O     O_R   0.447490 0.907010 0.999980 -0.628339
O32   O     O_R   0.092990 0.447490 0.999980 -0.630200
O33   O     O_R   0.552510 0.092990 0.999980 -0.620945
O34   O     O_R   0.000030 0.906960 0.479890 -0.637838
O35   O     O_R   0.907010 0.552510 0.999980 -0.626722
O36   O     O_R   0.052520 0.407020 0.499960 -0.624537
O37   O     O_R   0.592980 0.052520 0.499960 -0.629070
O38   O     O_R   0.947480 0.592980 0.499960 -0.624528
O39   O     O_R   0.407020 0.947480 0.499960 -0.629073
O40   O     O_R   0.552520 0.907020 0.999960 -0.625990
O41   O     O_R   0.092980 0.552520 0.999960 -0.620993
O42   O     O_R   0.447480 0.092980 0.999960 -0.632656
O43   O     O_R   0.907020 0.447480 0.999960 -0.628336
O44   O     O_R   0.947480 0.500000 0.464360 -0.625872
O45   O     O_R   0.593040 0.500030 0.979890 -0.625018
O46   O     O_R   0.500000 0.947480 0.464360 -0.624596
O47   O     O_R   0.052520 0.500000 0.464360 -0.625784
O48   O     O_R   0.500000 0.052520 0.464360 -0.624620
O49   O     O_R   0.447480 0.000000 0.964360 -0.626412
O50   O     O_R   1.000000 0.447480 0.964360 -0.625677
O51   O     O_R   0.552520 0.000000 0.964360 -0.622244
O52   O     O_R   1.000000 0.552520 0.964360 -0.623773
O53   O     O_2   0.069578 0.586998 0.648943 -0.564924
O54   O     O_2   0.585756 0.069282 0.649066 -0.565327
O55   O     O_2   0.933541 0.412783 0.649018 -0.565011
O56   O     O_R   0.499970 0.593040 0.979890 -0.627342
O57   O     O_2   0.413554 0.930690 0.648856 -0.565419
O58   O     O_2   0.570825 0.085242 0.149025 -0.565482
O59   O     O_2   0.084189 0.571210 0.149079 -0.565417
O60   O     O_2   0.430780 0.914216 0.148894 -0.565373
O61   O     O_2   0.915244 0.428645 0.148870 -0.565759
O62   O     O_R   0.406960 0.499970 0.979890 -0.639656
O63   O     O_R   0.500030 0.406960 0.979890 -0.629409
O64   O     O_R   0.093010 0.000060 0.520110 -0.624555
Zn1   Zn    Zn3+2 1.000000 0.000000 0.473150 0.926555
Zn2   Zn    Zn3+2 0.999970 0.429870 0.999980 0.942889
Zn3   Zn    Zn3+2 0.570130 0.999970 0.999980 0.952492
Zn4   Zn    Zn3+2 0.000030 0.570130 0.999980 0.951517
Zn5   Zn    Zn3+2 0.500000 0.500000 0.973150 0.935208
Zn6   Zn    Zn3+2 1.000000 0.000000 0.526860 0.956216
Zn7   Zn    Zn3+2 0.500000 0.500000 0.026860 0.953137
Zn8   Zn    Zn3+2 0.929870 0.500030 0.499980 0.947804
Zn9   Zn    Zn3+2 0.499970 0.929870 0.499980 0.945419
Zn10  Zn    Zn3+2 0.070130 0.499970 0.499980 0.947744
Zn11  Zn    Zn3+2 0.500030 0.070130 0.499980 0.945416
Zn12  Zn    Zn3+2 0.429870 0.000030 0.999980 0.940695

loop_
_geom_bond_atom_site_label_1
_geom_bond_atom_site_label_2
_ccdc_geom_bond_type
C59   C208  A    
C61   C70   A    
O22   Zn12  S    
C177  C191  S    
C111  H147  S    
C53   H107  S    
C186  C193  A    
O20   Zn10  S    
C103  C206  A    
C41   C61   A    
C74   C83   A    
O19   Zn9   S    
C46   C129  S    
C59   H112  S    
C111  C139  S    
C26   C230  A    
C172  H55   S    
C166  H53   S    
C186  N3    S    
C35   C124  S    
C204  H116  S    
C169  H48   S    
C224  O62   A    
C76   H128  S    
C85   C96   A    
O33   Zn3   S    
C67   H130  S    
C190  H99   S    
C90   C176  S    
C240  C244  A    
C225  C228  S    
C52   C201  A    
C35   C145  S    
C2    C90   S    
C131  C140  S    
C134  C143  S    
C106  C133  S    
C77   H139  S    
C30   N5    A    
C210  O20   A    
C137  H154  S    
C24   C127  S    
C84   C91   A    
C90   C116  S    
C144  C160  S    
C117  C126  S    
C189  H98   S    
C227  O50   A    
C19   C243  A    
C119  C128  S    
C147  C181  S    
C158  H28   S    
C17   C241  A    
C183  C202  S    
C1    O64   A    
C93   N2    A    
C161  C162  S    
C165  H40   S    
C98   O16   S    
C57   H6    S    
C115  C123  S    
C232  C241  A    
C79   C246  S    
O27   Zn8   S    
C110  C138  S    
C161  H36   S    
C45   C234  A    
O50   Zn2   S    
C42   C240  A    
C43   C232  A    
C120  H137  S    
C171  H58   S    
C152  H10   S    
C111  C182  S    
C118  H135  S    
C153  H22   S    
C68   C131  S    
C102  C203  A    
C100  C201  A    
C57   C130  S    
C16   C20   A    
C25   C229  A    
C145  C179  S    
C98   N3    A    
C48   C87   A    
C37   N7    A    
C38   N8    A    
C7    H96   S    
O40   Zn3   S    
C154  C155  S    
C169  H49   S    
C144  C178  S    
O12   Zn1   S    
C158  C159  S    
C90   H2    S    
C28   C230  A    
C185  C192  A    
C205  H118  S    
C175  H64   S    
C141  C168  S    
C13   H160  S    
O52   Zn4   S    
C130  C221  S    
C112  O2    A    
C201  H114  S    
O26   Zn4   S    
C25   C192  A    
C78   C94   A    
C191  O34   A    
O23   Zn1   S    
C223  O47   A    
C216  O28   A    
C8    C17   A    
O43   Zn2   S    
C66   H129  S    
C120  C135  S    
C156  C158  S    
O41   Zn4   S    
O42   Zn12  S    
C80   C88   A    
C32   N5    A    
C60   H113  S    
C45   C50   A    
C210  O18   A    
C131  C222  S    
C198  N6    S    
C203  H115  S    
C60   C200  A    
C151  H12   S    
C126  C134  S    
C95   N2    A    
C239  C243  A    
C76   C85   A    
C27   H76   S    
C127  C218  S    
C78   C87   A    
C11   C18   A    
C212  O22   A    
C79   C115  S    
C123  C132  S    
C31   O54   S    
C159  H23   S    
C69   C77   A    
C121  C130  S    
C162  H33   S    
C134  H152  S    
C28   C195  A    
C155  H16   S    
C222  O43   A    
C167  C169  S    
C226  O51   A    
C133  C142  S    
C53   C203  A    
C63   H125  S    
O46   Zn9   S    
C180  O3    A    
O32   Zn2   S    
C129  C220  S    
O45   Zn5   S    
C14   C36   A    
O7    Zn7   S    
C75   C84   A    
C170  C171  S    
C40   C49   A    
C172  H54   S    
C32   O55   S    
C255  H89   S    
C104  C207  A    
C248  H81   S    
C86   C97   A    
C109  C179  S    
C174  C175  S    
C15   C37   A    
C40   C238  A    
C81   C92   A    
C184  N1    S    
C70   H1    S    
C47   C51   A    
C110  C181  S    
C96   O14   S    
C164  H43   S    
C83   C98   A    
C75   H117  S    
C167  H51   S    
C64   C73   A    
C106  H142  S    
C68   C149  S    
C114  C140  S    
C30   O53   S    
O56   Zn5   S    
C42   C62   A    
C193  H101  S    
C212  O25   A    
C51   C91   A    
C175  H62   S    
O2    Zn6   S    
C114  H148  S    
C107  C177  S    
O64   Zn6   S    
C9    C255  A    
C139  H156  S    
C155  H18   S    
C1    O1    A    
C156  H29   S    
C141  C150  S    
C174  H66   S    
C225  O46   A    
C202  O45   A    
C83   C89   A    
C139  C148  S    
C120  C129  S    
C215  O36   A    
C11   C33   A    
C3    C11   A    
C233  C247  A    
C145  C163  S    
C101  H13   S    
C211  O21   A    
C65   C74   A    
C4    H92   S    
C173  H67   S    
C1    C178  S    
C33   N6    A    
C133  H151  S    
C171  H59   S    
C215  O27   A    
C27   C194  A    
C249  H82   S    
C80   C95   A    
C154  H20   S    
C113  H24   S    
C191  O4    A    
C33   O57   S    
C116  C125  S    
C45   C65   A    
C2    C142  S    
C184  C190  A    
C237  C250  A    
C4    C12   A    
C118  C127  S    
C135  C181  S    
C135  H46   S    
C122  C131  S    
C39   C237  A    
C21   C188  A    
C149  C183  S    
C188  H97   S    
C226  O49   A    
C132  C141  S    
C222  O35   A    
C239  C252  A    
C35   H4    S    
C105  C115  S    
C119  H136  S    
C2    H159  S    
C43   C50   A    
C185  C189  A    
C116  H133  S    
C224  O7    A    
C54   H108  S    
C172  H56   S    
C105  C168  S    
O28   Zn9   S    
O63   Zn5   S    
C169  H47   S    
O35   Zn4   S    
C160  H37   S    
C105  H141  S    
C253  H87   S    
C152  H8    S    
C82   C88   A    
C223  O44   A    
C56   H110  S    
C62   C71   A    
C143  C177  S    
C122  H140  S    
C2    C125  S    
C223  C229  S    
C9    C18   A    
C176  C180  S    
O8    Zn7   S    
C56   C206  A    
C43   C67   A    
C106  C176  S    
C121  C146  S    
O38   Zn8   S    
C187  N4    S    
C13   C101  S    
C140  C149  S    
C23   C190  A    
C185  N2    S    
O4    Zn6   S    
C225  O48   A    
C121  H138  S    
C123  C215  S    
C187  C196  A    
C74   H106  S    
C221  O33   A    
C31   N6    A    
C36   N8    A    
C209  H122  S    
C219  O31   A    
C206  H119  S    
C165  H39   S    
C199  N7    S    
C46   H5    S    
C15   C19   A    
C200  N8    S    
C211  O19   A    
C54   C197  A    
O1    Zn1   S    
C10   C256  A    
C137  C145  S    
C164  C165  S    
C25   H74   S    
C86   C91   A    
C251  H85   S    
C140  H157  S    
C111  C121  S    
C125  C133  S    
C34   N7    A    
C22   H71   S    
C202  O5    A    
C153  H21   S    
C124  C179  S    
C234  C248  A    
C46   C135  S    
C109  H145  S    
C5    H93   S    
C151  C152  S    
C60   C209  A    
C47   C66   A    
C72   C81   A    
C96   N3    A    
C155  H17   S    
C21   H70   S    
C162  H31   S    
C18   C242  A    
O48   Zn11  S    
C113  C178  S    
C82   C93   A    
C57   C146  S    
C49   C88   A    
C150  H14   S    
C130  C139  S    
O31   Zn12  S    
C105  C132  S    
C175  H63   S    
C55   C205  A    
O29   Zn10  S    
C246  H158  S    
C166  H52   S    
C237  C243  A    
C99   N4    A    
O51   Zn3   S    
C29   C231  A    
C146  C182  S    
C142  C176  S    
C173  C174  S    
C106  C116  S    
C92   N1    A    
C218  O30   A    
C14   C20   A    
C217  O29   A    
C50   C89   A    
C214  O24   A    
C46   C147  S    
C94   N1    A    
C179  C213  S    
C248  C256  A    
C220  O41   A    
C108  C178  S    
C44   C69   A    
C252  H86   S    
C127  C136  S    
C22   C189  A    
C5    C14   A    
C81   C87   A    
C254  H88   S    
C182  C235  S    
C13   C126  S    
C65   H127  S    
C151  H11   S    
C7    C16   A    
C79   H150  S    
C187  C194  A    
C213  O56   A    
C12   C34   A    
C68   C157  S    
C29   C196  A    
C73   C82   A    
C109  C119  S    
C47   C236  A    
C41   C239  A    
C20   C244  A    
C21   C228  A    
C85   C89   A    
C84   C99   A    
C29   H78   S    
C6    H94   S    
C40   C64   A    
C150  H15   S    
C123  C246  S    
O36   Zn10  S    
O24   Zn2   S    
C247  H80   S    
C235  O63   A    
C152  H9    S    
C107  C134  S    
C245  C254  A    
C146  H57   S    
C64   H126  S    
C216  O37   A    
C101  C117  S    
C219  O40   A    
C136  C144  S    
O6    Zn7   S    
C160  C161  S    
C165  H41   S    
C163  H44   S    
C100  C204  A    
C22   C229  A    
C24   C144  S    
C54   C204  A    
C66   C75   A    
C12   C19   A    
C100  C210  S    
C159  H25   S    
C122  C157  S    
C97   O15   S    
C13   C143  S    
C23   C228  A    
C35   C128  S    
C102  C211  S    
C101  C177  S    
C4    C250  A    
C63   C72   A    
C148  C182  S    
C114  C183  S    
C57   C148  S    
C71   H73   S    
C250  H83   S    
C95   O13   S    
C52   C197  A    
C157  C183  S    
C44   C233  A    
C26   C193  A    
C107  C117  S    
C196  H104  S    
C39   C48   A    
C247  C255  A    
C167  H50   S    
C171  C172  S    
C256  H90   S    
C238  C251  A    
C70   C78   A    
C5    C251  A    
C163  C164  S    
C108  H144  S    
C236  C249  A    
C69   H131  S    
C97   N4    A    
C159  H26   S    
C156  H30   S    
C26   H75   S    
C119  C124  S    
C28   H77   S    
C24   H3    S    
C58   C200  A    
C240  C253  A    
C72   H84   S    
C53   C198  A    
C52   H105  S    
C108  C136  S    
C36   O59   S    
C125  C216  S    
C55   C198  A    
C3    C249  A    
C73   H95   S    
C10   C17   A    
C107  H143  S    
C226  C231  S    
C112  C168  S    
C238  C244  A    
C192  H100  S    
C109  C137  S    
C232  C245  A    
C236  C242  A    
C6    C15   A    
C23   H72   S    
C129  C138  S    
C59   C199  A    
C180  O23   A    
O21   Zn11  S    
C148  C170  S    
C79   C168  S    
C194  H102  S    
C164  H42   S    
C217  O38   A    
C126  C217  S    
C61   H123  S    
C56   C199  A    
C58   H111  S    
C213  O6    A    
C24   C113  S    
C99   O17   S    
C7    C253  A    
C181  C224  S    
C136  H153  S    
C104  C209  A    
C71   C80   A    
C94   O11   S    
C92   O9    S    
C108  C118  S    
C186  C195  A    
C103  C208  A    
C110  C120  S    
C42   C49   A    
C110  H146  S    
C184  C188  A    
C114  C122  S    
C138  H155  S    
C124  H35   S    
C128  C137  S    
C147  C166  S    
C160  H38   S    
C233  C242  A    
C138  C147  S    
C93   O10   S    
C62   H124  S    
C141  C246  S    
C214  O26   A    
C128  C219  S    
O44   Zn8   S    
O18   Zn8   S    
C44   C51   A    
C27   C231  A    
C34   O58   S    
C77   C86   A    
C208  H121  S    
C166  C167  S    
C197  N5    S    
C173  H69   S    
C227  O52   A    
C174  H65   S    
C3    H91   S    
O39   Zn9   S    
C170  H60   S    
C221  O42   A    
C158  H27   S    
O47   Zn10  S    
C8    C30   A    
C220  O32   A    
C37   O60   S    
C245  H79   S    
C103  C212  S    
O5    Zn7   S    
O3    Zn6   S    
O30   Zn11  S    
C157  H68   S    
C39   C63   A    
C150  C151  S    
C6    C252  A    
C112  O12   A    
C207  H120  S    
C161  H34   S    
O49   Zn12  S    
C104  C214  S    
C55   H109  S    
O34   Zn1   S    
C132  H149  S    
C170  H61   S    
C143  C156  S    
C58   C207  A    
C117  H134  S    
C8    C254  A    
C41   C48   A    
C38   O61   S    
C149  C173  S    
C115  H132  S    
C142  C153  S    
C154  H19   S    
C102  C205  A    
C235  O8    A    
C9    C31   A    
C234  C241  A    
C195  H103  S    
C113  C118  S    
C163  H45   S    
C10   C32   A    
C227  C230  S    
O62   Zn5   S    
C67   C76   A    
C153  C154  S    
O37   Zn11  S    
O25   Zn3   S    
C68   H7    S    
C218  O39   A    
C16   C38   A    
C162  H32   S    
