data_mof_unit_64461.cif
_audit_creation_date              2012-10-26T17:56:02-0400
_audit_creation_method            fapswitch 2.2
_symmetry_space_group_name_H-M    P1
_symmetry_Int_Tables_number       1
_space_group_crystal_system       triclinic
_cell_length_a                    21.681584
_cell_length_b                    21.681523
_cell_length_c                    30.404481
_cell_angle_alpha                 89.985266
_cell_angle_beta                  89.991858
_cell_angle_gamma                 90.002515
_cell_volume                      14292.8346116

loop_
_atom_site_label
_atom_site_type_symbol
_atom_type_description
_atom_site_fract_x
_atom_site_fract_y
_atom_site_fract_z
_atom_type_partial_charge
C1    C     C_R   0.118914 0.500001 0.500001 0.551666
C2    C     C_R   0.380974 0.499999 0.500003 0.547993
C3    C     C_R   0.055601 0.505886 0.843138 -0.146489
C4    C     C_R   0.514578 0.053711 0.156714 -0.138556
C5    C     C_R   0.944490 0.506580 0.156859 -0.146357
C6    C     C_R   0.487131 0.945406 0.156556 -0.151331
C7    C     C_R   0.055517 0.493461 0.156847 -0.146858
C8    C     C_R   0.999982 0.500007 0.366408 -0.073960
C9    C     C_R   0.500106 0.999869 0.366565 -0.080282
C10   C     C_R   0.000009 0.499982 0.633588 -0.073800
C11   C     C_R   0.499991 0.000011 0.633359 -0.081173
C12   C     C_R   0.499997 0.000019 0.866642 -0.081172
C13   C     C_R   0.500002 0.619027 0.499995 0.548018
C14   C     C_R   0.000013 0.499983 0.866411 -0.073873
C15   C     C_R   0.500309 0.999796 0.133437 -0.077487
C16   C     C_R   0.999999 0.500021 0.133587 -0.073681
C17   C     C_R   0.999982 0.499991 0.274156 0.125515
C18   C     C_R   0.500501 0.999132 0.274212 0.078559
C19   C     C_R   0.000028 0.499968 0.725836 0.125627
C20   C     C_R   0.499987 0.000035 0.725746 0.054708
C21   C     C_R   0.499984 0.000030 0.774254 0.054717
C22   C     C_R   0.000028 0.499960 0.774162 0.125597
C23   C     C_R   0.500885 0.999287 0.225756 0.078545
C24   C     C_R   0.619026 0.499998 0.499997 0.547982
C25   C     C_R   0.000011 0.500017 0.225832 0.125622
C26   C     C_3   0.039310 0.650361 0.282587 -0.016379
C27   C     C_3   0.043805 0.698261 0.246187 -0.367553
C28   C     C_3   0.644824 0.969111 0.273191 -0.013808
C29   C     C_3   0.699064 0.979156 0.242318 -0.361601
C30   C     C_3   0.961795 0.348710 0.283396 -0.016532
C31   C     C_3   0.956849 0.300880 0.246996 -0.367429
C32   C     C_3   0.357039 0.020981 0.265700 -0.015524
C33   C     C_3   0.293945 0.000610 0.249427 -0.357845
C34   C     C_3   0.036710 0.348487 0.716831 -0.016453
C35   C     C_R   0.000002 0.880974 0.000005 0.547928
C36   C     C_3   0.040949 0.300560 0.753227 -0.367631
C37   C     C_3   0.643428 0.019636 0.733563 -0.010678
C38   C     C_3   0.706109 0.998957 0.750440 -0.357053
C39   C     C_3   0.963509 0.651566 0.716719 -0.016473
C40   C     C_3   0.959219 0.699458 0.753118 -0.367623
C41   C     C_3   0.356539 0.980448 0.733591 -0.010664
C42   C     C_3   0.293860 0.001142 0.750469 -0.357052
C43   C     C_3   0.480443 0.856575 0.766447 -0.010687
C44   C     C_3   0.501152 0.793901 0.749581 -0.357088
C45   C     C_3   0.848845 0.537368 0.783031 -0.016472
C46   C     C_R   0.880972 0.999999 0.000003 0.547995
C47   C     C_3   0.800930 0.541660 0.746645 -0.367576
C48   C     C_3   0.519508 0.143488 0.766402 -0.010668
C49   C     C_3   0.498786 0.206162 0.749526 -0.357054
C50   C     C_3   0.151337 0.462720 0.783136 -0.016473
C51   C     C_3   0.199263 0.458381 0.746750 -0.367609
C52   C     C_3   0.480549 0.143325 0.233696 -0.014847
C53   C     C_3   0.501641 0.205980 0.250358 -0.357378
C54   C     C_3   0.848477 0.464262 0.217077 -0.016380
C55   C     C_3   0.800484 0.460616 0.253460 -0.367656
C56   C     C_3   0.516359 0.842944 0.213736 -0.016506
C57   C     C_R   0.000001 0.119026 0.999995 0.547988
C58   C     C_3   0.520250 0.796474 0.251097 -0.365094
C59   C     C_3   0.152443 0.534550 0.216308 -0.016545
C60   C     C_3   0.200360 0.538648 0.252709 -0.367712
C61   C     C_R   0.119028 0.999999 0.999997 0.547967
C62   C     C_R   0.314081 0.499997 0.500007 0.025661
C63   C     C_R   0.500009 0.685923 0.499988 0.025891
C64   C     C_R   0.685919 0.499993 0.499992 0.025640
C65   C     C_R   0.499999 0.881088 0.499999 0.551169
C66   C     C_R   0.500009 0.314076 0.500014 0.026024
C67   C     C_R   0.814074 0.999995 0.000008 0.025897
C68   C     C_R   0.000008 0.185919 0.999987 0.025662
C69   C     C_R   0.185924 0.999994 0.999992 0.026065
C70   C     C_R   0.000010 0.814081 0.000013 0.025633
C71   C     C_R   0.281985 0.538972 0.528711 -0.133837
C72   C     C_R   0.538873 0.718009 0.528772 -0.134029
C73   C     C_R   0.718003 0.461010 0.528706 -0.133853
C74   C     C_R   0.461157 0.281969 0.528814 -0.134022
C75   C     C_R   0.281993 0.461023 0.471301 -0.133873
C76   C     C_R   0.881086 0.499999 0.499999 0.551647
C77   C     C_R   0.538863 0.281994 0.471215 -0.134052
C78   C     C_R   0.718019 0.538975 0.471279 -0.133920
C79   C     C_R   0.461140 0.718026 0.471207 -0.133692
C80   C     C_R   0.781976 0.038807 0.028825 -0.133892
C81   C     C_R   0.038984 0.218002 0.028694 -0.133791
C82   C     C_R   0.218011 0.961142 0.028796 -0.134133
C83   C     C_R   0.961025 0.781977 0.028721 -0.133933
C84   C     C_R   0.781983 0.961183 0.971191 -0.134101
C85   C     C_R   0.038995 0.782002 0.971304 -0.133939
C86   C     C_R   0.218026 0.038844 0.971187 -0.134044
C87   C     C_R   0.500001 0.118912 0.500004 0.550865
C88   C     C_R   0.961029 0.218020 0.971282 -0.133839
C89   C     C_R   0.999998 0.500005 0.414858 0.558932
C90   C     C_R   0.500013 0.000021 0.414910 0.557485
C91   C     C_R   0.000002 0.499993 0.585140 0.558948
C92   C     C_R   0.499996 0.000002 0.585064 0.556828
C93   C     C_R   0.500000 0.000007 0.914936 0.557119
C94   C     C_R   0.000004 0.499997 0.914859 0.559009
C95   C     C_R   0.500005 0.999975 0.085090 0.557807
C96   C     C_R   0.999997 0.500003 0.085140 0.559024
C97   C     C_R   0.185792 0.500002 0.500003 0.026180
C98   C     C_R   0.618911 0.000001 0.000002 0.551115
C99   C     C_R   0.499999 0.814213 0.499996 0.026858
C100  C     C_R   0.814208 0.499996 0.499995 0.026169
C101  C     C_R   0.500005 0.185786 0.500009 0.027037
C102  C     C_R   0.685785 0.000000 0.000004 0.026839
C103  C     C_R   0.999999 0.314208 0.999994 0.026195
C104  C     C_R   0.314214 0.999995 0.999995 0.027125
C105  C     C_R   0.000005 0.685792 0.000007 0.026177
C106  C     C_R   0.217869 0.539734 0.528173 -0.133418
C107  C     C_R   0.539629 0.782125 0.528243 -0.133622
C108  C     C_R   0.782119 0.460252 0.528172 -0.133440
C109  C     C_R   0.999999 0.381086 0.999998 0.551754
C110  C     C_R   0.460394 0.217853 0.528278 -0.133516
C111  C     C_R   0.217877 0.460266 0.471835 -0.133459
C112  C     C_R   0.539622 0.217878 0.471745 -0.133589
C113  C     C_R   0.782135 0.539736 0.471816 -0.133500
C114  C     C_R   0.460375 0.782143 0.471745 -0.132989
C115  C     C_R   0.717859 0.039571 0.028291 -0.133565
C116  C     C_R   0.039739 0.282118 0.028162 -0.133397
C117  C     C_R   0.282127 0.960382 0.028264 -0.133754
C118  C     C_R   0.960263 0.717860 0.028183 -0.133521
C119  C     C_R   0.717867 0.960425 0.971722 -0.133686
C120  C     C_R   0.381088 0.999999 0.999998 0.551086
C121  C     C_R   0.039752 0.717885 0.971837 -0.133540
C122  C     C_R   0.282143 0.039606 0.971722 -0.133549
C123  C     C_R   0.960265 0.282136 0.971821 -0.133428
C124  C     C_R   0.995906 0.556110 0.297004 0.251160
C125  C     C_R   0.555321 0.011207 0.297457 0.254009
C126  C     C_R   0.004028 0.443855 0.297011 0.251305
C127  C     C_R   0.445575 0.986319 0.297353 0.244116
C128  C     C_R   0.995305 0.443894 0.702996 0.251199
C129  C     C_R   0.554394 0.985373 0.702433 0.244203
C130  C     C_R   0.004743 0.556050 0.702985 0.251186
C131  C     C_R   0.000001 0.618914 0.000002 0.551712
C132  C     C_R   0.445583 0.014689 0.702433 0.244183
C133  C     C_R   0.514665 0.945627 0.797571 0.244201
C134  C     C_R   0.943938 0.495428 0.797015 0.251206
C135  C     C_R   0.485307 0.054427 0.797563 0.244186
C136  C     C_R   0.056116 0.504497 0.797007 0.251244
C137  C     C_R   0.514348 0.054064 0.202628 0.239544
C138  C     C_R   0.943975 0.505218 0.202984 0.251119
C139  C     C_R   0.488780 0.944345 0.202694 0.253370
C140  C     C_R   0.056066 0.494842 0.202990 0.251238
C141  C     C_R   0.994537 0.555636 0.343124 -0.146142
C142  C     C_R   0.500001 0.380972 0.500005 0.548011
C143  C     C_R   0.554587 0.012495 0.343398 -0.143537
C144  C     C_R   0.005425 0.444368 0.343148 -0.146617
C145  C     C_R   0.445957 0.986256 0.343291 -0.136654
C146  C     C_R   0.993916 0.444415 0.656863 -0.146520
C147  C     C_R   0.553707 0.984751 0.656537 -0.138662
C148  C     C_R   0.006113 0.555541 0.656850 -0.146591
C149  C     C_R   0.446273 0.015287 0.656536 -0.138705
C150  C     C_R   0.515281 0.946311 0.843467 -0.138688
C151  C     C_R   0.944434 0.494065 0.843145 -0.146437
C152  C     C_R   0.484705 0.053733 0.843460 -0.138718
Cu1   Cu    Cu3+1 0.000000 0.438210 0.500000 0.920007
Cu2   Cu    Cu3+1 0.500000 0.500000 0.455940 0.923175
Cu3   Cu    Cu3+1 0.000000 0.000000 0.044060 0.923504
Cu4   Cu    Cu3+1 0.000000 0.000000 0.955940 0.923011
Cu5   Cu    Cu3+1 0.438210 0.000000 0.500000 0.923621
Cu6   Cu    Cu3+1 0.000000 0.561790 0.500000 0.920124
Cu7   Cu    Cu3+1 0.561790 0.000000 0.500000 0.922845
Cu8   Cu    Cu3+1 0.500000 0.938210 0.000000 0.919555
Cu9   Cu    Cu3+1 0.938210 0.500000 0.000000 0.919707
Cu10  Cu    Cu3+1 0.500000 0.061790 0.000000 0.923147
Cu11  Cu    Cu3+1 0.061790 0.500000 0.000000 0.919388
Cu12  Cu    Cu3+1 0.500000 0.500000 0.544060 0.923074
H1    H     H_    0.084167 0.625216 0.283994 0.120182
H2    H     H_    0.682016 0.990456 0.208815 0.164512
H3    H     H_    0.429803 0.193272 0.550353 0.121317
H4    H     H_    0.193314 0.429582 0.449833 0.122880
H5    H     H_    0.570211 0.193318 0.449669 0.121353
H6    H     H_    0.806708 0.570428 0.449809 0.122879
H7    H     H_    0.429773 0.806720 0.449684 0.122565
H8    H     H_    0.693286 0.070129 0.050380 0.121897
H9    H     H_    0.070425 0.306678 0.050165 0.122815
H10   H     H_    0.306691 0.929794 0.050344 0.120527
H11   H     H_    0.929570 0.693283 0.050186 0.122741
H12   H     H_    0.693300 0.929868 0.949632 0.121264
H13   H     H_    0.916559 0.373038 0.285714 0.119204
H14   H     H_    0.070443 0.693328 0.949831 0.122818
H15   H     H_    0.306719 0.070194 0.949643 0.121281
H16   H     H_    0.929577 0.306711 0.949821 0.122887
H17   H     H_    0.306538 0.569420 0.550884 0.122685
H18   H     H_    0.569239 0.693448 0.551006 0.121962
H19   H     H_    0.693442 0.430556 0.550886 0.122686
H20   H     H_    0.430801 0.306513 0.551061 0.121932
H21   H     H_    0.306551 0.430575 0.449129 0.122630
H22   H     H_    0.569218 0.306557 0.448967 0.121923
H23   H     H_    0.693469 0.569430 0.449099 0.122646
H24   H     H_    0.971114 0.324250 0.314841 0.131199
H25   H     H_    0.430775 0.693479 0.448973 0.122441
H26   H     H_    0.806525 0.069131 0.051086 0.122474
H27   H     H_    0.069434 0.193439 0.050867 0.122683
H28   H     H_    0.193452 0.930788 0.051048 0.121695
H29   H     H_    0.930569 0.806523 0.050897 0.122596
H30   H     H_    0.806538 0.930859 0.948930 0.121944
H31   H     H_    0.069450 0.806567 0.949128 0.122629
H32   H     H_    0.193479 0.069198 0.948936 0.121914
H33   H     H_    0.930579 0.193470 0.949108 0.122686
H34   H     H_    0.000555 0.274395 0.244489 0.167773
H35   H     H_    0.918523 0.268479 0.254295 0.093809
H36   H     H_    0.947605 0.323990 0.215058 0.151011
H37   H     H_    0.379262 0.048060 0.239017 0.113072
H38   H     H_    0.350224 0.050819 0.295194 0.114173
H39   H     H_    0.270042 0.973603 0.275378 0.157665
H40   H     H_    0.265605 0.041676 0.241175 0.091817
H41   H     H_    0.031612 0.674794 0.314259 0.130822
H42   H     H_    0.299021 0.971585 0.219542 0.168001
H43   H     H_    0.082143 0.372493 0.714763 0.119446
H44   H     H_    0.027533 0.324161 0.685322 0.130986
H45   H     H_    0.997027 0.274386 0.755496 0.167681
H46   H     H_    0.079108 0.267898 0.746097 0.093084
H47   H     H_    0.050049 0.323553 0.785219 0.151196
H48   H     H_    0.621202 0.047553 0.759796 0.113990
H49   H     H_    0.650867 0.048735 0.703766 0.113955
H50   H     H_    0.730013 0.971128 0.724947 0.157037
H51   H     H_    0.734798 0.039895 0.758388 0.090781
H52   H     H_    0.000522 0.725561 0.244552 0.167586
H53   H     H_    0.700371 0.970648 0.780623 0.170305
H54   H     H_    0.918030 0.627668 0.714545 0.119307
H55   H     H_    0.972895 0.675907 0.685237 0.131031
H56   H     H_    0.003187 0.725537 0.755480 0.167665
H57   H     H_    0.921162 0.732213 0.745918 0.093088
H58   H     H_    0.949932 0.676455 0.785090 0.151088
H59   H     H_    0.378756 0.952530 0.759833 0.113982
H60   H     H_    0.349096 0.951347 0.703808 0.113944
H61   H     H_    0.269964 0.028975 0.724969 0.157047
H62   H     H_    0.265162 0.960211 0.758438 0.090748
H63   H     H_    0.082985 0.729908 0.252812 0.093036
H64   H     H_    0.299602 0.029452 0.780640 0.170315
H65   H     H_    0.452515 0.878785 0.740210 0.114003
H66   H     H_    0.451350 0.849125 0.796244 0.113887
H67   H     H_    0.528995 0.770013 0.775078 0.156969
H68   H     H_    0.460228 0.765191 0.741635 0.090749
H69   H     H_    0.529456 0.799649 0.719398 0.170325
H70   H     H_    0.873159 0.582650 0.784898 0.119603
H71   H     H_    0.824491 0.528593 0.814597 0.130863
H72   H     H_    0.774439 0.497911 0.744581 0.167617
H73   H     H_    0.768548 0.580108 0.753632 0.093013
H74   H     H_    0.051452 0.675115 0.214055 0.151742
H75   H     H_    0.823968 0.550345 0.714601 0.151403
H76   H     H_    0.547430 0.121287 0.740160 0.114003
H77   H     H_    0.548610 0.150937 0.796186 0.113937
H78   H     H_    0.470953 0.230043 0.775029 0.157006
H79   H     H_    0.539703 0.234877 0.741554 0.090776
H80   H     H_    0.470469 0.200415 0.719357 0.170333
H81   H     H_    0.127142 0.417382 0.785137 0.119496
H82   H     H_    0.175681 0.471710 0.814666 0.130891
H83   H     H_    0.225626 0.502196 0.744550 0.167636
H84   H     H_    0.231756 0.420063 0.753841 0.093061
H85   H     H_    0.617324 0.929578 0.260321 0.122008
H86   H     H_    0.176247 0.449470 0.714738 0.151294
H87   H     H_    0.452359 0.121513 0.259964 0.112254
H88   H     H_    0.451636 0.150776 0.203814 0.114761
H89   H     H_    0.529794 0.229454 0.224832 0.157750
H90   H     H_    0.460893 0.235057 0.258084 0.091285
H91   H     H_    0.529743 0.200272 0.280635 0.168663
H92   H     H_    0.872340 0.418733 0.215329 0.119884
H93   H     H_    0.824238 0.473117 0.185481 0.130748
H94   H     H_    0.774442 0.504641 0.255421 0.167427
H95   H     H_    0.767718 0.422464 0.246558 0.093075
H96   H     H_    0.663039 0.957261 0.306371 0.125719
H97   H     H_    0.823407 0.451842 0.285530 0.151520
H98   H     H_    0.564035 0.859900 0.206944 0.108708
H99   H     H_    0.498293 0.818969 0.184106 0.132740
H100  H     H_    0.473778 0.777393 0.258259 0.169513
H101  H     H_    0.551522 0.758096 0.241740 0.093032
H102  H     H_    0.538543 0.819200 0.281131 0.152168
H103  H     H_    0.129425 0.580429 0.213619 0.118770
H104  H     H_    0.176678 0.524052 0.184968 0.131047
H105  H     H_    0.225557 0.494228 0.255573 0.167682
H106  H     H_    0.233875 0.575901 0.245145 0.093090
H107  H     H_    0.728218 0.017674 0.254468 0.164194
H108  H     H_    0.177501 0.549033 0.284556 0.150712
H109  H     H_    0.988946 0.598727 0.360646 0.139162
H110  H     H_    0.596848 0.023207 0.360790 0.147481
H111  H     H_    0.011108 0.401326 0.360723 0.138430
H112  H     H_    0.403792 0.974955 0.360633 0.152179
H113  H     H_    0.987736 0.401439 0.639307 0.138470
H114  H     H_    0.595406 0.971997 0.639137 0.151794
H115  H     H_    0.012300 0.598517 0.639278 0.138381
H116  H     H_    0.404577 0.028034 0.639134 0.151776
H117  H     H_    0.528049 0.904615 0.860871 0.151740
H118  H     H_    0.727448 0.936592 0.240613 0.091415
H119  H     H_    0.901422 0.488055 0.860701 0.138635
H120  H     H_    0.471941 0.095422 0.860859 0.151745
H121  H     H_    0.098600 0.511917 0.860694 0.138515
H122  H     H_    0.526379 0.095754 0.139388 0.151646
H123  H     H_    0.901548 0.513095 0.139311 0.138542
H124  H     H_    0.475176 0.903806 0.138827 0.135519
H125  H     H_    0.098409 0.486857 0.139254 0.137782
H126  H     H_    0.193299 0.570420 0.550174 0.122881
H127  H     H_    0.570227 0.806687 0.550307 0.121329
H128  H     H_    0.806680 0.429561 0.550180 0.122872
O1    O     O_R   0.090160 0.447820 0.500030 -0.509732
O2    O     O_R   0.947820 0.409840 0.000030 -0.509657
O3    O     O_R   0.409840 0.052180 0.000030 -0.509662
O4    O     O_R   0.052180 0.590160 0.000030 -0.509795
O5    O     O_R   0.590160 0.052180 0.999970 -0.509352
O6    O     O_R   0.947820 0.590160 0.999970 -0.509836
O7    O     O_R   0.409840 0.947820 0.999970 -0.509915
O8    O     O_R   0.052180 0.409840 0.999970 -0.509841
O9    O     O_R   0.999980 0.447820 0.435750 -0.512398
O10   O     O_R   0.447820 0.000020 0.435750 -0.511823
O11   O     O_R   0.000020 0.552180 0.435750 -0.512335
O12   O     O_R   0.447820 0.909840 0.500030 -0.509454
O13   O     O_R   0.552180 0.999980 0.435750 -0.511913
O14   O     O_R   0.999980 0.552180 0.564250 -0.512432
O15   O     O_R   0.447820 0.999980 0.564250 -0.511818
O16   O     O_R   0.000020 0.447820 0.564250 -0.512405
O17   O     O_R   0.552180 0.000020 0.564250 -0.511817
O18   O     O_R   0.499980 0.947820 0.935750 -0.511703
O19   O     O_R   0.947820 0.500020 0.935750 -0.512399
O20   O     O_R   0.500020 0.052180 0.935750 -0.511659
O21   O     O_R   0.052180 0.499980 0.935750 -0.512399
O22   O     O_R   0.499980 0.052180 0.064250 -0.511910
O23   O     O_R   0.909840 0.552180 0.500030 -0.509714
O24   O     O_R   0.947820 0.499980 0.064250 -0.512400
O25   O     O_R   0.500020 0.947820 0.064250 -0.512647
O26   O     O_R   0.052180 0.500020 0.064250 -0.512489
O27   O     O_R   0.499980 0.409740 0.537200 -0.511349
O28   O     O_R   0.409740 0.500020 0.537200 -0.511243
O29   O     O_R   0.500020 0.590260 0.537200 -0.511370
O30   O     O_R   0.590260 0.499980 0.537200 -0.511234
O31   O     O_R   0.499980 0.590260 0.462800 -0.511204
O32   O     O_R   0.409740 0.499980 0.462800 -0.511210
O33   O     O_R   0.500020 0.409740 0.462800 -0.511416
O34   O     O_R   0.552180 0.090160 0.500030 -0.509590
O35   O     O_R   0.590260 0.500020 0.462800 -0.511253
O36   O     O_R   0.999980 0.909740 0.037200 -0.511243
O37   O     O_R   0.909740 0.000020 0.037200 -0.511235
O38   O     O_R   0.000020 0.090260 0.037200 -0.511102
O39   O     O_R   0.090260 0.999980 0.037200 -0.511397
O40   O     O_R   0.999980 0.090260 0.962800 -0.511269
O41   O     O_R   0.909740 0.999980 0.962800 -0.511368
O42   O     O_R   0.000020 0.909740 0.962800 -0.511258
O43   O     O_R   0.090260 0.000020 0.962800 -0.511385
O44   O     O_3   0.989327 0.610520 0.273540 -0.538651
O45   O     O_R   0.090160 0.552180 0.499970 -0.509756
O46   O     O_3   0.609409 0.023659 0.275105 -0.518722
O47   O     O_3   0.010710 0.389488 0.273498 -0.538761
O48   O     O_3   0.392617 0.968293 0.275522 -0.516873
O49   O     O_3   0.988001 0.389599 0.726508 -0.538734
O50   O     O_3   0.607434 0.967114 0.724068 -0.511593
O51   O     O_3   0.012076 0.610329 0.726493 -0.538757
O52   O     O_3   0.392544 0.032962 0.724068 -0.511580
O53   O     O_3   0.532949 0.892597 0.775940 -0.511598
O54   O     O_3   0.889620 0.488312 0.773526 -0.538688
O55   O     O_3   0.467010 0.107459 0.775925 -0.511586
O56   O     O_R   0.447820 0.090160 0.499970 -0.509835
O57   O     O_3   0.110435 0.511623 0.773502 -0.538717
O58   O     O_3   0.532823 0.106818 0.224516 -0.517287
O59   O     O_3   0.889730 0.512961 0.226470 -0.538778
O60   O     O_3   0.475794 0.890948 0.226093 -0.520164
O61   O     O_3   0.110260 0.486978 0.226542 -0.538846
O62   O     O_R   0.909840 0.447820 0.499970 -0.509782
O63   O     O_R   0.552180 0.909840 0.499970 -0.509842
O64   O     O_R   0.590160 0.947820 0.000030 -0.510119

loop_
_geom_bond_atom_site_label_1
_geom_bond_atom_site_label_2
_ccdc_geom_bond_type
Cu6   O11   S    
C39   H54   S    
C128  O49   S    
C103  C123  A    
Cu11  O4    S    
C9    C143  A    
C105  C131  S    
C54   O59   S    
C68   C81   A    
C35   O36   A    
C18   C125  A    
Cu1   O62   S    
C149  H116  S    
C32   H37   S    
C28   H85   S    
C87   O34   A    
Cu3   O37   S    
C133  O53   S    
C14   C151  A    
Cu9   O19   S    
C85   C121  A    
C146  H113  S    
C38   H51   S    
C59   C60   S    
C40   H56   S    
C20   C132  A    
C21   C133  A    
C31   H36   S    
Cu9   Cu11  S    
C45   C47   S    
C65   O12   A    
C122  H15   S    
Cu1   O16   S    
C100  C108  A    
C12   C150  A    
C25   C140  A    
C45   H70   S    
C65   C99   S    
C96   O26   A    
C85   H31   S    
C73   C108  A    
C101  C110  A    
C98   C102  S    
C33   H39   S    
C46   O37   A    
C29   H2    S    
C77   C112  A    
C51   H83   S    
C43   C44   S    
C37   C38   S    
C119  H12   S    
C112  H5    S    
C13   C63   S    
C61   O39   A    
Cu2   O35   S    
C127  C145  A    
C10   C91   S    
C27   H52   S    
C12   C93   S    
C78   C113  A    
C53   H90   S    
C95   O25   A    
C104  C117  A    
C30   O47   S    
C66   C77   A    
C54   H92   S    
Cu8   O7    S    
C115  H8    S    
C9    C90   S    
C74   C110  A    
C94   O21   A    
C52   O58   S    
C113  H6    S    
C92   O15   A    
C42   H64   S    
C34   H43   S    
C76   C100  S    
C93   O18   A    
C148  H115  S    
C59   H103  S    
C40   H57   S    
C55   H94   S    
C17   C25   S    
Cu6   O23   S    
C103  C116  A    
C130  O51   S    
C87   O56   A    
Cu4   O41   S    
C27   H63   S    
C30   C31   S    
C76   O23   A    
C84   C119  A    
C134  C151  A    
C2    O28   A    
C32   O48   S    
C142  O33   A    
C129  C147  A    
C20   C21   S    
Cu5   O15   S    
C71   C106  A    
Cu3   Cu4   S    
C50   H82   S    
C21   C135  A    
C31   H34   S    
C136  O57   S    
C27   H74   S    
C10   C148  A    
C132  O52   S    
C71   H17   S    
Cu9   O2    S    
C141  H109  S    
Cu2   O32   S    
C99   C114  A    
C43   H66   S    
C102  C119  A    
C101  C112  A    
C138  O59   S    
C39   H55   S    
C98   O64   A    
C73   H19   S    
C74   H20   S    
C135  C152  A    
C66   C74   A    
C3    C136  A    
C6    C139  A    
C56   O60   S    
Cu2   O33   S    
C81   H27   S    
C69   C82   A    
C86   H32   S    
C4    C137  A    
C87   C101  S    
C84   H30   S    
C29   H118  S    
C139  O60   S    
C143  H110  S    
C64   C73   A    
C50   O57   S    
C8    C141  A    
C60   H105  S    
C89   O9    A    
Cu12  O28   S    
C77   H22   S    
Cu9   O6    S    
C49   H79   S    
C92   O17   A    
C42   H62   S    
C114  H7    S    
C93   O20   A    
C16   C96   S    
C94   O19   A    
C29   H107  S    
C56   H99   S    
C39   C40   S    
Cu4   O43   S    
C24   O35   A    
C150  H117  S    
Cu8   Cu10  S    
C83   H29   S    
C110  H3    S    
C17   C124  A    
Cu6   O14   S    
C13   O29   A    
Cu10  O20   S    
C52   H88   S    
C43   O53   S    
C10   C146  A    
C47   H75   S    
C79   H25   S    
C124  C141  A    
C57   C68   S    
C76   O62   A    
Cu10  O3    S    
C52   C53   S    
Cu12  O29   S    
C58   H100  S    
C134  O54   S    
C64   C78   A    
C133  C150  A    
Cu8   O64   S    
C95   O22   A    
C1    O1    A    
C44   H69   S    
C108  H128  S    
C128  C146  A    
C125  C143  A    
C81   C116  A    
C126  C144  A    
C56   C58   S    
C62   C71   A    
C34   C36   S    
C32   H38   S    
C41   H60   S    
C89   O11   A    
Cu4   O40   S    
Cu1   O9    S    
Cu5   Cu7   S    
C129  O50   S    
C78   H23   S    
C70   C85   A    
C26   O44   S    
C152  H120  S    
C57   O38   A    
C125  O46   S    
C26   H1    S    
C41   C42   S    
C20   C129  A    
Cu11  O21   S    
Cu6   O45   S    
C31   H35   S    
C90   O13   A    
C124  O44   S    
C45   O54   S    
C26   C27   S    
C28   C29   S    
C44   H67   S    
C38   H50   S    
C106  H126  S    
C15   C95   S    
C7    C140  A    
C97   C111  A    
C17   C126  A    
C19   C128  A    
C13   O31   A    
C51   H86   S    
C12   C152  A    
C102  C115  A    
C47   H73   S    
C137  O58   S    
C11   C149  A    
Cu5   O56   S    
Cu3   O36   S    
C28   H96   S    
C86   C122  A    
C96   O24   A    
C35   O42   A    
C36   H45   S    
C19   C130  A    
C24   C64   S    
C132  C149  A    
C38   H53   S    
C53   H89   S    
C37   H49   S    
C48   H76   S    
C145  H112  S    
C48   H77   S    
C34   H44   S    
Cu5   O10   S    
C4    H122  S    
C40   H58   S    
C5    H123  S    
C30   H24   S    
C6    H124  S    
C120  O7    A    
Cu7   O63   S    
Cu12  O27   S    
Cu4   O42   S    
C90   O10   A    
C109  O8    A    
C39   O51   S    
C50   C51   S    
C70   C83   A    
Cu10  O5    S    
Cu7   O13   S    
C97   C106  A    
C116  H9    S    
C57   O40   A    
Cu8   O18   S    
C48   C49   S    
C2    O32   A    
C26   H41   S    
Cu5   O12   S    
C127  O48   S    
C147  H114  S    
C47   H72   S    
Cu2   Cu12  S    
C3    H121  S    
C82   H28   S    
C67   C80   A    
C45   H71   S    
C48   O55   S    
C43   H65   S    
C66   C142  S    
C99   C107  A    
C33   H40   S    
C75   C111  A    
C103  C109  S    
C135  O55   S    
C32   C33   S    
C51   H84   S    
Cu11  O8    S    
C7    H125  S    
C11   C147  A    
C59   O61   S    
C9    C145  A    
Cu9   O24   S    
Cu7   O34   S    
C36   H47   S    
C28   O46   S    
C104  C122  A    
C63   C72   A    
C65   O63   A    
C22   C136  A    
C54   H93   S    
C111  H4    S    
C53   H91   S    
C82   C117  A    
C60   H106  S    
C14   C94   S    
C62   C75   A    
C104  C120  S    
C34   O49   S    
C117  H10   S    
C88   H33   S    
C54   C55   S    
C56   H98   S    
C49   H78   S    
C5    C138  A    
C37   H48   S    
C63   C79   A    
C59   H104  S    
C22   C134  A    
C144  H111  S    
C142  O27   A    
C83   C118  A    
C23   C139  A    
Cu11  O26   S    
C109  O2    A    
Cu3   O38   S    
Cu1   Cu6   S    
C58   H101  S    
Cu10  O22   S    
C41   O52   S    
C5    C16   A    
C6    C15   A    
C11   C92   S    
C35   C70   S    
C131  O4    A    
C46   O41   A    
C80   C115  A    
C50   H81   S    
C55   H95   S    
C91   O16   A    
C67   C84   A    
C75   H21   S    
C61   O43   A    
C88   C123  A    
Cu2   O31   S    
C107  H127  S    
Cu8   O25   S    
C126  O47   S    
Cu12  O30   S    
C33   H42   S    
C131  O6    A    
C130  C148  A    
C18   C23   S    
C19   C22   S    
C1    C97   S    
Cu1   O1    S    
C151  H119  S    
C18   C127  A    
C72   C107  A    
C58   H102  S    
C105  C121  A    
C8    C144  A    
C60   H108  S    
C3    C14   A    
C41   H59   S    
Cu3   O39   S    
C118  H11   S    
C68   C88   A    
C1    O45   A    
C49   H80   S    
C42   H61   S    
C61   C69   S    
C7    C16   A    
C55   H97   S    
C80   H26   S    
C23   C137  A    
C100  C113  A    
C120  O3    A    
C123  H16   S    
C121  H14   S    
C8    C89   S    
C24   O30   A    
C4    C15   A    
C25   C138  A    
C44   H68   S    
C72   H18   S    
C46   C67   S    
Cu7   O17   S    
C98   O5    A    
C140  O61   S    
C30   H13   S    
C105  C118  A    
C52   H87   S    
C91   O14   A    
C37   O50   S    
C79   C114  A    
C69   C86   A    
C2    C62   S    
C36   H46   S    
