data_mof_unit_33109.cif
_audit_creation_date              2012-12-10T17:19:52-0500
_audit_creation_method            fapswitch 2.2
_symmetry_space_group_name_H-M    P1
_symmetry_Int_Tables_number       1
_space_group_crystal_system       triclinic
_cell_length_a                    9.638821
_cell_length_b                    10.783832
_cell_length_c                    15.709832
_cell_angle_alpha                 86.148338
_cell_angle_beta                  72.623973
_cell_angle_gamma                 89.72912
_cell_volume                      1554.69384481

loop_
_atom_site_label
_atom_site_type_symbol
_atom_type_description
_atom_site_fract_x
_atom_site_fract_y
_atom_site_fract_z
_atom_type_partial_charge
C1    C     C_R   0.998800 0.262659 0.503038 0.783802
C2    C     C_R   0.678741 0.463086 0.913772 0.009203
C3    C     C_R   0.777876 0.499019 0.958611 0.065340
C4    C     C_R   0.535969 0.422091 0.964966 0.019731
C5    C     C_R   0.486292 0.441878 0.057288 0.048533
C6    C     C_R   0.584013 0.493206 0.097251 -0.195865
C7    C     C_R   0.729384 0.513215 0.050135 -0.208608
C8    C     C_R   0.442271 0.359712 0.927433 -0.201904
C9    C     C_R   0.294139 0.343588 0.972926 0.194331
C10   C     C_R   0.238424 0.388404 0.058540 0.060907
C11   C     C_R   0.337361 0.419242 0.105017 0.011301
C12   C     C_R   0.916492 0.502398 0.672000 0.800851
C13   C     C_R   0.088074 0.399480 0.100596 -0.211404
C14   C     C_R   0.038436 0.442675 0.186069 -0.261362
C15   C     C_R   0.282608 0.425075 0.198378 0.195326
C16   C     C_R   0.072921 0.117216 0.646698 -0.193610
C17   C     C_R   0.109947 0.046756 0.714000 -0.142863
C18   C     C_R   0.108414 0.917750 0.715420 -0.135847
C19   C     C_R   0.070790 0.858138 0.649110 -0.188794
C20   C     C_R   0.034624 0.927671 0.579482 0.091290
C21   C     C_R   0.036022 0.059093 0.578158 0.101884
C22   C     C_R   0.995728 0.128351 0.509807 -0.092182
C23   C     C_R   0.996621 0.736405 0.506056 0.768885
C24   C     C_R   0.949253 0.069014 0.446802 -0.195945
C25   C     C_R   0.947695 0.941038 0.448267 -0.218171
C26   C     C_R   0.992288 0.870009 0.512606 -0.104477
C27   C     C_R   0.698492 0.683386 0.399213 -0.200178
C28   C     C_R   0.653003 0.794263 0.370563 -0.320303
C29   C     C_R   0.511180 0.806994 0.370508 0.240879
C30   C     C_R   0.414876 0.702189 0.396744 0.243452
C31   C     C_R   0.450540 0.596893 0.450438 0.074050
C32   C     C_R   0.599926 0.592714 0.450762 0.165823
C33   C     C_R   0.551446 0.410702 0.546241 -0.048359
C34   C     C_R   0.083501 0.487323 0.329849 0.816718
C35   C     C_R   0.404573 0.409762 0.545236 -0.071346
C36   C     C_R   0.869151 0.504359 0.770922 -0.206812
C37   C     C_R   0.135357 0.455624 0.235997 -0.092422
C38   C     C_R   0.921464 0.531189 0.910744 -0.301916
C39   C     C_R   0.969448 0.530416 0.817744 0.199349
C40   C     C_R   0.720563 0.483466 0.819654 0.335968
Cu1   Cu    Cu3+1 0.140660 0.499990 0.500010 0.957947
Cu2   Cu    Cu3+1 0.859340 0.500010 0.499990 0.935964
H1    H     H_    0.801814 0.548793 0.084253 0.139353
H2    H     H_    0.008289 0.380646 0.067193 0.150094
H3    H     H_    0.917639 0.122257 0.394737 0.149903
H4    H     H_    0.070888 0.216974 0.650291 0.134830
H5    H     H_    0.138164 0.092576 0.765875 0.140599
H6    H     H_    0.134563 0.864102 0.768991 0.125782
H7    H     H_    0.067602 0.757802 0.653912 0.162194
H8    H     H_    0.918095 0.897015 0.396300 0.135919
H9    H     H_    0.587581 0.337608 0.584852 0.150205
H10   H     H_    0.812972 0.673130 0.379012 0.216301
H11   H     H_    0.732250 0.866608 0.338352 0.164619
H12   H     H_    0.332061 0.335709 0.582721 0.134009
H13   H     H_    0.923302 0.458136 0.215054 0.166587
H14   H     H_    0.996699 0.559273 0.945515 0.151072
H15   H     H_    0.549912 0.522690 0.164170 0.129909
H16   H     H_    0.482806 0.322897 0.862359 0.206348
N1    N     N_R   0.648320 0.501210 0.499140 -0.187706
N2    N     N_R   0.352470 0.501290 0.499110 -0.174468
O1    O     O_R   0.118810 0.319640 0.500010 -0.581802
O2    O     O_R   0.881240 0.319660 0.500000 -0.581380
O3    O     O_R   0.055570 0.499980 0.629840 -0.560647
O4    O     O_R   0.818000 0.500010 0.629830 -0.548514
O5    O     O_R   0.118760 0.680340 0.500000 -0.552529
O6    O     O_R   0.881190 0.680360 0.499990 -0.596429
O7    O     O_R   0.182000 0.499990 0.370170 -0.539888
O8    O     O_R   0.944430 0.500020 0.370160 -0.615024
N3    N     N_2   0.359818 0.368987 0.255597 -0.413878
H17   H     H_    0.419843 0.424668 0.282558 0.252122
C41   C     C_3   0.411332 0.244092 0.239753 -0.665237
H18   H     H_    0.442856 0.204861 0.298294 0.226923
H19   H     H_    0.507833 0.244434 0.179673 0.226968
H20   H     H_    0.323818 0.184188 0.230921 0.233404
N4    N     N_2   0.476330 0.916155 0.325404 -0.421936
H21   H     H_    0.481848 0.995456 0.357500 0.251432
C42   C     C_3   0.550918 0.931142 0.230194 -0.722540
H22   H     H_    0.491004 0.997508 0.197784 0.229689
H23   H     H_    0.555676 0.841189 0.198804 0.237405
H24   H     H_    0.663070 0.968075 0.217947 0.218974
N5    N     N_2   0.330001 0.683749 0.338543 -0.361099
H25   H     H_    0.386271 0.638258 0.283280 0.213683
C43   C     C_3   0.237299 0.780204 0.317203 -0.566614
H26   H     H_    0.130110 0.739488 0.321169 0.180475
H27   H     H_    0.285094 0.820246 0.247622 0.203218
H28   H     H_    0.219688 0.855204 0.363835 0.242496
N6    N     N_2   0.206415 0.274908 0.933476 -0.443611
H29   H     H_    0.106191 0.311538 0.937074 0.254703
C44   C     C_3   0.200152 0.142821 0.957479 -0.700159
H30   H     H_    0.134113 0.095391 0.921986 0.216733
H31   H     H_    0.149010 0.124542 0.030669 0.228623
H32   H     H_    0.311244 0.103738 0.937878 0.237459
N7    N     N_2   0.113392 0.572945 0.771380 -0.419760
H33   H     H_    0.143620 0.650967 0.796372 0.237509
C45   C     C_3   0.223252 0.478938 0.760045 -0.604148
H34   H     H_    0.252108 0.461843 0.822555 0.223031
H35   H     H_    0.322369 0.513281 0.707283 0.228378
H36   H     H_    0.185568 0.390830 0.740664 0.228164
O9    O     O_3   0.613932 0.495702 0.776830 -0.619336
C46   C     C_3   0.589049 0.623591 0.759405 0.122903
H37   H     H_    0.542456 0.630570 0.702604 0.172418
H38   H     H_    0.691001 0.681181 0.737308 0.124006
C47   C     C_3   0.480953 0.678281 0.840406 -0.389587
H39   H     H_    0.382082 0.618195 0.865068 0.227581
H40   H     H_    0.531125 0.683051 0.895227 0.220154
C48   C     C_3   0.437084 0.809001 0.816254 -0.933655
H41   H     H_    0.533747 0.872223 0.794917 0.264409
H42   H     H_    0.356758 0.845378 0.875406 0.253277
H43   H     H_    0.386979 0.807403 0.761210 0.256920

loop_
_geom_bond_atom_site_label_1
_geom_bond_atom_site_label_2
_ccdc_geom_bond_type
N6    H29   S    
C16   C21   A    
C34   C37   S    
Cu1   Cu2   S    
C19   C20   A    
Cu1   O1    S    
C4    C8    A    
C1    O2    A    
C40   O9    S    
N5    H25   S    
C45   H36   S    
Cu1   O7    S    
C42   H22   S    
N7    H33   S    
C20   C26   A    
C43   H26   S    
C24   H3    S    
C23   O6    A    
C28   C29   A    
C5    C11   A    
C3    C7    A    
C30   C31   A    
C12   O4    A    
C48   H41   S    
C18   C19   A    
C23   C26   S    
N3    C41   S    
C25   H8    S    
C15   C37   A    
C8    H16   S    
C11   C15   A    
C39   N7    S    
C45   H34   S    
C3    C38   A    
C8    C9    A    
C7    H1    S    
C12   C36   S    
C9    C10   A    
Cu2   O2    S    
C14   H13   S    
C1    C22   S    
C33   N1    A    
C21   C22   A    
C35   H12   S    
Cu2   O8    S    
C6    H15   S    
N5    C43   S    
C42   H23   S    
C38   C39   A    
C15   N3    S    
C36   C40   A    
C24   C25   A    
C16   H4    S    
C41   H19   S    
C12   O3    A    
C16   C17   A    
Cu1   O5    S    
C25   C26   A    
C46   C47   S    
C1    O1    A    
C35   N2    A    
C31   N2    A    
Cu2   N1    S    
C2    C4    A    
N4    H21   S    
C29   C30   A    
C19   H7    S    
C31   C32   A    
C46   H38   S    
C17   C18   A    
C47   H40   S    
C44   H32   S    
N4    C42   S    
C43   H27   S    
N6    C44   S    
C22   C24   A    
C44   H31   S    
Cu1   O3    S    
C34   O8    A    
Cu2   O4    S    
C47   H39   S    
C27   H10   S    
C42   H24   S    
C27   C32   A    
C36   C39   A    
C17   H5    S    
Cu1   N2    S    
C4    C5    A    
C10   C13   A    
C18   H6    S    
C34   O7    A    
C41   H20   S    
C28   H11   S    
C45   H35   S    
C6    C7    A    
C29   N4    S    
C33   H9    S    
O9    C46   S    
C23   O5    A    
C30   N5    S    
C2    C3    A    
C41   H18   S    
C9    N6    S    
C14   C37   A    
C5    C6    A    
C48   H42   S    
C46   H37   S    
C33   C35   A    
C47   C48   S    
N3    H17   S    
C10   C11   A    
C2    C40   A    
C43   H28   S    
C38   H14   S    
C20   C21   A    
N7    C45   S    
C27   C28   A    
Cu2   O6    S    
C32   N1    A    
C44   H30   S    
C13   C14   A    
C13   H2    S    
C48   H43   S    
