data_mof_unit_16014.cif
_audit_creation_date              2012-12-10T16:43:00-0500
_audit_creation_method            fapswitch 2.2
_symmetry_space_group_name_H-M    P1
_symmetry_Int_Tables_number       1
_space_group_crystal_system       triclinic
_cell_length_a                    7.539476
_cell_length_b                    8.784407
_cell_length_c                    12.948009
_cell_angle_alpha                 86.853859
_cell_angle_beta                  79.554295
_cell_angle_gamma                 103.392509
_cell_volume                      816.181894412

loop_
_atom_site_label
_atom_site_type_symbol
_atom_type_description
_atom_site_fract_x
_atom_site_fract_y
_atom_site_fract_z
_atom_type_partial_charge
C1    C     C_R   0.453395 0.200574 0.504058 0.877287
C2    C     C_R   0.546603 0.799423 0.495959 0.877583
C3    C     C_R   0.466546 0.495043 0.701033 0.796905
C4    C     C_R   0.533462 0.504934 0.298961 0.800748
C5    C     C_R   0.553243 0.512621 0.185246 -0.124481
C6    C     C_R   0.446876 0.487432 0.814743 -0.067394
C7    C     C_R   0.254411 0.408119 0.989412 0.172702
C8    C     C_R   0.745874 0.591966 0.011126 0.141679
C9    C     C_R   0.273629 0.419810 0.879978 -0.233274
C10   C     C_R   0.726811 0.579318 0.120043 -0.144297
C11   C     C_R   0.602185 0.545911 0.857812 -0.283025
C12   C     C_R   0.397795 0.455270 0.141998 -0.257871
C13   C     C_R   0.588194 0.535068 0.966688 0.073539
C14   C     C_R   0.412409 0.465422 0.033087 0.136844
C15   C     C_2   0.428322 0.033541 0.517737 -0.081145
C16   C     C_2   0.571678 0.966454 0.482297 -0.082657
Cu1   Cu    Cu3+1 0.686350 0.517570 0.488220 0.963415
Cu2   Cu    Cu3+1 0.313650 0.482430 0.511780 0.960882
H1    H     H_    0.265663 0.401510 0.193798 0.176717
H2    H     H_    0.733348 0.600832 0.805639 0.150252
H3    H     H_    0.847931 0.624331 0.153639 0.186780
H4    H     H_    0.153658 0.373687 0.845730 0.155969
N1    N     N_2   0.033570 0.455950 0.529530 -0.023441
N2    N     N_2   0.966430 0.544050 0.470470 -0.024637
O1    O     O_R   0.621060 0.286250 0.492350 -0.625556
O2    O     O_R   0.378940 0.713750 0.507650 -0.626078
O3    O     O_R   0.306310 0.256580 0.512240 -0.543654
O4    O     O_R   0.693690 0.743420 0.487760 -0.543914
O5    O     O_R   0.631800 0.512400 0.642670 -0.622095
O6    O     O_R   0.368200 0.487600 0.357330 -0.621069
O7    O     O_R   0.317060 0.482730 0.662570 -0.572444
O8    O     O_R   0.682940 0.517270 0.337430 -0.569139
N3    N     N_3   0.075864 0.338190 0.056041 -0.601135
H5    H     H_    0.971446 0.318290 0.011563 0.222874
H6    H     H_    0.080923 0.227779 0.088091 0.213278
N4    N     N_3   0.926238 0.663808 0.948112 -0.589226
H7    H     H_    0.917547 0.763022 0.902766 0.218030
H8    H     H_    0.966555 0.583623 0.897722 0.218362
N5    N     N_3   0.934747 0.404862 0.631432 -0.448805
H9    H     H_    0.926383 0.502475 0.672827 0.227279
H10   H     H_    0.807906 0.327717 0.629496 0.246334
N6    N     N_3   0.065286 0.595220 0.368592 -0.440856
H11   H     H_    0.073628 0.497625 0.327188 0.237091
H12   H     H_    0.192137 0.672321 0.370563 0.246354
N7    N     N_3   0.249354 0.946822 0.577386 -0.583719
H13   H     H_    0.173478 0.880192 0.528252 0.263632
H14   H     H_    0.265828 0.876646 0.641156 0.230129
N8    N     N_3   0.750656 0.053173 0.422664 -0.581554
H15   H     H_    0.826514 0.119803 0.471806 0.263615
H16   H     H_    0.734198 0.123343 0.358887 0.233184

loop_
_geom_bond_atom_site_label_1
_geom_bond_atom_site_label_2
_ccdc_geom_bond_type
C3    O7    A    
N1    N2    D    
C8    C13   A    
Cu2   O6    S    
C2    C16   S    
C7    C14   A    
Cu1   O5    S    
Cu2   O2    S    
C3    C6    S    
Cu1   O1    S    
C16   N8    S    
C6    C9    A    
N8    H16   S    
N3    H5    S    
C5    C10   A    
C2    O2    A    
C13   C14   A    
C1    O1    A    
C11   C13   A    
C1    O3    A    
C4    O8    A    
N6    H12   S    
C1    C15   S    
C12   H1    S    
N4    H8    S    
N8    H15   S    
N3    H6    S    
C12   C14   A    
Cu1   Cu2   S    
N7    H14   S    
C10   H3    S    
C11   H2    S    
N1    N5    S    
C9    H4    S    
Cu1   N2    S    
N6    H11   S    
C7    N3    S    
Cu2   N1    S    
C7    C9    A    
C6    C11   A    
N2    N6    S    
C5    C12   A    
N5    H10   S    
C8    N4    S    
N5    H9    S    
C3    O5    A    
Cu1   O8    S    
C15   N7    S    
N4    H7    S    
C2    O4    A    
Cu2   O7    S    
N7    H13   S    
Cu1   O4    S    
C8    C10   A    
C4    O6    A    
Cu2   O3    S    
C15   C16   D    
C4    C5    S    
