data_mof_unit_14588.cif
_audit_creation_date              2012-12-11T16:41:17-0500
_audit_creation_method            fapswitch 2.2
_symmetry_space_group_name_H-M    P1
_symmetry_Int_Tables_number       1
_space_group_crystal_system       triclinic
_cell_length_a                    6.932209
_cell_length_b                    23.139893
_cell_length_c                    23.658065
_cell_angle_alpha                 112.611878
_cell_angle_beta                  90.30305
_cell_angle_gamma                 90.457683
_cell_volume                      3503.02841095

loop_
_atom_site_label
_atom_site_type_symbol
_atom_type_description
_atom_site_fract_x
_atom_site_fract_y
_atom_site_fract_z
_atom_type_partial_charge
O1    O     O_R   0.505740 0.453370 0.547760 -0.539929
O2    O     O_R   0.169520 0.427650 0.423350 -0.541374
O3    O     O_R   0.005620 0.546630 0.452240 -0.539744
C1    C     C_R   0.336767 0.408787 0.399290 0.701874
O4    O     O_R   0.175610 0.445960 0.545510 -0.541917
O5    O     O_R   0.011740 0.565080 0.575280 -0.536507
C2    C     C_R   0.344645 0.434009 0.562482 0.689732
O6    O     O_R   0.499610 0.434920 0.424720 -0.537115
O7    O     O_3   0.341310 0.539060 0.509620 -0.367171
V1    V     V_3+5 0.063960 0.492750 0.498220 1.397390
O8    O     O_R   0.682400 0.572350 0.576650 -0.542469
C3    C     C_R   0.850530 0.590603 0.600998 0.703240
O9    O     O_R   0.676320 0.554040 0.454490 -0.541563
C4    C     C_R   0.845170 0.566000 0.437547 0.691981
V2    V     V_3+5 0.564740 0.507250 0.501780 1.397919
O10   O     O_3   0.837250 0.460940 0.490380 -0.367917
C5    C     C_R   0.774517 0.884755 0.123061 -0.159774
H1    H     H_    0.643056 0.904254 0.113259 0.120872
C6    C     C_R   0.763209 0.849232 0.159299 -0.143490
H2    H     H_    0.623886 0.843031 0.176785 0.100551
C7    C     C_R   0.929765 0.823234 0.173836 0.094669
C8    C     C_R   0.108142 0.833796 0.151046 -0.141552
H3    H     H_    0.239044 0.813791 0.160514 0.099302
C9    C     C_R   0.119596 0.869520 0.114900 -0.161358
H4    H     H_    0.259311 0.876584 0.098177 0.119735
C10   C     C_R   0.952853 0.895503 0.100414 -0.055641
C11   C     C_R   0.062454 0.789989 0.256067 -0.151121
H5    H     H_    0.184583 0.821374 0.262350 0.110149
C12   C     C_R   0.049932 0.755021 0.292860 -0.151466
H6    H     H_    0.162956 0.760474 0.326340 0.108744
C13   C     C_R   0.891851 0.714605 0.287413 0.081714
C14   C     C_R   0.746595 0.710203 0.244134 -0.151711
H7    H     H_    0.624470 0.678815 0.237848 0.109513
C15   C     C_R   0.759115 0.745172 0.207343 -0.151823
H8    H     H_    0.646094 0.739720 0.173862 0.108285
C16   C     C_R   0.917205 0.785584 0.212786 0.081737
C17   C     C_R   0.700969 0.666345 0.349126 -0.141491
H9    H     H_    0.570040 0.686341 0.339664 0.099489
C18   C     C_R   0.689560 0.630596 0.385250 -0.161713
H10   H     H_    0.549855 0.623504 0.401961 0.119778
C19   C     C_R   0.856335 0.604619 0.399725 -0.055602
C20   C     C_R   0.034657 0.615402 0.377093 -0.159962
H11   H     H_    0.166142 0.595908 0.386887 0.120752
C21   C     C_R   0.045919 0.650949 0.340878 -0.144052
H12   H     H_    0.185234 0.657172 0.323401 0.100285
C22   C     C_R   0.879331 0.676938 0.326349 0.094685
C23   C     C_R   0.849961 0.645647 0.660406 -0.070110
C24   C     C_R   0.959346 0.854265 0.839651 -0.070150
C25   C     C_R   0.143908 0.786516 0.751412 -0.199763
C26   C     C_R   0.128571 0.841001 0.804143 -0.163315
C27   C     C_R   0.803138 0.811945 0.820258 -0.239755
C28   C     C_R   0.818586 0.756464 0.767324 0.160217
C29   C     C_R   0.990719 0.743447 0.732734 0.160233
C30   C     C_R   0.006169 0.687967 0.679802 -0.239785
C31   C     C_R   0.680728 0.658913 0.695910 -0.162731
C32   C     C_R   0.665394 0.713397 0.748644 -0.200023
H13   H     H_    0.136680 0.678811 0.652839 0.123647
H14   H     H_    0.557768 0.627209 0.682460 0.128973
H15   H     H_    0.276569 0.777850 0.725562 0.122926
H16   H     H_    0.532728 0.722064 0.774492 0.122930
H17   H     H_    0.251522 0.872710 0.817588 0.128631
H18   H     H_    0.672628 0.821102 0.847221 0.123585
C33   C     C_R   0.337048 0.352637 0.340351 -0.070530
C34   C     C_R   0.472318 0.147505 0.159545 -0.070318
C35   C     C_R   0.649658 0.218670 0.249504 -0.199853
C36   C     C_R   0.641303 0.164400 0.195936 -0.166717
C37   C     C_R   0.310359 0.186505 0.178530 -0.236178
C38   C     C_R   0.319078 0.241904 0.232063 0.159061
C39   C     C_R   0.490311 0.258258 0.267810 0.158875
C40   C     C_R   0.499019 0.313647 0.321352 -0.235577
C41   C     C_R   0.168079 0.335757 0.303951 -0.166742
C42   C     C_R   0.159736 0.281496 0.250370 -0.200443
H19   H     H_    0.629983 0.325536 0.348851 0.123928
H20   H     H_    0.040950 0.364684 0.316949 0.128588
H21   H     H_    0.781453 0.229804 0.276531 0.123495
H22   H     H_    0.027949 0.270367 0.223340 0.122652
H23   H     H_    0.768431 0.135471 0.182947 0.129018
H24   H     H_    0.179388 0.174608 0.151036 0.123622
C43   C     C_R   0.286158 0.105445 0.867024 -0.168214
H25   H     H_    0.161712 0.077304 0.868121 0.129578
C44   C     C_R   0.276966 0.141222 0.831047 -0.219994
H26   H     H_    0.146853 0.139052 0.804739 0.128878
C45   C     C_R   0.434454 0.178423 0.827816 0.060461
C46   C     C_R   0.603526 0.179486 0.862216 0.313585
C47   C     C_R   0.613269 0.141764 0.896823 -0.232656
H27   H     H_    0.743652 0.142724 0.922647 0.126039
C48   C     C_R   0.454853 0.104828 0.899975 -0.083722
C49   C     C_R   0.566243 0.212339 0.746121 -0.096750
H28   H     H_    0.690781 0.183016 0.741761 0.128986
C50   C     C_R   0.552389 0.246912 0.708976 -0.169702
H29   H     H_    0.666932 0.243123 0.676857 0.108485
C51   C     C_R   0.391503 0.284940 0.712493 0.080956
C52   C     C_R   0.244167 0.286875 0.753925 -0.150267
H30   H     H_    0.119422 0.316172 0.758674 0.112889
C53   C     C_R   0.258068 0.252184 0.790967 -0.178313
H31   H     H_    0.143605 0.255328 0.822919 0.131127
C54   C     C_R   0.419886 0.214898 0.787863 0.096139
C55   C     C_R   0.200330 0.331977 0.649579 -0.141880
H32   H     H_    0.069480 0.310769 0.657932 0.099798
C56   C     C_R   0.188855 0.367893 0.613573 -0.162041
H33   H     H_    0.049274 0.373864 0.595890 0.120103
C57   C     C_R   0.355465 0.395359 0.600345 -0.055281
C58   C     C_R   0.533596 0.385984 0.624222 -0.160551
H34   H     H_    0.664987 0.406675 0.615480 0.120772
C59   C     C_R   0.544888 0.350390 0.660398 -0.143488
H35   H     H_    0.684145 0.345432 0.678876 0.101515
C60   C     C_R   0.378585 0.322764 0.673600 0.096640
O11   O     O_R   0.309730 0.065160 0.075230 -0.537120
O12   O     O_R   0.633800 0.053970 0.954410 -0.541621
O13   O     O_R   0.797580 0.934860 0.924760 -0.536486
C61   C     C_R   0.464862 0.065926 0.937491 0.705303
O14   O     O_R   0.639820 0.072410 0.076610 -0.541869
O15   O     O_R   0.803650 0.953440 0.047830 -0.539688
C62   C     C_R   0.472573 0.091312 0.100644 0.700919
O16   O     O_R   0.303670 0.046590 0.952160 -0.539939
O17   O     O_3   0.468000 0.960960 0.990410 -0.367760
V3    V     V_3+5 0.745380 0.007240 0.001780 1.397115
O18   O     O_R   0.132940 0.946010 0.045600 -0.541577
C63   C     C_R   0.964071 0.934081 0.062553 0.692303
O19   O     O_R   0.126920 0.927560 0.923400 -0.542831
C64   C     C_R   0.958784 0.909316 0.899052 0.702725
V4    V     V_3+5 0.244590 0.992720 0.998240 1.397602
O20   O     O_3   0.972110 0.039040 0.009600 -0.367564
N1    N     N_2   0.763277 0.218926 0.863147 -0.544495
H36   H     H_    0.893750 0.202732 0.871824 0.249656
C65   C     C_3   0.736944 0.284300 0.901335 -0.553569
H37   H     H_    0.864279 0.311800 0.897267 0.194028
H38   H     H_    0.721976 0.290288 0.950019 0.193485
H39   H     H_    0.607195 0.303007 0.886801 0.213965

loop_
_geom_bond_atom_site_label_1
_geom_bond_atom_site_label_2
_ccdc_geom_bond_type
C31   C32   A    
C65   H37   S    
C11   C12   A    
C19   C20   A    
C53   H31   S    
C42   H22   S    
C43   C48   A    
C44   H26   S    
O12   V3    S    
C18   C19   A    
C7    C16   S    
C29   C30   A    
O19   C64   A    
C59   C60   A    
C1    C33   S    
C17   H9    S    
O17   V4    S    
C5    C10   A    
N1    C65   S    
C6    C7    A    
C9    C10   A    
O12   C61   A    
O13   C64   A    
O5    C3    A    
O14   V3    S    
C25   C29   A    
C48   C61   S    
O4    V1    S    
V2    O10   S    
C55   H32   S    
O17   V3    S    
C15   H8    S    
O18   V4    S    
O11   C62   A    
O18   C63   A    
C51   C52   A    
O15   C63   A    
O8    V2    S    
C24   C27   A    
C45   C46   A    
O19   V4    S    
C38   C39   A    
C13   C22   S    
O1    V2    S    
O7    V1    S    
C49   C54   A    
C1    O6    A    
C24   C26   A    
C23   C31   A    
C52   C53   A    
O16   V4    S    
C7    C8    A    
C57   C58   A    
C27   H18   S    
C20   C21   A    
C3    C23   S    
O13   V3    S    
O14   C62   A    
C44   C45   A    
C21   C22   A    
C47   C48   A    
C34   C62   S    
C37   C38   A    
C34   C37   A    
C9    H4    S    
O11   V4    S    
C24   C64   S    
C43   C44   A    
C65   H39   S    
C47   H27   S    
C2    C57   S    
C55   C60   A    
C32   H16   S    
C14   C15   A    
O2    C1    A    
C10   C63   S    
C12   H6    S    
C51   C60   S    
C50   C51   A    
C13   C14   A    
C33   C40   A    
C38   C42   A    
C40   H19   S    
C56   C57   A    
C5    H1    S    
C58   C59   A    
C52   H30   S    
C28   C29   A    
C46   C47   A    
O3    C4    A    
C23   C30   A    
O15   V3    S    
C33   C41   A    
C35   C36   A    
O6    V2    S    
C55   C56   A    
C4    C19   S    
C8    C9    A    
C20   H11   S    
O2    V1    S    
C18   H10   S    
C21   H12   S    
O4    C2    A    
C36   H23   S    
C65   H38   S    
O1    C2    A    
C49   C50   A    
C25   H15   S    
O5    V1    S    
C41   H20   S    
O8    C3    A    
C53   C54   A    
C11   C16   A    
C46   N1    S    
C59   H35   S    
C35   H21   S    
C37   H24   S    
C14   H7    S    
C6    H2    S    
O9    V2    S    
V3    O20   S    
C27   C28   A    
C12   C13   A    
O3    V1    S    
V1    O10   S    
C50   H29   S    
C35   C39   A    
C56   H33   S    
C5    C6    A    
C15   C16   A    
O7    V2    S    
C39   C40   A    
C43   H25   S    
C41   C42   A    
C49   H28   S    
C17   C18   A    
C25   C26   A    
C45   C54   S    
C31   H14   S    
C58   H34   S    
V4    O20   S    
C26   H17   S    
C8    H3    S    
C61   O16   A    
C17   C22   A    
O9    C4    A    
C28   C32   A    
C34   C36   A    
N1    H36   S    
C11   H5    S    
C30   H13   S    
