data_mof_unit_61794.cif
_audit_creation_date              2012-12-10T20:05:02-0500
_audit_creation_method            fapswitch 2.2
_symmetry_space_group_name_H-M    P1
_symmetry_Int_Tables_number       1
_space_group_crystal_system       triclinic
_cell_length_a                    15.893051
_cell_length_b                    15.893283
_cell_length_c                    25.960662
_cell_angle_alpha                 89.99897
_cell_angle_beta                  90.00012
_cell_angle_gamma                 89.999806
_cell_volume                      6557.47519419

loop_
_atom_site_label
_atom_site_type_symbol
_atom_type_description
_atom_site_fract_x
_atom_site_fract_y
_atom_site_fract_z
_atom_type_partial_charge
C1    C     C_R   0.000010 0.500000 0.446090 0.033569
C2    C     C_R   0.499984 0.000001 0.609940 0.486382
C3    C     C_R   0.000002 0.500002 0.390060 0.486388
C4    C     C_R   0.999998 0.499997 0.609940 0.486391
C5    C     C_R   0.999996 0.499998 0.890059 0.486389
C6    C     C_R   0.999997 0.500003 0.109940 0.486386
C7    C     C_R   0.499999 0.000006 0.890060 0.486385
C8    C     C_R   0.500001 0.999998 0.109940 0.486380
C9    C     C_R   0.339945 0.160054 0.250000 0.519036
C10   C     C_R   0.660054 0.839946 0.750000 0.519040
C11   C     C_R   0.839945 0.339946 0.250000 0.519001
C12   C     C_R   0.999989 0.500003 0.553910 0.033570
C13   C     C_R   0.160054 0.660054 0.750000 0.519003
C14   C     C_R   0.660054 0.839946 0.250000 0.519041
C15   C     C_R   0.339946 0.160054 0.750000 0.519036
C16   C     C_R   0.160054 0.660054 0.250000 0.519008
C17   C     C_R   0.839946 0.339946 0.750000 0.519007
C18   C     C_R   0.339943 0.839944 0.750000 0.522004
C19   C     C_R   0.660056 0.160056 0.250000 0.521995
C20   C     C_R   0.839943 0.660056 0.750000 0.522059
C21   C     C_R   0.160056 0.339944 0.250000 0.522062
C22   C     C_R   0.660056 0.160056 0.750000 0.522012
C23   C     C_R   0.499986 0.000005 0.446089 0.033492
C24   C     C_R   0.339944 0.839944 0.250000 0.522011
C25   C     C_R   0.160056 0.339944 0.750000 0.522068
C26   C     C_R   0.839943 0.660056 0.250000 0.522058
C27   C     C_1   0.276655 0.776655 0.250000 0.012410
C28   C     C_1   0.723345 0.223344 0.750000 0.012406
C29   C     C_1   0.223345 0.276656 0.250000 0.012575
C30   C     C_1   0.776655 0.723344 0.750000 0.012569
C31   C     C_1   0.723345 0.223344 0.250000 0.012387
C32   C     C_1   0.276655 0.776656 0.750000 0.012407
C33   C     C_1   0.776655 0.723344 0.250000 0.012563
C34   C     C_R   0.499985 0.000004 0.553910 0.033491
C35   C     C_1   0.223345 0.276655 0.750000 0.012575
C36   C     C_1   0.276661 0.223339 0.750000 0.012335
C37   C     C_1   0.723339 0.776660 0.250000 0.012326
C38   C     C_1   0.223340 0.723339 0.750000 0.012197
C39   C     C_1   0.776660 0.276661 0.250000 0.012179
C40   C     C_1   0.723339 0.776661 0.750000 0.012332
C41   C     C_1   0.276660 0.223339 0.250000 0.012338
C42   C     C_1   0.776661 0.276660 0.750000 0.012194
C43   C     C_1   0.223339 0.723339 0.250000 0.012198
C44   C     C_R   0.453399 0.148338 0.053580 -0.096422
C45   C     C_R   0.499994 0.000003 0.946090 0.033484
C46   C     C_R   0.546657 0.851685 0.946419 -0.096411
C47   C     C_R   0.851387 0.454276 0.053581 -0.096410
C48   C     C_R   0.148576 0.545822 0.946419 -0.096388
C49   C     C_R   0.546642 0.851673 0.053576 -0.096409
C50   C     C_R   0.453314 0.148318 0.946422 -0.096435
C51   C     C_R   0.148564 0.545873 0.053578 -0.096412
C52   C     C_R   0.851413 0.454181 0.946421 -0.096431
C53   C     C_R   0.954110 0.351440 0.553580 -0.096433
C54   C     C_R   0.045831 0.648581 0.446421 -0.096437
C55   C     C_R   0.648347 0.953469 0.553579 -0.096428
C56   C     C_R   0.500004 0.000001 0.053909 0.033481
C57   C     C_R   0.351649 0.046619 0.446418 -0.096424
C58   C     C_R   0.045800 0.648586 0.553581 -0.096424
C59   C     C_R   0.954241 0.351405 0.446420 -0.096396
C60   C     C_R   0.351639 0.046599 0.553576 -0.096430
C61   C     C_R   0.648349 0.953477 0.446423 -0.096440
C62   C     C_R   0.430426 0.221116 0.026969 0.130841
C63   C     C_R   0.569624 0.778906 0.973030 0.130849
C64   C     C_R   0.778476 0.431728 0.026969 0.130950
C65   C     C_R   0.221469 0.568436 0.973030 0.130949
C66   C     C_R   0.569612 0.778899 0.026963 0.130867
C67   C     C_R   0.999999 0.499991 0.946090 0.033575
C68   C     C_R   0.430373 0.221103 0.973036 0.130833
C69   C     C_R   0.221460 0.568470 0.026964 0.130929
C70   C     C_R   0.778493 0.431665 0.973035 0.130924
C71   C     C_R   0.931555 0.278533 0.526966 0.130919
C72   C     C_R   0.068396 0.721485 0.473034 0.130915
C73   C     C_R   0.721151 0.930581 0.526967 0.130841
C74   C     C_R   0.278865 0.069571 0.473029 0.130855
C75   C     C_R   0.068377 0.721489 0.526968 0.130923
C76   C     C_R   0.931639 0.278509 0.473032 0.130960
C77   C     C_R   0.278858 0.069553 0.526962 0.130856
C78   C     C_R   0.999994 0.500013 0.053909 0.033573
C79   C     C_R   0.721153 0.930587 0.473034 0.130832
C80   C     C_R   0.976546 0.426086 0.472845 -0.013034
C81   C     C_R   0.023464 0.573914 0.527155 -0.013035
C82   C     C_R   0.573778 0.976160 0.472845 -0.013039
C83   C     C_R   0.426199 0.023874 0.527153 -0.013052
C84   C     C_R   0.023474 0.573913 0.472846 -0.013040
C85   C     C_R   0.976509 0.426096 0.527155 -0.013040
C86   C     C_R   0.426202 0.023877 0.472843 -0.013048
C87   C     C_R   0.573778 0.976158 0.527155 -0.013034
C88   C     C_R   0.476089 0.073774 0.972846 -0.013047
C89   C     C_R   0.499987 0.000000 0.390059 0.486380
C90   C     C_R   0.523897 0.926226 0.027152 -0.013045
C91   C     C_R   0.926082 0.476535 0.972846 -0.013034
C92   C     C_R   0.073903 0.523487 0.027153 -0.013034
C93   C     C_R   0.523900 0.926230 0.972844 -0.013037
C94   C     C_R   0.476114 0.073779 0.027154 -0.013041
C95   C     C_R   0.073908 0.523471 0.972845 -0.013031
C96   C     C_R   0.926074 0.476563 0.027155 -0.013032
H1    H     H_    0.453505 0.151245 0.095203 0.139282
H2    H     H_    0.045789 0.651461 0.404795 0.139091
H3    H     H_    0.651248 0.953532 0.595203 0.139292
H4    H     H_    0.348753 0.046568 0.404792 0.139293
H5    H     H_    0.045725 0.651472 0.595206 0.139077
H6    H     H_    0.954364 0.348505 0.404794 0.139054
H7    H     H_    0.348737 0.046531 0.595201 0.139274
H8    H     H_    0.651251 0.953550 0.404798 0.139281
H9    H     H_    0.546595 0.848790 0.904795 0.139322
H10   H     H_    0.848496 0.454372 0.095206 0.139047
H11   H     H_    0.151466 0.545736 0.904793 0.139087
H12   H     H_    0.546570 0.848769 0.095200 0.139307
H13   H     H_    0.453340 0.151206 0.904798 0.139326
H14   H     H_    0.151441 0.545839 0.095202 0.139114
H15   H     H_    0.848545 0.454189 0.904795 0.139101
H16   H     H_    0.954111 0.348572 0.595206 0.139125
I1    I     I_    0.603308 0.671443 0.070847 -0.218201
I2    I     I_    0.898545 0.170862 0.429151 -0.217155
I3    I     I_    0.171386 0.103220 0.570842 -0.218155
I4    I     I_    0.828647 0.897010 0.429148 -0.218083
I5    I     I_    0.898257 0.170944 0.570848 -0.217370
I6    I     I_    0.101602 0.829103 0.429153 -0.217317
I7    I     I_    0.828644 0.896990 0.570852 -0.218079
I8    I     I_    0.171421 0.103298 0.429144 -0.218224
I9    I     I_    0.396621 0.328544 0.929153 -0.218301
I10   I     I_    0.329051 0.601755 0.070847 -0.217372
I11   I     I_    0.670878 0.398459 0.929154 -0.217296
I12   I     I_    0.396797 0.328588 0.070857 -0.218193
I13   I     I_    0.603353 0.671468 0.929141 -0.218259
I14   I     I_    0.670814 0.398680 0.070853 -0.217144
I15   I     I_    0.329082 0.601645 0.929145 -0.217294
I16   I     I_    0.101542 0.829114 0.570851 -0.217287
O1    O     O_3   0.500000 0.000000 0.250000 -0.458447
O2    O     O_R   0.500000 0.930770 0.634140 -0.535980
O3    O     O_R   0.930770 0.500000 0.365860 -0.535884
O4    O     O_R   0.069230 0.500000 0.634140 -0.535881
O5    O     O_R   0.000000 0.430770 0.865860 -0.535918
O6    O     O_R   1.000000 0.569230 0.134140 -0.535928
O7    O     O_R   0.569230 0.000000 0.865860 -0.535988
O8    O     O_R   0.430770 0.000000 0.134140 -0.535965
O9    O     O_R   0.000000 0.569230 0.865860 -0.535886
O10   O     O_R   1.000000 0.430770 0.134140 -0.535871
O11   O     O_R   0.430770 0.000000 0.865860 -0.535996
O12   O     O_3   0.500000 0.000000 0.750000 -0.458448
O13   O     O_R   0.569230 0.000000 0.134140 -0.536001
O14   O     O_R   0.402550 0.166630 0.280410 -0.529091
O15   O     O_R   0.597450 0.833370 0.719590 -0.529088
O16   O     O_R   0.833370 0.402550 0.280410 -0.529079
O17   O     O_R   0.166630 0.597450 0.719590 -0.529084
O18   O     O_R   0.597450 0.833370 0.280410 -0.529089
O19   O     O_R   0.402550 0.166630 0.719590 -0.529092
O20   O     O_R   0.166630 0.597450 0.280410 -0.529083
O21   O     O_R   0.833370 0.402550 0.719590 -0.529084
O22   O     O_R   0.402550 0.833370 0.719590 -0.526042
O23   O     O_3   1.000000 0.500000 0.250000 -0.458495
O24   O     O_R   0.597450 0.166630 0.280410 -0.526038
O25   O     O_R   0.833370 0.597450 0.719590 -0.526035
O26   O     O_R   0.166630 0.402550 0.280410 -0.526028
O27   O     O_R   0.597450 0.166630 0.719590 -0.526035
O28   O     O_R   0.402550 0.833370 0.280410 -0.526042
O29   O     O_R   0.166630 0.402550 0.719590 -0.526026
O30   O     O_R   0.833370 0.597450 0.280410 -0.526035
O31   O     O_R   0.902550 0.666630 0.780410 -0.526017
O32   O     O_R   0.097450 0.333370 0.219590 -0.526023
O33   O     O_R   0.333370 0.902550 0.780410 -0.526036
O34   O     O_3   0.000000 0.500000 0.750000 -0.458494
O35   O     O_R   0.666630 0.097450 0.219590 -0.526048
O36   O     O_R   0.097450 0.333370 0.780410 -0.526021
O37   O     O_R   0.902550 0.666630 0.219590 -0.526023
O38   O     O_R   0.666630 0.097450 0.780410 -0.526041
O39   O     O_R   0.333370 0.902550 0.219590 -0.526034
O40   O     O_R   0.902550 0.333370 0.219590 -0.529079
O41   O     O_R   0.097450 0.666630 0.780410 -0.529077
O42   O     O_R   0.333370 0.097450 0.219590 -0.529090
O43   O     O_R   0.666630 0.902550 0.780410 -0.529089
O44   O     O_R   0.097450 0.666630 0.219590 -0.529080
O45   O     O_R   0.500000 0.930770 0.365860 -0.535974
O46   O     O_R   0.902550 0.333370 0.780410 -0.529085
O47   O     O_R   0.666630 0.902550 0.219590 -0.529087
O48   O     O_R   0.333370 0.097450 0.780410 -0.529095
O49   O     O_R   0.500000 0.069230 0.634140 -0.535982
O50   O     O_R   0.069230 0.500000 0.365860 -0.535916
O51   O     O_R   0.930770 0.500000 0.634140 -0.535938
O52   O     O_R   0.500000 0.069230 0.365860 -0.535995
Zn1   Zn    Zn3+2 0.401050 0.000000 0.206670 0.969919
Zn2   Zn    Zn3+2 0.098950 0.500000 0.293330 0.969949
Zn3   Zn    Zn3+2 0.500000 0.901050 0.706670 0.969906
Zn4   Zn    Zn3+2 0.500000 0.098950 0.293330 0.969894
Zn5   Zn    Zn3+2 0.098950 0.500000 0.706670 0.969964
Zn6   Zn    Zn3+2 0.901050 0.500000 0.293330 0.969952
Zn7   Zn    Zn3+2 0.500000 0.098950 0.706670 0.969909
Zn8   Zn    Zn3+2 0.500000 0.901050 0.293330 0.969911
Zn9   Zn    Zn3+2 0.598950 0.000000 0.793330 0.969911
Zn10  Zn    Zn3+2 1.000000 0.401050 0.206670 0.969965
Zn11  Zn    Zn3+2 0.000000 0.598950 0.793330 0.969967
Zn12  Zn    Zn3+2 0.598950 0.000000 0.206670 0.969895
Zn13  Zn    Zn3+2 0.401050 0.000000 0.793330 0.969905
Zn14  Zn    Zn3+2 1.000000 0.598950 0.206670 0.969949
Zn15  Zn    Zn3+2 0.000000 0.401050 0.793330 0.969956
Zn16  Zn    Zn3+2 0.901050 0.500000 0.706670 0.969936

loop_
_geom_bond_atom_site_label_1
_geom_bond_atom_site_label_2
_ccdc_geom_bond_type
O23   Zn6   S    
O14   Zn4   S    
C46   H9    S    
O45   Zn8   S    
C73   I7    S    
C23   C82   A    
C8    O8    A    
O44   Zn14  S    
C35   C36   T    
C24   C27   S    
C13   O17   A    
C49   C90   A    
C5    C67   S    
C19   C31   S    
O37   Zn14  S    
C8    C56   S    
C62   I12   S    
O36   Zn15  S    
C4    O4    A    
O16   Zn6   S    
C1    C84   A    
C56   C94   A    
C51   H14   S    
O25   Zn16  S    
O19   Zn7   S    
C80   C85   A    
C12   C85   A    
O23   Zn2   S    
C3    O3    A    
C65   I15   S    
O23   Zn14  S    
O18   Zn8   S    
C48   C95   A    
C3    O50   A    
O29   Zn5   S    
O11   Zn13  S    
O2    Zn3   S    
O21   Zn16  S    
C71   C76   A    
C15   O19   A    
C18   O33   A    
C6    C78   S    
C48   H11   S    
C25   O36   A    
C77   I3    S    
C82   C87   A    
O1    Zn12  S    
O40   Zn10  S    
C57   C86   A    
O43   Zn9   S    
C10   C40   S    
C75   I16   S    
C89   O52   A    
C28   C42   T    
C17   C42   S    
O7    Zn9   S    
C2    O2    A    
C91   C96   A    
O9    Zn11  S    
C70   I11   S    
O23   Zn10  S    
C78   C96   A    
C74   C77   A    
O34   Zn15  S    
C76   I2    S    
C21   O26   A    
C23   C89   S    
O35   Zn12  S    
C2    O49   A    
C32   C38   T    
O48   Zn13  S    
O24   Zn4   S    
C60   H7    S    
O12   Zn13  S    
C68   I9    S    
C50   C88   A    
O51   Zn16  S    
C2    C34   S    
C56   C90   A    
C63   C66   A    
C45   C93   A    
O46   Zn15  S    
C22   C28   S    
C79   I4    S    
C67   C95   A    
O12   Zn9   S    
C59   H6    S    
C9    O42   A    
O10   Zn10  S    
O13   Zn12  S    
C72   C75   A    
O30   Zn6   S    
C54   C84   A    
O34   Zn11  S    
C20   O31   A    
C58   C75   A    
C49   H12   S    
C22   O27   A    
O28   Zn8   S    
C88   C94   A    
C60   C77   A    
O12   Zn3   S    
C49   C66   A    
C71   I5    S    
O33   Zn13  S    
O31   Zn11  S    
C24   O39   A    
C52   C70   A    
C54   C72   A    
C20   O25   A    
C58   C81   A    
O47   Zn12  S    
O8    Zn1   S    
C52   H15   S    
C44   C62   A    
C10   O43   A    
C57   H4    S    
C21   C29   S    
C23   C86   A    
C92   C95   A    
C33   C37   T    
O17   Zn5   S    
C1    C3    S    
O15   Zn3   S    
C57   C74   A    
C6    O10   A    
C5    O5    A    
C64   C70   A    
C7    O7    A    
C14   O47   A    
C51   C92   A    
C44   H1    S    
C16   O44   A    
C26   C33   S    
C89   O45   A    
C47   C96   A    
C47   H10   S    
C61   H8    S    
C67   C91   A    
C19   O24   A    
C73   C79   A    
C30   C40   T    
C58   H5    S    
C19   O35   A    
C11   C39   S    
C16   C43   S    
C13   C38   S    
C63   I13   S    
C25   C35   S    
C45   C88   A    
C15   O48   A    
C53   H16   S    
O1    Zn4   S    
C66   I1    S    
C64   I14   S    
O42   Zn1   S    
C25   O29   A    
C11   O40   A    
C48   C65   A    
C21   O32   A    
O1    Zn8   S    
C4    C12   S    
C34   C83   A    
O41   Zn11  S    
C4    O51   A    
C72   I6    S    
C53   C71   A    
O5    Zn15  S    
C7    C45   S    
C15   C36   S    
C47   C64   A    
C81   C84   A    
C17   O46   A    
C90   C93   A    
C11   O16   A    
O1    Zn1   S    
C29   C41   T    
O12   Zn7   S    
C17   O21   A    
C59   C80   A    
O34   Zn5   S    
C9    O14   A    
C5    O9    A    
O22   Zn3   S    
O50   Zn2   S    
C74   I8    S    
C14   O18   A    
C9    C41   S    
O49   Zn7   S    
C62   C68   A    
C46   C63   A    
C61   C82   A    
C26   O37   A    
C78   C92   A    
O38   Zn9   S    
O32   Zn10  S    
C6    O6    A    
O27   Zn7   S    
C20   C30   S    
C14   C37   S    
C7    O11   A    
C8    O13   A    
C16   O20   A    
O39   Zn1   S    
C46   C93   A    
C69   I10   S    
C61   C79   A    
C65   C69   A    
O26   Zn2   S    
C13   O41   A    
C60   C83   A    
C31   C39   T    
C12   C81   A    
C26   O30   A    
C34   C87   A    
C50   H13   S    
C55   C87   A    
O52   Zn4   S    
C44   C94   A    
O34   Zn16  S    
C55   C73   A    
O3    Zn6   S    
C27   C43   T    
O6    Zn14  S    
C83   C86   A    
C18   C32   S    
O20   Zn2   S    
O4    Zn5   S    
C55   H3    S    
C1    C80   A    
C54   H2    S    
C52   C91   A    
C53   C85   A    
C51   C69   A    
C22   O38   A    
C18   O22   A    
C50   C68   A    
C59   C76   A    
C24   O28   A    
C10   O15   A    
