data_mof_unit_46491.cif
_audit_creation_date              2013-03-05T16:35:21-0500
_audit_creation_method            fapswitch 2.2
_symmetry_space_group_name_H-M    P1
_symmetry_Int_Tables_number       1
_space_group_crystal_system       triclinic
_cell_length_a                    15.926164
_cell_length_b                    9.092355
_cell_length_c                    7.791039
_cell_angle_alpha                 89.99614
_cell_angle_beta                  90.15925
_cell_angle_gamma                 90.001639
_cell_volume                      1128.18745724

loop_
_atom_site_label
_atom_site_type_symbol
_atom_site_description
_atom_site_fract_x
_atom_site_fract_y
_atom_site_fract_z
_atom_type_partial_charge
O1    O     O_R   0.500000 0.288400 0.642760 -0.571151
O2    O     O_R   0.500000 0.288400 0.357240 -0.571439
H1    H     H_    0.071123 0.715285 0.565553 0.236351
H2    H     H_    0.072109 0.679373 0.340363 0.227046
H3    H     H_    0.927659 0.718688 0.557468 0.239975
H4    H     H_    0.928654 0.672716 0.334675 0.223358
C1    C     C_R   0.500000 0.220045 0.500004 0.860606
O3    O     O_R   0.379440 0.500020 0.642850 -0.569258
O4    O     O_R   0.379440 0.500020 0.357150 -0.572716
O5    O     O_R   0.620560 0.500020 0.642850 -0.570479
O6    O     O_R   0.620560 0.500020 0.357150 -0.573136
C2    C     C_R   0.339857 0.499889 0.499758 0.817840
C3    C     C_R   0.660143 0.499924 0.500276 0.818072
Cu1   Cu    Cu3+1 0.500000 0.500010 0.669080 1.055092
Cu2   Cu    Cu3+1 0.500000 0.500010 0.330920 1.052976
C4    C     C_1   0.500000 0.934629 0.499995 -0.136107
O7    O     O_R   0.500000 0.711620 0.642810 -0.578140
O8    O     O_R   0.500000 0.711620 0.357190 -0.577697
C5    C     C_1   0.500000 0.065384 0.500005 -0.128132
C6    C     C_R   0.500000 0.779964 0.499996 0.837838
C7    C     C_3   0.050567 0.434683 0.683008 0.115472
C8    C     C_3   0.048085 0.379081 0.352321 0.132559
C9    C     C_3   0.951884 0.439685 0.689096 0.119102
C10   C     C_3   0.949435 0.375090 0.361634 0.126992
H5    H     H_    0.063929 0.436824 0.230241 0.109264
H6    H     H_    0.072287 0.523127 0.772133 0.099666
H7    H     H_    0.926880 0.423450 0.238158 0.125971
H8    H     H_    0.935141 0.533879 0.774142 0.087770
N1    N     N_1   0.500000 0.499970 0.076820 -0.031021
N2    N     N_1   0.500000 0.499970 0.923180 -0.030899
C11   C     C_1   0.749476 0.495320 0.501348 -0.077649
C12   C     C_1   0.250528 0.495039 0.499186 -0.075435
C13   C     C_3   0.083313 0.479776 0.500662 -0.026583
C14   C     C_3   0.916710 0.480447 0.506048 -0.028573
C15   C     C_3   0.951294 0.636488 0.463284 -0.487063
C16   C     C_3   0.048572 0.637114 0.465481 -0.488521
C17   C     C_1   0.824717 0.489275 0.503480 0.072865
C18   C     C_1   0.175289 0.488730 0.499167 0.077552
N3    N     N_R   0.913963 0.310127 0.772497 0.193640
O9    O     O_R   0.846169 0.248655 0.712669 -0.286487
O10   O     O_R   0.936185 0.278953 0.929160 -0.280645
N4    N     N_R   0.912514 0.226813 0.370319 0.199140
O11   O     O_R   0.942180 0.125750 0.471690 -0.225847
O12   O     O_R   0.850437 0.193239 0.268613 -0.288068
N5    N     N_R   0.088262 0.297650 0.747963 0.194238
O13   O     O_R   0.061912 0.169073 0.698854 -0.201713
O14   O     O_R   0.145771 0.304516 0.866695 -0.314618
N6    N     N_R   0.086880 0.232537 0.334612 0.197912
O15   O     O_R   0.154573 0.196714 0.418570 -0.301433
O16   O     O_R   0.065257 0.151098 0.204379 -0.228483

loop_
_geom_bond_atom_site_label_1
_geom_bond_atom_site_label_2
_geom_bond_distance
_ccdc_geom_bond_type
Cu2   O8    1.934902 S    
C8    N6    1.475364 S    
C7    H6    1.116787 S    
H2    C16   1.113711 S    
N1    N2    1.197016 T    
C12   C18   1.199636 T    
C14   C17   1.467368 S    
C10   N4    1.472444 S    
C1    C5    1.406231 S    
C13   C18   1.467170 S    
C10   H7    1.116185 S    
O3    C2    1.279204 A    
C4    C6    1.406265 S    
C9    C14   1.574967 S    
O7    C6    1.274396 A    
N6    O16   1.301745 A    
O4    Cu2   1.931468 S    
O5    C3    1.278742 A    
N3    O10   1.301134 A    
O1    C1    1.274126 A    
C9    H8    1.115669 S    
C2    C12   1.423343 S    
O2    Cu2   1.934917 S    
O6    C3    1.279435 A    
Cu1   O7    1.934874 S    
N4    O12   1.301608 A    
H1    C16   1.113804 S    
Cu1   N2    1.979702 S    
C4    C5    1.188874 T    
C9    N3    1.475344 S    
H3    C15   1.113710 S    
N6    O15   1.300895 A    
Cu2   N1    1.979702 S    
O8    C6    1.274420 A    
C7    C9    1.573159 S    
O4    C2    1.278974 A    
C8    C10   1.573401 S    
C7    C13   1.569200 S    
N4    O11   1.299698 A    
C11   C17   1.199640 T    
C13   C16   1.557872 S    
H4    C15   1.113768 S    
C14   C15   1.558275 S    
O5    Cu1   1.931466 S    
N5    O14   1.301444 A    
N3    O9    1.300997 A    
C8    C13   1.576459 S    
Cu1   Cu2   2.634619 S    
O3    Cu1   1.930338 S    
O1    Cu1   1.934945 S    
O2    C1    1.274103 A    
N5    O13   1.299364 A    
O6    Cu2   1.930337 S    
C3    C11   1.423344 S    
C10   C14   1.568014 S    
C15   C16   1.549319 S    
C7    N5    1.472130 S    
C8    H5    1.115893 S    
