data_mof_unit_10169.cif
_audit_creation_date              2012-12-10T18:44:59-0500
_audit_creation_method            fapswitch 2.2
_symmetry_space_group_name_H-M    P1
_symmetry_Int_Tables_number       1
_space_group_crystal_system       triclinic
_cell_length_a                    19.489038
_cell_length_b                    18.087979
_cell_length_c                    10.883679
_cell_angle_alpha                 90.150328
_cell_angle_beta                  89.416758
_cell_angle_gamma                 90.122232
_cell_volume                      3836.4647449

loop_
_atom_site_label
_atom_site_type_symbol
_atom_type_description
_atom_site_fract_x
_atom_site_fract_y
_atom_site_fract_z
_atom_type_partial_charge
C1    C     C_R   0.367320 0.499994 0.502161 0.800525
C2    C     C_R   0.632733 0.500106 0.498608 0.797970
C3    C     C_R   0.853025 0.489417 0.497203 0.095716
C4    C     C_R   0.146953 0.490195 0.503220 0.088338
C5    C     C_R   0.821450 0.556452 0.465001 -0.010856
C6    C     C_R   0.179174 0.556406 0.539989 -0.034636
C7    C     C_R   0.749081 0.561577 0.464571 -0.068460
C8    C     C_R   0.251612 0.561044 0.541060 -0.064542
C9    C     C_R   0.708735 0.499157 0.497666 -0.096410
C10   C     C_R   0.291396 0.498983 0.504508 -0.097029
C11   C     C_R   0.962722 0.488908 0.608420 -0.243056
C12   C     C_R   0.033999 0.488945 0.609938 -0.219211
C13   C     C_R   0.071618 0.483875 0.499923 0.078854
C14   C     C_R   0.928100 0.482605 0.497070 0.081180
C15   C     C_R   0.037434 0.475157 0.387420 0.114614
C16   C     C_R   0.964971 0.473808 0.386159 0.131732
C17   C     C_R   0.458408 0.720727 0.421590 0.102637
C18   C     C_R   0.540798 0.721191 0.579691 0.097662
C19   C     C_R   0.456775 0.798243 0.421550 -0.309365
C20   C     C_R   0.541530 0.798711 0.581148 -0.299752
C21   C     C_R   0.499080 0.838324 0.501467 0.117423
C22   C     C_R   0.505202 0.500443 0.262016 0.800765
C23   C     C_R   0.495497 0.500747 0.738219 0.799785
C24   C     C_R   0.561294 0.960575 0.498904 -0.186595
C25   C     C_R   0.437208 0.960564 0.503454 -0.186066
C26   C     C_R   0.561425 0.038133 0.497374 -0.165597
C27   C     C_R   0.437375 0.038141 0.504341 -0.164533
C28   C     C_R   0.499479 0.077927 0.500697 0.107870
C29   C     C_R   0.499177 0.920840 0.501352 0.117665
C30   C     C_R   0.464004 0.201182 0.409031 -0.093019
C31   C     C_R   0.535524 0.201634 0.591552 -0.093415
C32   C     C_R   0.464396 0.279001 0.412787 0.026080
C33   C     C_R   0.535476 0.279424 0.587368 0.026084
C34   C     C_R   0.499662 0.161012 0.500422 -0.002533
C35   C     C_R   0.537882 0.637412 0.116395 -0.237473
C36   C     C_R   0.479229 0.641549 0.886170 -0.262678
C37   C     C_R   0.529281 0.705688 0.058703 0.194543
C38   C     C_R   0.497018 0.708129 0.944047 0.164940
C39   C     C_R   0.494891 0.571995 0.938682 0.071762
C40   C     C_R   0.514544 0.570654 0.062542 0.054573
C41   C     C_R   0.509753 0.502601 0.127619 -0.101778
C42   C     C_R   0.492104 0.503706 0.872842 -0.102500
C43   C     C_R   0.500490 0.436372 0.063146 -0.206221
C44   C     C_R   0.494637 0.436763 0.936784 -0.211456
C45   C     C_R   0.741878 0.433166 0.530367 -0.204869
C46   C     C_R   0.257844 0.433609 0.469011 -0.213077
C47   C     C_R   0.813067 0.428434 0.530232 -0.188067
C48   C     C_R   0.186663 0.429337 0.468324 -0.151061
Cu1   Cu    Cu3+1 0.500000 0.573360 0.500000 0.942439
Cu2   Cu    Cu3+1 0.500000 0.426640 0.500000 0.934052
H1    H     H_    0.498008 0.383761 0.110368 0.163258
H2    H     H_    0.491325 0.384211 0.889183 0.163978
H3    H     H_    0.426116 0.690189 0.359047 0.123524
H4    H     H_    0.573183 0.691020 0.642105 0.124010
H5    H     H_    0.423540 0.826625 0.358085 0.128563
H6    H     H_    0.574577 0.827501 0.644816 0.123130
H7    H     H_    0.609817 0.931519 0.496055 0.123094
H8    H     H_    0.388583 0.931506 0.506470 0.123077
H9    H     H_    0.610009 0.067228 0.493365 0.136600
H10   H     H_    0.388905 0.067255 0.508095 0.136432
H11   H     H_    0.437005 0.310035 0.344038 0.129286
H12   H     H_    0.562984 0.310779 0.655992 0.130373
H13   H     H_    0.565040 0.637742 0.202179 0.191132
H14   H     H_    0.450905 0.645664 0.802160 0.183671
H15   H     H_    0.712622 0.384657 0.556809 0.153989
H16   H     H_    0.286784 0.385368 0.440372 0.152732
H17   H     H_    0.837194 0.376847 0.555629 0.135971
H18   H     H_    0.162290 0.378201 0.440239 0.138821
H19   H     H_    0.934379 0.495368 0.693915 0.145778
H20   H     H_    0.060032 0.494448 0.696928 0.143033
N1    N     N_R   0.500000 0.683620 0.500000 -0.170041
N2    N     N_R   0.500000 0.316380 0.500000 -0.182276
O1    O     O_R   0.400190 0.561980 0.499980 -0.577922
O2    O     O_R   0.599810 0.561980 0.500020 -0.578701
O3    O     O_R   0.400190 0.438070 0.500040 -0.584221
O4    O     O_R   0.599810 0.438070 0.499960 -0.583544
O5    O     O_R   0.500000 0.561970 0.319650 -0.597768
O6    O     O_R   0.500000 0.561970 0.680350 -0.599073
O7    O     O_R   0.500010 0.438060 0.319710 -0.588719
O8    O     O_R   0.499990 0.438060 0.680290 -0.589403
C49   C     C_R   0.427392 0.164065 0.307076 0.098534
C50   C     C_R   0.357966 0.179985 0.285752 -0.175567
C51   C     C_R   0.323173 0.144932 0.190093 -0.133299
C52   C     C_R   0.357356 0.093936 0.114881 -0.114165
C53   C     C_R   0.426499 0.078205 0.134763 -0.136248
C54   C     C_R   0.461646 0.113468 0.229775 -0.110390
H21   H     H_    0.330650 0.218957 0.343918 0.115940
H22   H     H_    0.269627 0.157148 0.174511 0.122202
H23   H     H_    0.330290 0.066659 0.041128 0.118227
H24   H     H_    0.452813 0.038616 0.076571 0.117766
H25   H     H_    0.515442 0.101308 0.243080 0.124845
C55   C     C_R   0.571958 0.165025 0.693730 0.098050
C56   C     C_R   0.641490 0.180905 0.714833 -0.175209
C57   C     C_R   0.676122 0.146306 0.810675 -0.132007
C58   C     C_R   0.641669 0.095817 0.886297 -0.115955
C59   C     C_R   0.572419 0.080144 0.866643 -0.136614
C60   C     C_R   0.537438 0.114945 0.771432 -0.108919
H26   H     H_    0.669007 0.219484 0.656351 0.115944
H27   H     H_    0.729750 0.158481 0.826083 0.122103
H28   H     H_    0.668608 0.068893 0.960196 0.117073
H29   H     H_    0.545894 0.040962 0.925168 0.116858
H30   H     H_    0.483565 0.102831 0.758281 0.125161
N3    N     N_3   0.552471 0.771377 0.120503 -0.624894
H31   H     H_    0.522720 0.777631 0.200033 0.225719
H32   H     H_    0.544812 0.818852 0.068262 0.232999
N4    N     N_3   0.483544 0.777801 0.885880 -0.619909
H33   H     H_    0.455794 0.770101 0.805281 0.222513
H34   H     H_    0.530818 0.800056 0.858622 0.207492
C61   C     C_R   0.863557 0.622224 0.433843 0.122748
C62   C     C_R   0.884554 0.670491 0.527284 -0.136341
C63   C     C_R   0.916300 0.737477 0.497376 -0.111616
C64   C     C_R   0.928604 0.755811 0.374393 -0.118725
C65   C     C_R   0.908910 0.707273 0.281051 -0.144459
C66   C     C_R   0.875908 0.640903 0.310510 -0.126481
H35   H     H_    0.874201 0.657344 0.622724 0.111900
H36   H     H_    0.930821 0.775490 0.569506 0.116459
H37   H     H_    0.953120 0.807775 0.351431 0.108601
H38   H     H_    0.918041 0.721718 0.185840 0.117904
H39   H     H_    0.858325 0.605071 0.237438 0.125633
C67   C     C_R   0.137854 0.622039 0.574556 0.118709
C68   C     C_R   0.116623 0.671484 0.483580 -0.123858
C69   C     C_R   0.085768 0.738324 0.516953 -0.120006
C70   C     C_R   0.074361 0.755220 0.640899 -0.120154
C71   C     C_R   0.094127 0.705411 0.731781 -0.125661
C72   C     C_R   0.126349 0.639212 0.698900 -0.140182
H40   H     H_    0.126214 0.659402 0.387414 0.118426
H41   H     H_    0.071227 0.777328 0.446759 0.116570
H42   H     H_    0.050409 0.807017 0.666497 0.108301
H43   H     H_    0.085538 0.718665 0.827727 0.116794
H44   H     H_    0.143512 0.602006 0.770024 0.110555
C73   C     C_R   0.718083 0.632041 0.424595 0.162741
C74   C     C_R   0.712855 0.691535 0.507195 -0.125247
C75   C     C_R   0.694967 0.761727 0.464853 -0.143208
C76   C     C_R   0.682001 0.772802 0.340245 -0.078510
C77   C     C_R   0.687561 0.713775 0.257659 -0.133023
C78   C     C_R   0.704859 0.643393 0.299675 -0.167955
H45   H     H_    0.724738 0.683963 0.603329 0.105259
H46   H     H_    0.691946 0.807719 0.528432 0.114104
H47   H     H_    0.668496 0.827261 0.307502 0.125657
H48   H     H_    0.679591 0.722672 0.160641 0.155147
H49   H     H_    0.710729 0.598498 0.234383 0.115994
C79   C     C_R   0.283562 0.630716 0.584185 0.160236
C80   C     C_R   0.286192 0.692512 0.506484 -0.121303
C81   C     C_R   0.306646 0.761256 0.552332 -0.129621
C82   C     C_R   0.325136 0.768558 0.675430 -0.103126
C83   C     C_R   0.322819 0.707143 0.753066 -0.163750
C84   C     C_R   0.302512 0.638223 0.707594 -0.144401
H50   H     H_    0.270562 0.687771 0.411579 0.107258
H51   H     H_    0.307665 0.808991 0.492621 0.114255
H52   H     H_    0.340813 0.821893 0.710802 0.124321
H53   H     H_    0.336112 0.713087 0.848886 0.140478
H54   H     H_    0.299379 0.591374 0.769182 0.110934
N5    N     N_3   0.076668 0.470095 0.275473 -0.610278
H55   H     H_    0.064319 0.420521 0.231338 0.208588
H56   H     H_    0.063236 0.514123 0.218644 0.212775
N6    N     N_3   0.928361 0.463701 0.273650 -0.610621
H57   H     H_    0.943229 0.505032 0.211978 0.206723
H58   H     H_    0.942086 0.412532 0.236110 0.211466

loop_
_geom_bond_atom_site_label_1
_geom_bond_atom_site_label_2
_ccdc_geom_bond_type
C9    C45   A    
C56   C57   A    
C58   C59   A    
C20   H6    S    
Cu2   O7    S    
C82   C83   A    
C70   C71   A    
C32   N2    A    
C53   C54   A    
C12   C13   A    
C54   H25   S    
C37   C38   A    
C23   C42   S    
C5    C61   S    
N6    H57   S    
C35   C37   A    
C24   C26   A    
C22   O7    A    
C83   C84   A    
C27   H10   S    
C64   H37   S    
C11   C14   A    
C80   C81   A    
C22   C41   S    
N4    H33   S    
C15   C16   A    
C4    C13   S    
Cu1   O6    S    
C18   C20   A    
C6    C67   S    
C69   H41   S    
Cu1   Cu2   S    
Cu2   N2    S    
C24   C29   A    
C33   N2    A    
C62   C63   A    
C72   H44   S    
C63   C64   A    
C33   H12   S    
C16   N6    S    
C31   C33   A    
C63   H36   S    
C23   O8    A    
N5    H56   S    
C74   C75   A    
C26   H9    S    
C7    C73   S    
C60   H30   S    
C2    O2    A    
C44   H2    S    
C51   H22   S    
C28   C34   S    
C75   H46   S    
C59   H29   S    
C41   C43   A    
C77   H48   S    
C42   C44   A    
C47   H17   S    
C64   C65   A    
C55   C60   A    
C49   C50   A    
C39   C42   A    
C45   C47   A    
C25   C29   A    
C80   H50   S    
C46   C48   A    
C30   C34   A    
C1    O3    A    
C77   C78   A    
C52   C53   A    
C25   H8    S    
C4    C6    A    
C73   C78   A    
C76   H47   S    
C5    C7    A    
C58   H28   S    
C24   H7    S    
C6    C8    A    
C74   H45   S    
C21   C29   S    
C65   H38   S    
C38   N4    S    
C43   C44   A    
C10   C46   A    
C81   H51   S    
Cu2   O4    S    
C51   C52   A    
C53   H24   S    
C59   C60   A    
C31   C34   A    
N3    H32   S    
C48   H18   S    
C68   C69   A    
C3    C14   S    
C61   C66   A    
C40   C41   A    
C50   C51   A    
C13   C15   A    
C45   H15   S    
C75   C76   A    
C14   C16   A    
C52   H23   S    
C73   C74   A    
C17   H3    S    
C39   C40   A    
C2    O4    A    
C67   C68   A    
C37   N3    S    
C65   C66   A    
C4    C48   A    
C19   H5    S    
C18   N1    A    
C7    C9    A    
C12   H20   S    
C19   C21   A    
C67   C72   A    
C79   C84   A    
C36   C39   A    
C1    C10   S    
C82   H52   S    
C22   O5    A    
C81   C82   A    
C3    C5    A    
Cu2   O8    S    
C32   H11   S    
C35   H13   S    
C11   C12   A    
C11   H19   S    
C46   H16   S    
C17   N1    A    
C76   C77   A    
C25   C27   A    
C26   C28   A    
C49   C54   A    
C1    O1    A    
C30   C49   S    
N6    H58   S    
C84   H54   S    
C69   C70   A    
C68   H40   S    
C36   H14   S    
Cu2   O3    S    
C36   C38   A    
C30   C32   A    
C43   H1    S    
C70   H42   S    
C66   H39   S    
N4    H34   S    
C57   H27   S    
C56   H26   S    
C3    C47   A    
C55   C56   A    
C17   C19   A    
C78   H49   S    
Cu1   O5    S    
C71   H43   S    
C35   C40   A    
Cu1   O1    S    
C23   O6    A    
C57   C58   A    
C15   N5    S    
C18   H4    S    
C83   H53   S    
C20   C21   A    
C8    C10   A    
C31   C55   S    
Cu1   N1    S    
N3    H31   S    
C79   C80   A    
Cu1   O2    S    
C8    C79   S    
N5    H55   S    
C61   C62   A    
C2    C9    S    
C62   H35   S    
C50   H21   S    
C71   C72   A    
C27   C28   A    
