data_mof_unit_38225.cif
_audit_creation_date              2012-12-10T18:31:50-0500
_audit_creation_method            fapswitch 2.2
_symmetry_space_group_name_H-M    P1
_symmetry_Int_Tables_number       1
_space_group_crystal_system       triclinic
_cell_length_a                    10.65694
_cell_length_b                    15.020862
_cell_length_c                    15.37468
_cell_angle_alpha                 82.557132
_cell_angle_beta                  90.048669
_cell_angle_gamma                 104.551722
_cell_volume                      2360.81445904

loop_
_atom_site_label
_atom_site_type_symbol
_atom_type_description
_atom_site_fract_x
_atom_site_fract_y
_atom_site_fract_z
_atom_type_partial_charge
C1    C     C_R   0.484721 0.442098 0.662488 0.864884
C2    C     C_3   0.121072 0.499255 0.498403 0.183301
C3    C     C_3   0.101640 0.583230 0.434348 -0.398217
C4    C     C_3   0.074828 0.506469 0.592288 -0.392673
C5    C     C_R   0.494385 0.407338 0.755132 -0.069067
C6    C     C_R   0.558996 0.591187 0.245423 -0.063262
C7    C     C_R   0.474790 0.281567 0.874105 -0.190389
C8    C     C_R   0.460335 0.312115 0.785966 -0.199071
C9    C     C_R   0.546681 0.471001 0.812306 -0.251775
C10   C     C_R   0.565774 0.441698 0.900280 0.087512
C11   C     C_R   0.524482 0.345904 0.931907 0.125626
C12   C     C_R   0.742287 0.500759 0.499609 0.827256
C13   C     C_R   0.615376 0.506257 0.958794 0.049454
C14   C     C_R   0.597554 0.476601 0.049919 0.016414
C15   C     C_R   0.570170 0.379357 0.080356 0.076666
C16   C     C_R   0.533729 0.315681 0.020715 -0.221803
C17   C     C_R   0.680307 0.599716 0.929470 -0.217721
C18   C     C_R   0.709451 0.665049 0.987611 -0.238281
C19   C     C_R   0.666230 0.640004 0.074897 0.182785
C20   C     C_R   0.605332 0.545929 0.105486 0.089115
C21   C     C_R   0.678858 0.707802 0.131462 -0.207683
C22   C     C_R   0.627925 0.682994 0.217324 -0.199243
C23   C     C_R   0.521277 0.557832 0.337550 0.853103
C24   C     C_R   0.542168 0.525344 0.187504 -0.276041
C25   C     C_R   0.704875 0.846181 0.631294 -0.366789
C26   C     C_R   0.668038 0.755483 0.611402 0.284265
C27   C     C_R   0.517426 0.794844 0.509260 -0.113936
C28   C     C_R   0.555313 0.888986 0.523681 -0.005046
C29   C     C_R   0.648003 0.912986 0.588159 0.160690
C30   C     C_R   0.503733 0.959184 0.477228 0.093576
C31   C     C_R   0.536118 0.050769 0.501687 0.102125
C32   C     C_R   0.627824 0.070897 0.567377 -0.242716
C33   C     C_R   0.683926 0.003421 0.608694 -0.201445
C34   C     C_R   0.257852 0.499545 0.499033 0.823789
C35   C     C_R   0.422658 0.940791 0.406083 -0.239817
C36   C     C_R   0.365862 0.006871 0.364581 -0.195093
C37   C     C_R   0.386585 0.094363 0.392299 0.077974
C38   C     C_R   0.474513 0.118483 0.460024 -0.015455
C39   C     C_R   0.318307 0.157458 0.354580 -0.080884
C40   C     C_R   0.335277 0.242526 0.385844 0.181933
C41   C     C_R   0.494831 0.209115 0.483915 -0.105246
C42   C     C_3   0.896207 0.408733 0.470416 -0.367388
C43   C     C_3   0.038655 0.408971 0.468088 -0.415089
C44   C     C_3   0.957412 0.583335 0.433855 -0.400085
C45   C     C_3   0.931591 0.509100 0.592325 -0.402634
C46   C     C_3   0.879056 0.500879 0.499096 0.170617
H1    H     H_    0.856596 0.399899 0.404086 0.180458
H2    H     H_    0.134122 0.570368 0.616037 0.180151
H3    H     H_    0.946448 0.650306 0.452332 0.181218
H4    H     H_    0.159176 0.649609 0.454576 0.179545
H5    H     H_    0.511090 0.242027 0.044382 0.158046
H6    H     H_    0.478355 0.457545 0.206933 0.160186
H7    H     H_    0.643200 0.735014 0.261544 0.160747
H8    H     H_    0.758751 0.736224 0.963094 0.142449
H9    H     H_    0.445474 0.207872 0.897327 0.136523
H10   H     H_    0.421582 0.261487 0.742328 0.157329
H11   H     H_    0.567813 0.543942 0.787992 0.162197
H12   H     H_    0.842434 0.348098 0.517108 0.174027
H13   H     H_    0.712405 0.623026 0.862130 0.135570
H14   H     H_    0.728218 0.779559 0.109394 0.138936
H15   H     H_    0.755028 0.021993 0.658062 0.142662
H16   H     H_    0.563128 0.234393 0.532117 0.137907
H17   H     H_    0.302832 0.987589 0.311161 0.153978
H18   H     H_    0.778416 0.864233 0.679279 0.142470
H19   H     H_    0.443688 0.769273 0.464377 0.133461
H20   H     H_    0.052199 0.346949 0.511506 0.177159
H21   H     H_    0.659959 0.138612 0.587855 0.134018
H22   H     H_    0.401938 0.875814 0.379722 0.135974
H23   H     H_    0.068308 0.404623 0.399709 0.173160
H24   H     H_    0.920568 0.577737 0.366475 0.161626
H25   H     H_    0.135939 0.579619 0.366824 0.154302
H26   H     H_    0.922614 0.575168 0.613941 0.177977
H27   H     H_    0.874243 0.451100 0.640120 0.159728
H28   H     H_    0.086776 0.445985 0.638634 0.158892
N1    N     N_R   0.573860 0.731700 0.552730 -0.095914
N2    N     N_R   0.426060 0.268290 0.447230 -0.115425
O1    O     O_R   0.462770 0.383110 0.605620 -0.615141
O2    O     O_R   0.510160 0.531900 0.639510 -0.594926
O3    O     O_R   0.661510 0.425600 0.483070 -0.629382
O4    O     O_R   0.708900 0.574390 0.516960 -0.602928
O5    O     O_R   0.489840 0.468100 0.360490 -0.631203
O6    O     O_R   0.537230 0.616890 0.394380 -0.615186
O7    O     O_R   0.291100 0.425610 0.483040 -0.639339
O8    O     O_R   0.338490 0.574400 0.516930 -0.624658
Zn1   Zn    Zn3+2 0.468350 0.400660 0.477370 0.917492
Zn2   Zn    Zn3+2 0.531650 0.599340 0.522630 0.948180
N3    N     N_3   0.596370 0.342763 0.167640 -0.457450
H29   H     H_    0.660865 0.392663 0.198458 0.199457
H30   H     H_    0.509092 0.317525 0.204145 0.189364
N4    N     N_3   0.248186 0.297839 0.357072 -0.467388
H31   H     H_    0.298273 0.364938 0.332212 0.222625
H32   H     H_    0.187706 0.296888 0.410438 0.198965
N5    N     N_3   0.730817 0.687836 0.651318 -0.401428
H33   H     H_    0.829640 0.711267 0.634126 0.155399
H34   H     H_    0.721571 0.685422 0.719141 0.139151
C47   C     C_1   0.225732 0.134903 0.286400 0.165439
N6    N     N_1   0.151970 0.117060 0.232033 -0.210633

loop_
_geom_bond_atom_site_label_1
_geom_bond_atom_site_label_2
_ccdc_geom_bond_type
C44   H3    S    
C24   H6    S    
N3    H29   S    
N5    H33   S    
C23   O6    A    
C1    O1    A    
C2    C4    S    
C19   C20   A    
C16   H5    S    
C7    H9    S    
C42   H12   S    
C7    C8    A    
C45   C46   S    
C7    C11   A    
C30   C35   A    
C1    C5    S    
C36   C37   A    
C19   C21   A    
O8    Zn2   S    
C18   C19   A    
C30   C31   A    
C15   C16   A    
C6    C22   A    
C12   O3    A    
C29   C33   A    
C45   H27   S    
C38   C41   A    
C42   C46   S    
O4    Zn2   S    
C20   C24   A    
C44   H24   S    
C36   H17   S    
C9    C10   A    
C4    H28   S    
O2    Zn2   S    
C26   N5    S    
O1    Zn1   S    
C43   H23   S    
C21   C22   A    
C45   H26   S    
C1    O2    A    
C8    H10   S    
C34   O8    A    
C41   H16   S    
C27   N1    A    
C3    H4    S    
C44   C46   S    
C17   C18   A    
C22   H7    S    
C4    C45   S    
C25   C29   A    
C3    C44   S    
C14   C20   A    
C21   H14   S    
C12   C46   S    
C39   C40   A    
C25   C26   A    
O6    Zn2   S    
C40   N2    A    
C25   H18   S    
C3    H25   S    
C5    C9    A    
C37   C38   A    
C27   H19   S    
C11   C16   A    
N1    Zn2   S    
N4    H32   S    
C31   C32   A    
C2    C43   S    
C6    C24   A    
C47   N6    T    
C26   N1    A    
C17   H13   S    
C32   H21   S    
O7    Zn1   S    
N3    H30   S    
C34   O7    A    
O3    Zn1   S    
C15   N3    S    
C4    H2    S    
C28   C29   A    
C23   O5    A    
C10   C13   A    
C5    C8    A    
C31   C38   A    
C13   C17   A    
C32   C33   A    
C28   C30   A    
C2    C3    S    
C37   C39   A    
C41   N2    A    
C2    C34   S    
N4    H31   S    
N5    H34   S    
C35   H22   S    
C43   H20   S    
C6    C23   S    
C12   O4    A    
C9    H11   S    
C42   H1    S    
C39   C47   S    
C10   C11   A    
C18   H8    S    
C33   H15   S    
C42   C43   S    
C27   C28   A    
C14   C15   A    
C35   C36   A    
C40   N4    S    
C13   C14   A    
N2    Zn1   S    
O5    Zn1   S    
