data_mof_unit_18377.cif
_audit_creation_date              2012-12-10T19:47:43-0500
_audit_creation_method            fapswitch 2.2
_symmetry_space_group_name_H-M    P1
_symmetry_Int_Tables_number       1
_space_group_crystal_system       triclinic
_cell_length_a                    18.479763
_cell_length_b                    18.37782
_cell_length_c                    18.41932
_cell_angle_alpha                 120.200269
_cell_angle_beta                  90.055065
_cell_angle_gamma                 119.719227
_cell_volume                      4426.50298373

loop_
_atom_site_label
_atom_site_type_symbol
_atom_type_description
_atom_site_fract_x
_atom_site_fract_y
_atom_site_fract_z
_atom_type_partial_charge
C1    C     C_R   0.639549 0.779867 0.640972 0.787956
C2    C     C_R   0.228187 0.945768 0.155281 -0.218701
C3    C     C_R   0.199641 0.891492 0.194217 -0.098233
C4    C     C_R   0.360916 0.220131 0.359837 0.796275
C5    C     C_R   0.235996 0.947175 0.285914 0.066608
C6    C     C_3   0.196586 0.944668 0.356163 0.163747
C7    C     C_3   0.264222 0.062124 0.417476 0.017750
C8    C     C_R   0.782289 0.552654 0.336617 -0.077418
C9    C     C_R   0.691389 0.492860 0.301054 -0.109059
C10   C     C_R   0.652823 0.426080 0.206591 0.025471
C11   C     C_R   0.707724 0.423284 0.152734 0.152939
C12   C     C_3   0.662268 0.376379 0.654082 0.183497
C13   C     C_R   0.801894 0.493216 0.193418 -0.132825
C14   C     C_R   0.835391 0.556591 0.286252 -0.070567
C15   C     C_3   0.917916 0.634968 0.366794 0.234602
C16   C     C_R   0.360392 0.500213 0.640041 0.801605
C17   C     C_3   0.855376 0.634984 0.423875 0.346944
C18   C     C_R   0.784466 0.948763 0.743385 -0.087929
C19   C     C_R   0.694137 0.892114 0.698661 -0.103725
C20   C     C_R   0.658789 0.949964 0.711527 0.087570
C21   C     C_R   0.714025 0.057425 0.763905 -0.204529
C22   C     C_R   0.804644 0.110443 0.804742 -0.115751
C23   C     C_3   0.699331 0.495412 0.695166 -0.101974
C24   C     C_R   0.836800 0.052957 0.792429 -0.023642
C25   C     C_3   0.919965 0.065374 0.821116 0.417715
C26   C     C_3   0.861462 0.944522 0.762835 0.224251
C27   C     C_R   0.286280 0.572864 0.337241 -0.114449
C28   C     C_R   0.638902 0.498715 0.359570 0.836347
C29   C     C_R   0.301814 0.496760 0.302489 -0.076018
C30   C     C_R   0.259834 0.416838 0.209355 0.101310
C31   C     C_R   0.206343 0.417974 0.156325 -0.275991
C32   C     C_R   0.193010 0.496526 0.194405 -0.090453
C33   C     C_R   0.233190 0.571277 0.285040 0.004983
C34   C     C_3   0.800354 0.495163 0.797995 -0.086929
C35   C     C_3   0.244597 0.667840 0.358812 0.294331
C36   C     C_3   0.302516 0.668145 0.420844 0.283792
C37   C     C_R   0.278290 0.565284 0.726458 0.046767
C38   C     C_R   0.304946 0.499566 0.695824 -0.055159
C39   C     C_R   0.275428 0.431191 0.721026 -0.234404
C40   C     C_R   0.358665 0.499403 0.359063 0.816381
C41   C     C_R   0.221105 0.430801 0.774598 -0.214153
C42   C     C_R   0.195058 0.498684 0.804034 -0.106686
C43   C     C_R   0.225616 0.564614 0.777710 0.083381
C44   C     C_3   0.226037 0.649214 0.783017 0.309196
C45   C     C_3   0.760729 0.555335 0.856238 -0.126590
C46   C     C_3   0.286247 0.649207 0.724704 -0.510356
C47   C     C_R   0.859990 0.498537 0.139736 0.808289
C48   C     C_R   0.139650 0.499641 0.859954 0.796258
C49   C     C_R   0.139586 0.779786 0.139716 0.799448
C50   C     C_R   0.860602 0.220929 0.860159 0.804828
C51   C     C_R   0.139869 0.499110 0.140395 0.826105
C52   C     C_R   0.641213 0.497609 0.638901 0.776045
C53   C     C_R   0.859022 0.498242 0.857402 0.905651
C54   C     C_3   0.801406 0.556512 0.697512 0.170491
C55   C     C_3   0.858721 0.558887 0.762307 -0.147563
C56   C     C_3   0.723689 0.378707 0.719556 0.298082
C57   C     C_3   0.696578 0.552969 0.795616 0.336535
C58   C     C_3   0.647296 0.231525 0.740327 -0.747704
C59   C     C_3   0.549941 0.536741 0.801184 -0.684109
C60   C     C_3   0.783713 0.595972 0.009288 -0.767203
C61   C     C_3   0.398181 0.077208 0.474012 -0.791074
C62   C     C_3   0.659125 0.254244 0.025257 -0.717367
C63   C     C_3   0.049886 0.815078 0.458343 -0.860334
C64   C     C_3   0.930203 0.673015 0.562082 -0.812398
C65   C     C_3   0.066778 0.119250 0.801358 -0.798421
C66   C     C_3   0.897139 0.115205 0.971320 -0.773534
C67   C     C_R   0.293578 0.052920 0.339028 0.038672
C68   C     C_3   0.925013 0.901891 0.840603 -0.787490
C69   C     C_3   0.351700 0.759159 0.299726 -0.735967
C70   C     C_3   0.411594 0.849916 0.542975 -0.773261
C71   C     C_3   0.339954 0.775487 0.936017 -0.775340
C72   C     C_3   0.744521 0.731324 0.924166 -0.816168
C73   C     C_3   0.627668 0.216388 0.505116 -0.873542
C74   C     C_R   0.311448 0.108445 0.302868 -0.099802
C75   C     C_R   0.283036 0.053550 0.209262 -0.218058
H1    H     H_    0.299858 0.093397 0.177731 0.176100
H2    H     H_    0.355045 0.719536 0.758841 0.193684
H3    H     H_    0.595633 0.176334 0.536515 0.250545
H4    H     H_    0.681659 0.207521 0.488212 0.244706
H5    H     H_    0.724078 0.247544 0.634859 0.199783
H6    H     H_    0.787891 0.342281 0.627084 0.184777
H7    H     H_    0.818451 0.637049 0.900957 0.175494
H8    H     H_    0.907854 0.706449 0.752411 0.166703
H9    H     H_    0.823651 0.673203 0.685458 0.241578
H10   H     H_    0.629335 0.349007 0.788485 0.225053
H11   H     H_    0.613575 0.215970 0.785723 0.229624
H12   H     H_    0.707280 0.232873 0.750337 0.263466
H13   H     H_    0.601355 0.168513 0.670847 0.201802
H14   H     H_    0.575319 0.433438 0.792067 0.212819
H15   H     H_    0.479281 0.470597 0.767833 0.230547
H16   H     H_    0.205303 0.905680 0.083698 0.178596
H17   H     H_    0.564051 0.575963 0.767742 0.231985
H18   H     H_    0.559598 0.589654 0.871970 0.219189
H19   H     H_    0.662658 0.505925 0.915787 0.231363
H20   H     H_    0.757741 0.556513 0.042538 0.245203
H21   H     H_    0.786060 0.667403 0.045588 0.215131
H22   H     H_    0.851943 0.617158 0.013611 0.222909
H23   H     H_    0.099755 0.956366 0.317138 0.165456
H24   H     H_    0.064233 0.836944 0.280755 0.191861
H25   H     H_    0.213676 0.917694 0.448249 0.207667
H26   H     H_    0.155067 0.810201 0.342635 0.220870
H27   H     H_    0.234111 0.105981 0.439140 0.111119
H28   H     H_    0.357217 0.171654 0.546257 0.236370
H29   H     H_    0.446336 0.128639 0.457978 0.240051
H30   H     H_    0.369595 0.996895 0.417167 0.265264
H31   H     H_    0.431665 0.089808 0.533181 0.223683
H32   H     H_    0.537004 0.284470 0.123964 0.185615
H33   H     H_    0.541616 0.381291 0.127459 0.169515
H34   H     H_    0.766677 0.497897 0.561494 0.213295
H35   H     H_    0.807661 0.443880 0.583528 0.195720
H36   H     H_    0.611928 0.337908 0.029979 0.208158
H37   H     H_    0.610880 0.211043 0.047937 0.205564
H38   H     H_    0.685290 0.098946 0.772013 0.175486
H39   H     H_    0.723842 0.269845 0.048801 0.240917
H40   H     H_    0.635524 0.205848 0.951267 0.232217
H41   H     H_    0.984218 0.568734 0.313522 0.202795
H42   H     H_    0.017952 0.640114 0.425631 0.204544
H43   H     H_    0.991552 0.723183 0.320895 0.255821
H44   H     H_    0.077820 0.888074 0.465104 0.270280
H45   H     H_    0.100912 0.799931 0.458245 0.232922
H46   H     H_    0.031377 0.825859 0.517924 0.245423
H47   H     H_    0.845120 0.526889 0.443346 0.225403
H48   H     H_    0.936062 0.633556 0.589044 0.250801
H49   H     H_    0.175007 0.356776 0.085633 0.170753
H50   H     H_    0.918907 0.729975 0.611520 0.237902
H51   H     H_    0.994185 0.713723 0.553767 0.233170
H52   H     H_    0.851387 0.748976 0.429280 0.183497
H53   H     H_    0.904415 0.785871 0.528065 0.189957
H54   H     H_    0.529276 0.862674 0.695830 0.214280
H55   H     H_    0.551813 0.854413 0.602404 0.209207
H56   H     H_    0.960900 0.090193 0.723509 0.208780
H57   H     H_    0.105541 0.144002 0.762614 0.232807
H58   H     H_    0.052543 0.043889 0.779982 0.248467
H59   H     H_    0.108119 0.178017 0.872744 0.235853
H60   H     H_    0.293940 0.377969 0.699513 0.166944
H61   H     H_    0.011938 0.131557 0.942603 0.215909
H62   H     H_    0.937386 0.162518 0.042352 0.221476
H63   H     H_    0.849808 0.035061 0.949804 0.256691
H64   H     H_    0.860543 0.146683 0.967315 0.231131
H65   H     H_    0.840980 0.816012 0.649531 0.227851
H66   H     H_    0.869027 0.910508 0.638192 0.169754
H67   H     H_    0.969676 0.602033 0.724321 0.195042
H68   H     H_    0.907025 0.475417 0.675385 0.181374
H69   H     H_    0.791418 0.829057 0.782602 0.235929
H70   H     H_    0.908300 0.864255 0.875752 0.250236
H71   H     H_    0.199751 0.377437 0.792659 0.177226
H72   H     H_    0.984078 0.981251 0.887255 0.238334
H73   H     H_    0.942116 0.861439 0.782591 0.233425
H74   H     H_    0.295688 0.332491 0.117568 0.179658
H75   H     H_    0.206571 0.264726 0.138425 0.169330
H76   H     H_    0.306120 0.822563 0.402682 0.236604
H77   H     H_    0.379886 0.829845 0.302065 0.221507
H78   H     H_    0.317002 0.692507 0.228752 0.231235
H79   H     H_    0.406709 0.762313 0.328556 0.245487
H80   H     H_    0.133816 0.665923 0.341386 0.206803
H81   H     H_    0.117651 0.575903 0.355039 0.165304
H82   H     H_    0.899892 0.639399 0.823428 0.166960
H83   H     H_    0.438742 0.740609 0.470236 0.226077
H84   H     H_    0.477622 0.916739 0.559085 0.237907
H85   H     H_    0.409691 0.843771 0.599957 0.246806
H86   H     H_    0.361673 0.863935 0.533705 0.243505
H87   H     H_    0.204661 0.573727 0.448764 0.164564
H88   H     H_    0.306560 0.648436 0.521179 0.214022
H89   H     H_    0.099824 0.607578 0.777136 0.226981
H90   H     H_    0.108559 0.543345 0.677059 0.162920
H91   H     H_    0.277691 0.805415 0.870956 0.228398
H92   H     H_    0.362299 0.849589 0.999577 0.231108
H93   H     H_    0.254911 0.621531 0.656488 0.193464
H94   H     H_    0.396540 0.785595 0.911158 0.226407
H95   H     H_    0.318271 0.717400 0.950407 0.244699
H96   H     H_    0.710892 0.673359 0.789437 0.230214
H97   H     H_    0.715538 0.773452 0.929129 0.231042
H98   H     H_    0.816510 0.788219 0.961377 0.237708
H99   H     H_    0.713608 0.691032 0.955815 0.259646
H100  H     H_    0.526420 0.291710 0.590947 0.242465
H101  H     H_    0.549445 0.251051 0.641502 0.183581
H102  H     H_    0.644880 0.345255 0.525280 0.212525
H103  H     H_    0.578955 0.177423 0.440788 0.236642
N1    N     N_3   0.838919 0.665068 0.734172 -0.451116
N2    N     N_2   0.667909 0.349323 0.058368 -0.271408
N3    N     N_3   0.962647 0.588181 0.368422 -0.479399
N4    N     N_2   0.975096 0.731561 0.376595 -0.307621
N5    N     N_2   0.857653 0.599127 0.478242 -0.266651
N6    N     N_3   0.850632 0.724395 0.469817 -0.424833
N7    N     N_3   0.568048 0.903369 0.671100 -0.476445
N8    N     N_2   0.985681 0.111810 0.786412 -0.279583
N9    N     N_2   0.955050 0.121109 0.918114 -0.265881
N10   N     N_3   0.882582 0.895636 0.682476 -0.478215
N11   N     N_3   0.928354 0.545259 0.733768 -0.432490
N12   N     N_2   0.671057 0.329939 0.761961 -0.261657
N13   N     N_2   0.850588 0.900036 0.812179 -0.292872
N14   N     N_3   0.269443 0.333470 0.168068 -0.416799
N15   N     N_2   0.290347 0.752774 0.349196 -0.276559
N16   N     N_3   0.162906 0.652346 0.377389 -0.484077
N17   N     N_2   0.394084 0.756682 0.463661 -0.301530
N18   N     N_3   0.263412 0.647620 0.483587 -0.446361
N19   N     N_3   0.139411 0.615890 0.737624 -0.475191
N20   N     N_2   0.267372 0.745383 0.871866 -0.270632
N21   N     N_2   0.730534 0.660202 0.831370 -0.285744
N22   N     N_3   0.568916 0.318844 0.649092 -0.464886
N23   N     N_2   0.604861 0.499811 0.795499 -0.294263
N24   N     N_2   0.662868 0.325206 0.561574 -0.321933
N25   N     N_3   0.766905 0.327348 0.672949 -0.462895
N26   N     N_2   0.726035 0.528373 0.917415 -0.284235
N27   N     N_3   0.104863 0.913524 0.335899 -0.485733
N28   N     N_3   0.209210 0.887075 0.381647 -0.441249
N29   N     N_2   0.331532 0.097847 0.491798 -0.286878
N30   N     N_3   0.558469 0.361210 0.165327 -0.412181
N31   N     N_3   0.811195 0.510737 0.608648 -0.480925
O1    O     O_3   0.500000 0.500000 0.500000 -0.479766
O2    O     O_R   0.945140 0.268320 0.884430 -0.613228
O3    O     O_R   0.116800 0.560590 0.177500 -0.651708
O4    O     O_R   0.676800 0.731580 0.616070 -0.655162
O5    O     O_R   0.822390 0.439230 0.883130 -0.592917
O6    O     O_R   0.116800 0.439160 0.056060 -0.642202
O7    O     O_R   0.943840 0.560660 0.883130 -0.654706
O8    O     O_R   0.115490 0.731510 0.054770 -0.641099
O9    O     O_R   0.823160 0.268340 0.883890 -0.662074
O10   O     O_R   0.945140 0.560620 0.176740 -0.686876
O11   O     O_R   0.116030 0.439190 0.884430 -0.643020
O12   O     O_R   0.384470 0.439280 0.616070 -0.657519
O13   O     O_R   0.384470 0.268410 0.445190 -0.653519
O14   O     O_R   0.383920 0.560720 0.615530 -0.645632
O15   O     O_R   0.554810 0.439290 0.323210 -0.621475
O16   O     O_R   0.383160 0.560750 0.443890 -0.677464
O17   O     O_R   0.677560 0.560680 0.616830 -0.673197
O18   O     O_R   0.383160 0.439320 0.322450 -0.610998
O19   O     O_R   0.556120 0.439250 0.616830 -0.631245
O20   O     O_R   0.676800 0.560710 0.445190 -0.625213
O21   O     O_R   0.554810 0.731590 0.615530 -0.664333
O22   O     O_R   0.383920 0.268420 0.323210 -0.642148
O23   O     O_3   0.999960 0.499910 0.999960 -0.490049
O24   O     O_R   0.823160 0.439210 0.054770 -0.601615
O25   O     O_R   0.115490 0.560640 0.883890 -0.637846
O26   O     O_R   0.116030 0.731490 0.176740 -0.657318
Zn1   Zn    Zn3+2 0.457010 0.413240 0.543760 0.929060
Zn2   Zn    Zn3+2 0.456230 0.586760 0.542990 0.924562
Zn3   Zn    Zn3+2 0.456230 0.413270 0.369490 0.976015
Zn4   Zn    Zn3+2 0.630520 0.586730 0.543760 0.932459
Zn5   Zn    Zn3+2 0.042950 0.586670 0.956190 0.955882
Zn6   Zn    Zn3+2 0.043720 0.586650 0.130470 0.919942
Zn7   Zn    Zn3+2 0.043720 0.413150 0.956960 0.976593
Zn8   Zn    Zn3+2 0.869430 0.413180 0.956190 0.961668

loop_
_geom_bond_atom_site_label_1
_geom_bond_atom_site_label_2
_ccdc_geom_bond_type
H14   N23   S    
C34   C56   S    
C53   O5    A    
H54   N7    S    
C27   C29   A    
O23   Zn8   S    
O16   Zn2   S    
C41   C42   A    
C70   N17   S    
C35   C36   S    
H53   N6    S    
H33   N30   S    
C58   H12   S    
H91   N20   S    
C3    C49   S    
H55   N7    S    
C39   C41   A    
C56   N25   S    
C39   H60   S    
C27   C33   A    
C44   N20   S    
C12   C23   S    
C45   C57   S    
C29   C30   A    
C46   H93   S    
H24   N27   S    
O22   Zn3   S    
C18   C24   A    
C72   H97   S    
C21   C22   A    
H28   N29   S    
C31   H49   S    
C62   H39   S    
C23   C54   S    
C62   N2    S    
C30   C31   A    
H42   N3    S    
H5    N25   S    
C51   O6    A    
C15   N4    S    
C11   C13   A    
H26   N28   S    
C54   N1    S    
C23   C57   S    
C70   H84   S    
C40   O16   A    
C10   N30   S    
O26   Zn6   S    
C6    N27   S    
H96   N21   S    
C25   N9    S    
C35   N16   S    
C20   N7    S    
C65   N8    S    
C64   N5    S    
C26   N10   S    
C1    O21   A    
C60   N26   S    
C54   N31   S    
C41   H71   S    
C45   H7    S    
C8    C9    A    
O6    Zn7   S    
C7    H27   S    
C18   C26   S    
C58   N12   S    
C73   H3    S    
C71   H94   S    
H23   N27   S    
C12   N24   S    
C28   O15   A    
O20   Zn4   S    
C61   H30   S    
C9    C10   A    
C4    C74   S    
C65   H59   S    
C68   H73   S    
C5    C67   A    
C22   C50   S    
C44   N19   S    
C63   N4    S    
C71   H92   S    
C13   C14   A    
C57   N21   S    
H52   N6    S    
O2    Zn7   S    
C16   O12   A    
C72   H99   S    
H101  N22   S    
C40   O18   A    
H34   N31   S    
C58   H11   S    
O15   Zn3   S    
C63   H46   S    
H75   N14   S    
C44   C46   S    
H43   N4    S    
H68   N11   S    
C38   C39   A    
C56   N12   S    
C1    C19   S    
O19   Zn1   S    
C74   C75   A    
C66   H64   S    
O23   Zn6   S    
H65   N10   S    
O1    Zn2   S    
C61   H29   S    
C24   C25   S    
C7    N29   S    
C60   H22   S    
O14   Zn2   S    
C13   C47   S    
H25   N28   S    
C18   C19   A    
O25   Zn5   S    
C68   N13   S    
C3    C5    A    
C25   C26   S    
O9    Zn8   S    
H67   N11   S    
O11   Zn7   S    
C50   O9    A    
C69   H78   S    
O10   Zn6   S    
C49   O8    A    
O5    Zn8   S    
C59   H15   S    
O7    Zn5   S    
C37   C43   A    
H9    N1    S    
H81   N16   S    
C75   H1    S    
C36   N18   S    
C32   C51   S    
C37   C38   A    
H90   N19   S    
C63   H44   S    
C59   N23   S    
C31   C32   A    
C66   H63   S    
O23   Zn7   S    
O13   Zn1   S    
H41   N3    S    
H56   N8    S    
C69   N15   S    
C73   H4    S    
C71   H95   S    
C34   C55   S    
H66   N10   S    
C42   C48   S    
C72   H98   S    
C61   H31   S    
O8    Zn5   S    
H32   N30   S    
C12   C56   S    
C68   H72   S    
C34   C45   S    
C61   N29   S    
C73   H103  S    
C60   H21   S    
C21   H38   S    
H47   N5    S    
C12   N22   S    
C50   O2    A    
C53   O7    A    
O1    Zn1   S    
C10   C11   A    
H61   N9    S    
C1    O4    A    
H36   N2    S    
C22   C24   A    
H6    N25   S    
H35   N31   S    
H19   N26   S    
C42   C43   A    
C51   O3    A    
H87   N18   S    
C64   H48   S    
C70   H86   S    
C55   N11   S    
C65   H57   S    
H89   N19   S    
C71   N20   S    
C48   O11   A    
C52   O17   A    
C15   C17   S    
C54   C55   S    
H74   N14   S    
C8    C14   A    
O17   Zn4   S    
C14   C15   S    
C69   H77   S    
O1    Zn3   S    
H83   N17   S    
O4    Zn4   S    
O24   Zn8   S    
C46   H2    S    
C26   N13   S    
C6    C7    S    
H69   N13   S    
C27   C36   S    
O3    Zn6   S    
C73   N24   S    
C64   H51   S    
C69   H79   S    
C17   N5    S    
H8    N1    S    
C32   C33   A    
H76   N15   S    
C19   C20   A    
C2    C3    A    
H10   N12   S    
C36   N17   S    
C62   H40   S    
O12   Zn1   S    
H80   N16   S    
O1    Zn4   S    
C8    C17   S    
C16   O14   A    
C63   H45   S    
O18   Zn3   S    
C17   N6    S    
C23   C52   S    
C5    C6    S    
C66   H62   S    
C47   O10   A    
H88   N18   S    
C43   C44   S    
C45   N26   S    
C4    O13   A    
C15   N3    S    
C29   C40   S    
C33   C35   S    
C70   H85   S    
C4    O22   A    
C67   C74   A    
C59   H17   S    
C68   H70   S    
C52   O19   A    
C2    H16   S    
C48   O25   A    
H100  N22   S    
C6    N28   S    
C25   N8    S    
C35   N15   S    
C7    C67   S    
C60   H20   S    
C30   N14   S    
C55   H82   S    
C62   H37   S    
C20   C21   A    
C34   C53   S    
C49   O26   A    
C64   H50   S    
C57   N23   S    
O23   Zn5   S    
H102  N24   S    
O21   Zn2   S    
C11   N2    S    
C59   H18   S    
C47   O24   A    
C37   C46   S    
C66   N9    S    
C58   H13   S    
C28   O20   A    
C65   H58   S    
C2    C75   A    
C9    C28   S    
C16   C38   S    
C72   N21   S    
