data_mof_unit_17948.cif
_audit_creation_date              2012-12-10T18:04:36-0500
_audit_creation_method            fapswitch 2.2
_symmetry_space_group_name_H-M    P1
_symmetry_Int_Tables_number       1
_space_group_crystal_system       triclinic
_cell_length_a                    19.17345
_cell_length_b                    17.753462
_cell_length_c                    12.663583
_cell_angle_alpha                 90.574732
_cell_angle_beta                  99.692404
_cell_angle_gamma                 90.065805
_cell_volume                      4248.85974403

loop_
_atom_site_label
_atom_site_type_symbol
_atom_type_description
_atom_site_fract_x
_atom_site_fract_y
_atom_site_fract_z
_atom_type_partial_charge
C1    C     C_R   0.414681 0.106355 0.447435 0.905076
C2    C     C_R   0.412168 0.895845 0.444374 0.891739
C3    C     C_R   0.914676 0.606351 0.447431 0.905129
C4    C     C_R   0.912176 0.395838 0.444380 0.891776
C5    C     C_R   0.739944 0.226752 0.544373 -0.004756
C6    C     C_R   0.760175 0.797519 0.560711 -0.023601
C7    C     C_R   0.239954 0.726737 0.544367 -0.004806
C8    C     C_R   0.260173 0.297515 0.560722 -0.023570
C9    C     C_R   0.777266 0.223067 0.652134 -0.112163
C10   C     C_R   0.769607 0.760464 0.660695 -0.093287
C11   C     C_R   0.277309 0.723001 0.652105 -0.112166
C12   C     C_R   0.269584 0.260440 0.660690 -0.093291
C13   C     C_R   0.347127 0.751702 0.676372 -0.061157
C14   C     C_R   0.334443 0.223221 0.693427 -0.033314
C15   C     C_R   0.847079 0.251777 0.676426 -0.061201
C16   C     C_R   0.834474 0.723251 0.693420 -0.033327
C17   C     C_R   0.377873 0.782503 0.594601 -0.219074
C18   C     C_R   0.376933 0.208011 0.616324 -0.187477
C19   C     C_R   0.877855 0.282535 0.594657 -0.219035
C20   C     C_R   0.876948 0.708031 0.616297 -0.187437
C21   C     C_R   0.667711 0.206857 0.522745 -0.101407
C22   C     C_R   0.712673 0.857321 0.545451 -0.159402
C23   C     C_R   0.167716 0.706856 0.522776 -0.101399
C24   C     C_R   0.212677 0.357325 0.545473 -0.159380
C25   C     C_R   0.678105 0.154916 0.699909 -0.183359
C26   C     C_R   0.652141 0.802547 0.679566 -0.259709
C27   C     C_R   0.178166 0.654825 0.699895 -0.183443
C28   C     C_R   0.152116 0.302522 0.679537 -0.259837
C29   C     C_R   0.364937 0.831966 0.411553 -0.210701
C30   C     C_R   0.375010 0.176836 0.423826 -0.182533
C31   C     C_R   0.864963 0.331939 0.411577 -0.210745
C32   C     C_R   0.874993 0.676821 0.423806 -0.182483
C33   C     C_R   0.630118 0.060687 0.139024 -0.224969
C34   C     C_R   0.130124 0.560665 0.139015 -0.224964
C35   C     C_R   0.378353 0.985105 0.755062 -0.028044
C36   C     C_R   0.878343 0.485158 0.755048 -0.028030
C37   C     C_R   0.347069 0.979891 0.846025 -0.106072
C38   C     C_R   0.847043 0.479966 0.846001 -0.106277
C39   C     C_R   0.591880 0.900340 0.557212 0.950449
C40   C     C_R   0.588514 0.103332 0.556285 1.009521
C41   C     C_R   0.091879 0.400340 0.557211 0.950478
C42   C     C_R   0.088519 0.603327 0.556288 1.009526
C43   C     C_R   0.389010 0.992358 0.947845 -0.067524
C44   C     C_R   0.888998 0.492377 0.947830 -0.067459
C45   C     C_R   0.463103 0.008551 0.954331 -0.032859
C46   C     C_R   0.963099 0.508543 0.954328 -0.032995
C47   C     C_R   0.491055 0.012372 0.857431 0.090044
C48   C     C_R   0.991055 0.512352 0.857432 0.090156
C49   C     C_R   0.512729 0.017950 0.050950 -0.047482
C50   C     C_R   0.012726 0.517941 0.050948 -0.047648
C51   C     C_R   0.579678 0.051861 0.046604 -0.079693
C52   C     C_R   0.079681 0.551838 0.046597 -0.079668
C53   C     C_R   0.599865 0.065914 0.948448 0.583274
C54   C     C_R   0.099872 0.565876 0.948439 0.583317
C55   C     C_R   0.563669 0.027152 0.860585 -0.197398
C56   C     C_R   0.063673 0.527106 0.860588 -0.197308
C57   C     C_R   0.502006 0.990268 0.150253 -0.066357
C58   C     C_R   0.001999 0.490278 0.150260 -0.066622
C59   C     C_R   0.615769 0.032773 0.233853 0.745539
C60   C     C_R   0.115773 0.532761 0.233847 0.745546
C61   C     C_R   0.743966 0.188041 0.730029 0.716469
C62   C     C_R   0.713662 0.763312 0.720460 0.702036
C63   C     C_R   0.244037 0.687934 0.729997 0.716511
C64   C     C_R   0.213629 0.263277 0.720434 0.701979
C65   C     C_R   0.642536 0.159250 0.594717 -0.266937
C66   C     C_R   0.652456 0.852450 0.594678 -0.233357
C67   C     C_R   0.142559 0.659222 0.594731 -0.266932
C68   C     C_R   0.152450 0.352444 0.594676 -0.233296
C69   C     C_R   0.337073 0.820409 0.302739 -0.251157
C70   C     C_R   0.355284 0.199093 0.316970 -0.262385
C71   C     C_R   0.837134 0.320337 0.302760 -0.251103
C72   C     C_R   0.855240 0.699049 0.316942 -0.262417
C73   C     C_R   0.281894 0.769422 0.273072 0.739394
C74   C     C_R   0.304507 0.254679 0.290355 0.716909
C75   C     C_R   0.781967 0.269335 0.273095 0.739395
C76   C     C_R   0.804449 0.754619 0.290323 0.716916
C77   C     C_R   0.250263 0.735434 0.351855 -0.227368
C78   C     C_R   0.272310 0.287720 0.369862 -0.204127
C79   C     C_R   0.750313 0.235375 0.351875 -0.227397
C80   C     C_R   0.772267 0.787675 0.369836 -0.204123
C81   C     C_R   0.275724 0.750200 0.461654 0.079616
C82   C     C_R   0.295494 0.270648 0.478871 0.061394
C83   C     C_R   0.775741 0.250183 0.461673 0.079610
C84   C     C_R   0.795479 0.770635 0.478849 0.061392
C85   C     C_R   0.340317 0.788027 0.489576 0.078361
C86   C     C_R   0.350391 0.218417 0.506358 0.072270
C87   C     C_R   0.840326 0.288023 0.489609 0.078381
C88   C     C_R   0.850385 0.718415 0.506335 0.072247
H1    H     H_    0.656149 0.122780 0.757868 0.260463
H2    H     H_    0.605784 0.796515 0.716983 0.247026
H3    H     H_    0.156234 0.622651 0.757838 0.260519
H4    H     H_    0.105750 0.296484 0.716934 0.247017
H5    H     H_    0.681484 0.085832 0.137603 0.251669
H6    H     H_    0.181493 0.585801 0.137588 0.251640
H7    H     H_    0.455784 0.959380 0.161585 0.158253
H8    H     H_    0.955777 0.459404 0.161609 0.158364
H9    H     H_    0.346456 0.977163 0.676775 0.176133
H10   H     H_    0.846453 0.477239 0.676751 0.176342
H11   H     H_    0.356895 0.851809 0.241141 0.217949
H12   H     H_    0.376975 0.171426 0.253436 0.226143
H13   H     H_    0.856975 0.351712 0.241157 0.218054
H14   H     H_    0.876917 0.671366 0.253406 0.226107
H15   H     H_    0.706124 0.197729 0.326501 0.183265
H16   H     H_    0.728017 0.824953 0.345172 0.187351
H17   H     H_    0.206066 0.697797 0.326482 0.183239
H18   H     H_    0.228071 0.325012 0.345197 0.187336
H19   H     H_    0.431975 0.802477 0.614016 0.177903
H20   H     H_    0.429025 0.184711 0.642641 0.182013
H21   H     H_    0.931955 0.302509 0.614092 0.177932
H22   H     H_    0.929043 0.684736 0.642598 0.182059
N1    N     N_R   0.552340 0.000000 0.237260 -0.165352
N2    N     N_R   0.052340 0.500000 0.237260 -0.165338
N3    N     N_R   0.448170 0.000000 0.762060 -0.131921
N4    N     N_R   0.948170 0.500000 0.762060 -0.131952
O1    O     O_R   0.448200 0.076800 0.373930 -0.588416
O2    O     O_R   0.448200 0.923200 0.373930 -0.620474
O3    O     O_R   0.948200 0.576800 0.373930 -0.588465
O4    O     O_R   0.948200 0.423200 0.373930 -0.620464
O5    O     O_R   0.414750 0.076790 0.542400 -0.631491
O6    O     O_R   0.414750 0.923210 0.542400 -0.627732
O7    O     O_R   0.914750 0.576790 0.542400 -0.631498
O8    O     O_R   0.914750 0.423210 0.542400 -0.627738
O9    O     O_R   0.585240 0.923200 0.457600 -0.584279
O10   O     O_R   0.585240 0.076800 0.457600 -0.513746
O11   O     O_R   0.085240 0.423200 0.457600 -0.584246
O12   O     O_R   0.085240 0.576800 0.457600 -0.513743
O13   O     O_R   0.551780 0.923190 0.626070 -0.611366
O14   O     O_R   0.551780 0.076810 0.626070 -0.645987
O15   O     O_R   0.051780 0.423190 0.626070 -0.611390
O16   O     O_R   0.051780 0.576810 0.626070 -0.645974
Zn1   Zn    Zn3+2 0.522330 0.000000 0.387520 1.040003
Zn2   Zn    Zn3+2 0.022330 0.500000 0.387520 1.039985
Zn3   Zn    Zn3+2 0.477660 0.000000 0.612480 0.962055
Zn4   Zn    Zn3+2 0.977660 0.500000 0.612480 0.962070
F1    F     F_    0.666238 0.092221 0.945702 -0.590032
F2    F     F_    0.166247 0.592174 0.945688 -0.590061
C89   C     C_2   0.352406 0.998798 0.041778 0.901353
O17   O     O_2   0.320342 0.944831 0.069193 -0.552938
O18   O     O_R   0.356634 0.065714 0.101303 -0.798207
H23   H     H_    0.329424 0.062531 0.163170 0.350499
C90   C     C_2   0.852409 0.498768 0.041777 0.901806
O19   O     O_2   0.820535 0.444711 0.069343 -0.553004
O20   O     O_R   0.856466 0.565733 0.101171 -0.798150
H24   H     H_    0.829281 0.562513 0.163062 0.350508
C91   C     C_2   0.269684 0.965574 0.829756 0.980853
O21   O     O_2   0.230103 0.002476 0.764090 -0.568350
O22   O     O_R   0.242237 0.907783 0.884794 -0.674515
H25   H     H_    0.188940 0.902946 0.864881 0.369197
C92   C     C_2   0.769638 0.465721 0.829704 0.981127
O23   O     O_2   0.730128 0.502422 0.763694 -0.568767
O24   O     O_R   0.742087 0.408218 0.885120 -0.674676
H26   H     H_    0.688791 0.403406 0.865144 0.369223
C93   C     C_2   0.607854 0.967962 0.824074 1.029571
O25   O     O_2   0.593512 0.902040 0.837606 -0.611229
O26   O     O_R   0.670319 0.986598 0.787080 -0.739499
H27   H     H_    0.700162 0.941049 0.776344 0.354330
C94   C     C_2   0.107844 0.467887 0.824113 1.029445
O27   O     O_2   0.093456 0.401973 0.837611 -0.611161
O28   O     O_R   0.170341 0.486485 0.787185 -0.739502
H28   H     H_    0.200170 0.440919 0.776478 0.354317
C95   C     C_2   0.388506 0.756536 0.786145 1.023257
O29   O     O_2   0.448885 0.732034 0.804020 -0.572620
O30   O     O_R   0.360175 0.793242 0.867417 -0.702212
H29   H     H_    0.394282 0.794974 0.937888 0.371616
C96   C     C_2   0.363347 0.206514 0.806382 0.979402
O31   O     O_2   0.419578 0.234935 0.847838 -0.595208
O32   O     O_R   0.329031 0.156068 0.864086 -0.702981
H30   H     H_    0.353734 0.151862 0.940967 0.382927
C97   C     C_2   0.888419 0.256671 0.786220 1.023230
O33   O     O_2   0.948798 0.232174 0.804177 -0.572517
O34   O     O_R   0.860050 0.293424 0.867417 -0.702451
H31   H     H_    0.894132 0.295193 0.937911 0.371680
C98   C     C_2   0.863407 0.706557 0.806372 0.979286
O35   O     O_2   0.919686 0.734917 0.847755 -0.595279
O36   O     O_R   0.829075 0.656174 0.864150 -0.702959
H32   H     H_    0.853819 0.651958 0.941010 0.382970
F3    F     F_    0.777103 0.177274 0.832063 -0.556083
F4    F     F_    0.714099 0.723172 0.810817 -0.567575
F5    F     F_    0.277208 0.677110 0.831999 -0.556123
F6    F     F_    0.214053 0.223120 0.810775 -0.567567
C99   C     C_2   0.616275 0.247916 0.440884 0.931914
O37   O     O_2   0.557792 0.221616 0.406563 -0.622216
O38   O     O_R   0.633647 0.319513 0.407832 -0.773747
H33   H     H_    0.594594 0.342195 0.353574 0.371967
C100  C     C_2   0.737608 0.931730 0.510995 1.034362
O39   O     O_2   0.784485 0.935325 0.456620 -0.581421
O40   O     O_R   0.712464 0.998271 0.550506 -0.774829
H34   H     H_    0.736554 0.044740 0.527480 0.366763
C101  C     C_2   0.116265 0.747944 0.440971 0.931886
O41   O     O_2   0.057780 0.721652 0.406660 -0.622258
O42   O     O_R   0.133628 0.819556 0.407962 -0.773781
H35   H     H_    0.094565 0.842258 0.353743 0.371962
C102  C     C_2   0.237627 0.431738 0.511055 1.034372
O43   O     O_2   0.284554 0.435341 0.456779 -0.581456
O44   O     O_R   0.212433 0.498275 0.550487 -0.774810
H36   H     H_    0.236533 0.544746 0.527486 0.366743
F7    F     F_    0.256060 0.756609 0.168006 -0.578474
F8    F     F_    0.283038 0.273003 0.186262 -0.594470
F9    F     F_    0.756167 0.256479 0.168029 -0.578446
F10   F     F_    0.782951 0.772911 0.186224 -0.594440
F11   F     F_    0.665051 0.039571 0.323365 -0.655149
F12   F     F_    0.165056 0.539558 0.323359 -0.655142

loop_
_geom_bond_atom_site_label_1
_geom_bond_atom_site_label_2
_ccdc_geom_bond_type
C16   C98   S    
C83   C87   A    
O34   H31   S    
C61   F3    S    
C96   O31   D    
C97   O33   D    
C14   C18   A    
C53   C55   A    
O22   H25   S    
C53   F1    S    
C48   C56   A    
C72   C76   A    
C36   N4    A    
C91   O21   D    
C49   C57   A    
C32   C72   A    
O1    Zn1   S    
C98   O35   D    
C15   C19   A    
C89   O18   S    
C94   O27   D    
C80   H16   S    
C2    C29   S    
C9    C61   A    
C48   N4    A    
C28   C68   A    
C19   C87   A    
C17   H19   S    
C12   C64   A    
C100  O40   S    
O20   H24   S    
C40   O14   A    
C63   F5    S    
C15   C97   S    
C55   C93   S    
O6    Zn3   S    
C1    O5    A    
C45   C47   A    
C23   C67   A    
C101  O42   S    
O3    Zn2   S    
C58   H8    S    
O8    Zn4   S    
C3    O3    A    
C30   C70   A    
O30   H29   S    
C2    O2    A    
C22   C66   A    
C74   F8    S    
C44   C46   A    
C44   C90   S    
C102  O44   S    
C73   F7    S    
C70   C74   A    
C59   N1    A    
O24   H26   S    
C27   H3    S    
C45   C49   A    
O7    Zn4   S    
C30   C86   A    
C24   C68   A    
C38   C92   S    
C29   C85   A    
C80   C84   A    
C21   C65   A    
C79   H15   S    
C82   C86   A    
C31   C71   A    
C71   H13   S    
C33   C59   A    
N3    Zn3   S    
C34   C60   A    
C97   O34   S    
C92   O24   S    
C4    O4    A    
C10   C62   A    
O14   Zn3   S    
C95   O30   S    
C52   C54   A    
C38   C44   A    
C95   O29   D    
C41   C68   S    
C29   C69   A    
C19   H21   S    
C64   F6    S    
C40   O10   A    
O18   H23   S    
C46   C48   A    
C71   C75   A    
C6    C84   A    
C91   O22   S    
C39   O9    A    
C4    O8    A    
O42   H35   S    
C26   C66   A    
O13   Zn3   S    
C31   C87   A    
C28   H4    S    
C76   F10   S    
C99   O38   S    
O32   H30   S    
C18   C86   A    
C2    O6    A    
C25   C61   A    
C49   C51   A    
C99   O37   D    
C35   N3    A    
C58   N2    A    
O10   Zn1   S    
C51   C53   A    
C39   O13   A    
C84   C88   A    
C37   C43   A    
C7    C11   A    
O38   H33   S    
C6    C10   A    
C5    C9    A    
C56   C94   S    
C60   N2    A    
C41   O11   A    
C41   O15   A    
C78   C82   A    
C50   C52   A    
O28   H28   S    
C77   C81   A    
C26   H2    S    
C16   C20   A    
C54   F2    S    
N4    Zn4   S    
C50   C58   A    
C25   C65   A    
C3    C32   S    
C42   O16   A    
C27   C67   A    
O5    Zn3   S    
N2    Zn2   S    
C14   C96   S    
C69   C73   A    
C43   C45   A    
C98   O36   S    
C27   C63   A    
C20   H22   S    
C69   H11   S    
N1    Zn1   S    
C59   F11   S    
C7    C81   A    
C12   C14   A    
C40   C65   S    
C90   O19   D    
C57   H7    S    
C42   C67   S    
C39   C66   S    
C17   C85   A    
C93   O26   S    
C28   C64   A    
C23   C101  S    
C35   C37   A    
C47   C55   A    
C60   F12   S    
C47   N3    A    
C46   C50   A    
C6    C22   A    
O9    Zn1   S    
C34   C52   A    
C34   H6    S    
C54   C56   A    
C33   H5    S    
C62   F4    S    
C94   O28   S    
C76   C80   A    
C5    C83   A    
C13   C95   S    
C75   F9    S    
C33   C51   A    
C89   O17   D    
C21   C99   S    
C25   H1    S    
C77   H17   S    
C13   C17   A    
C78   H18   S    
C70   H12   S    
C22   C100  S    
C90   O20   S    
C9    C15   A    
O40   H34   S    
O36   H32   S    
C10   C16   A    
C92   O23   D    
C79   C83   A    
C11   C13   A    
O11   Zn2   S    
C100  O39   D    
C57   N1    A    
O2    Zn1   S    
C72   H14   S    
C24   C102  S    
C7    C23   A    
C20   C88   A    
C36   C38   A    
C1    C30   S    
C8    C24   A    
C43   C89   S    
C26   C62   A    
C101  O41   D    
O16   Zn4   S    
C18   H20   S    
O15   Zn4   S    
C4    C31   S    
O4    Zn2   S    
O12   Zn2   S    
C42   O12   A    
O44   H36   S    
C3    O7    A    
C8    C82   A    
C5    C21   A    
C96   O32   S    
C102  O43   D    
C74   C78   A    
O26   H27   S    
C73   C77   A    
C36   H10   S    
C1    O1    A    
C37   C91   S    
C93   O25   D    
C35   H9    S    
C11   C63   A    
C75   C79   A    
C81   C85   A    
C8    C12   A    
C32   C88   A    
