data_mof_unit_46759.cif
_audit_creation_date              2012-12-10T16:58:31-0500
_audit_creation_method            fapswitch 2.2
_symmetry_space_group_name_H-M    P1
_symmetry_Int_Tables_number       1
_space_group_crystal_system       triclinic
_cell_length_a                    7.837839
_cell_length_b                    8.615104
_cell_length_c                    23.196019
_cell_angle_alpha                 93.000654
_cell_angle_beta                  83.56566
_cell_angle_gamma                 93.612534
_cell_volume                      1551.70418011

loop_
_atom_site_label
_atom_site_type_symbol
_atom_type_description
_atom_site_fract_x
_atom_site_fract_y
_atom_site_fract_z
_atom_type_partial_charge
C1    C     C_R   0.544709 0.794046 0.499001 0.933684
C2    C     C_R   0.483622 0.352331 0.294830 0.135380
C3    C     C_R   0.478491 0.656613 0.764786 0.213330
C4    C     C_R   0.506359 0.354991 0.233718 0.205841
C5    C     C_R   0.447482 0.514337 0.793762 0.158967
C6    C     C_R   0.520291 0.501680 0.207404 0.157648
C7    C     C_2   0.563999 0.956768 0.507197 -0.038183
C8    C     C_2   0.437195 0.043278 0.491915 -0.040298
C9    C     C_R   0.498249 0.500268 0.610475 0.868859
C10   C     C_R   0.501444 0.498542 0.389578 0.868872
C11   C     C_R   0.363734 0.402622 0.124961 0.529831
C12   C     C_R   0.455466 0.205926 0.500786 0.924452
C13   C     C_R   0.580318 0.618602 0.880688 0.526142
C14   C     C_R   0.477247 0.659069 0.123845 0.539823
C15   C     C_R   0.462456 0.363114 0.881392 0.538470
C16   C     C_R   0.494766 0.656405 0.063362 -0.056860
C17   C     C_R   0.437156 0.368179 0.941942 -0.056110
C18   C     C_R   0.452476 0.516409 0.033049 -0.055236
C19   C     C_R   0.478212 0.508424 0.972240 -0.055232
C20   C     C_R   0.378973 0.386643 0.063877 -0.037012
C21   C     C_R   0.554483 0.637348 0.941604 -0.033576
C22   C     C_R   0.561463 0.787252 0.033247 -0.180535
C23   C     C_R   0.368916 0.389759 0.761837 0.233291
C24   C     C_R   0.367298 0.238240 0.972106 -0.178585
C25   C     C_R   0.595576 0.779181 0.972652 0.167762
C26   C     C_R   0.334154 0.245960 0.032757 0.165193
C27   C     C_3   0.667534 0.925077 0.943127 -0.789080
C28   C     C_3   0.260093 0.100554 0.062178 -0.788747
C29   C     C_3   0.216747 0.289329 0.787108 -0.797585
C30   C     C_3   0.741112 0.735836 0.211951 -0.791851
C31   C     C_3   0.576932 0.798292 0.673032 -0.933442
C32   C     C_3   0.442013 0.199165 0.324138 -0.930319
C33   C     C_3   0.431513 0.810609 0.795365 -0.772482
C34   C     C_R   0.600258 0.626171 0.238991 0.232097
C35   C     C_3   0.548511 0.206264 0.198525 -0.778980
C36   C     C_3   0.713994 0.018262 0.540466 -0.863526
C37   C     C_3   0.289643 0.982272 0.457499 -0.867417
C38   C     C_3   0.006059 0.338435 0.397249 0.182066
C39   C     C_3   0.906737 0.191139 0.376712 -0.394677
C40   C     C_3   0.908911 0.182411 0.310692 -0.936417
C41   C     C_3   0.043781 0.708505 0.594195 0.131343
C42   C     C_3   0.990906 0.595534 0.642984 -0.350044
C43   C     C_3   0.045839 0.661525 0.700775 -0.917778
C44   C     C_R   0.404516 0.382091 0.701701 -0.290702
C45   C     C_R   0.578930 0.626020 0.299267 -0.301734
C46   C     C_R   0.490772 0.507352 0.673095 -0.117894
C47   C     C_R   0.507698 0.493927 0.327137 -0.107014
C48   C     C_R   0.519179 0.650507 0.704016 0.129192
H1    H     H_    0.593925 0.894482 0.057198 0.181544
H2    H     H_    0.130308 0.120667 0.084719 0.270138
H3    H     H_    0.246422 0.164636 0.783122 0.263262
H4    H     H_    0.175075 0.324286 0.832982 0.240316
H5    H     H_    0.105120 0.303056 0.762590 0.215240
H6    H     H_    0.774515 0.707283 0.165015 0.239951
H7    H     H_    0.704228 0.858249 0.219037 0.258269
H8    H     H_    0.860324 0.725071 0.232894 0.222120
H9    H     H_    0.621652 0.775190 0.626715 0.243692
H10   H     H_    0.469491 0.877178 0.675520 0.238792
H11   H     H_    0.686168 0.858497 0.693292 0.257688
H12   H     H_    0.334314 0.131141 0.948164 0.182877
H13   H     H_    0.425869 0.213155 0.372018 0.230689
H14   H     H_    0.321038 0.143495 0.310289 0.253202
H15   H     H_    0.545761 0.118306 0.312255 0.254639
H16   H     H_    0.372511 0.796245 0.840647 0.222524
H17   H     H_    0.545670 0.893758 0.794949 0.288641
H18   H     H_    0.332894 0.862784 0.772821 0.215655
H19   H     H_    0.436604 0.120368 0.201820 0.292875
H20   H     H_    0.591404 0.227390 0.152271 0.219420
H21   H     H_    0.658105 0.154264 0.215242 0.221180
H22   H     H_    0.777864 0.923903 0.558609 0.246838
H23   H     H_    0.352078 0.283881 0.676723 0.153947
H24   H     H_    0.815431 0.078843 0.511087 0.287641
H25   H     H_    0.668253 0.096407 0.577889 0.238428
H26   H     H_    0.229692 0.077287 0.438080 0.250236
H27   H     H_    0.337028 0.902637 0.420761 0.240713
H28   H     H_    0.185630 0.923120 0.486327 0.278526
H29   H     H_    0.136444 0.340662 0.373293 0.161117
H30   H     H_    0.947258 0.444462 0.384810 0.145812
H31   H     H_    0.965807 0.086762 0.390178 0.224333
H32   H     H_    0.771473 0.189947 0.396796 0.253048
H33   H     H_    0.842175 0.281314 0.296453 0.282580
H34   H     H_    0.629110 0.724891 0.324464 0.155593
H35   H     H_    0.843141 0.071210 0.296690 0.256818
H36   H     H_    0.042704 0.186557 0.289162 0.283020
H37   H     H_    0.995651 0.823920 0.609110 0.123323
H38   H     H_    0.184217 0.728778 0.586186 0.185199
H39   H     H_    0.849785 0.575021 0.648509 0.251926
H40   H     H_    0.047588 0.481527 0.631892 0.234054
H41   H     H_    0.185167 0.694188 0.696101 0.268462
H42   H     H_    0.017750 0.573071 0.734186 0.282826
H43   H     H_    0.974705 0.766407 0.715568 0.270453
H44   H     H_    0.674288 0.027000 0.974351 0.215773
H45   H     H_    0.800199 0.908492 0.922455 0.271105
H46   H     H_    0.583986 0.954174 0.910104 0.268572
H47   H     H_    0.245913 0.000252 0.030628 0.215191
H48   H     H_    0.346361 0.066755 0.093616 0.268729
N1    N     N_R   0.455604 0.521365 0.151461 -0.325654
N2    N     N_R   0.493115 0.499148 0.852775 -0.327365
N3    N     N_2   0.950330 0.457950 0.484560 0.179749
N4    N     N_2   0.049670 0.542050 0.515440 0.171193
O1    O     O_R   0.389250 0.738570 0.503790 -0.648259
O2    O     O_2   0.697915 0.711397 0.850070 -0.571811
O3    O     O_2   0.473410 0.796723 0.154123 -0.589309
O4    O     O_2   0.466535 0.223897 0.852174 -0.589075
O5    O     O_3   0.024894 0.334163 0.457010 -0.568849
O6    O     O_3   0.967338 0.661778 0.543495 -0.565971
O7    O     O_R   0.610750 0.261430 0.496210 -0.627418
O8    O     O_R   0.678390 0.711620 0.493890 -0.578834
O9    O     O_R   0.321610 0.288380 0.506110 -0.582254
O10   O     O_R   0.355400 0.513520 0.588790 -0.648410
O11   O     O_R   0.644600 0.486480 0.411210 -0.640201
O12   O     O_R   0.644550 0.486570 0.578900 -0.601704
O13   O     O_R   0.355450 0.513430 0.421100 -0.616953
O14   O     O_2   0.255285 0.306123 0.157415 -0.571078
Zn1   Zn    Zn3+2 0.306930 0.518000 0.506610 0.987282
Zn2   Zn    Zn3+2 0.693070 0.482000 0.493390 1.007019

loop_
_geom_bond_atom_site_label_1
_geom_bond_atom_site_label_2
_ccdc_geom_bond_type
C37   H26   S    
C7    C36   S    
C40   H36   S    
C45   H34   S    
C33   H17   S    
C7    C8    D    
C41   H38   S    
C30   H6    S    
C43   H41   S    
C20   C26   A    
C28   H47   S    
C23   C29   S    
C31   H10   S    
C19   C21   A    
C24   C26   A    
C32   H13   S    
C38   C39   S    
C3    C33   S    
C3    C48   A    
C44   H23   S    
C2    C32   S    
C18   C19   A    
C41   C42   S    
C31   H11   S    
C13   N2    A    
C11   O14   S    
C28   H2    S    
C36   H22   S    
C22   C25   A    
O11   Zn2   S    
C15   O4    S    
C8    C12   S    
C9    O12   A    
C37   H27   S    
C4    C35   S    
C9    C46   S    
C40   H35   S    
N4    Zn1   S    
C12   O9    A    
C44   C46   A    
C33   H18   S    
C45   C47   A    
N3    O5    S    
C46   C48   A    
C11   C20   A    
C17   C24   A    
C41   O6    S    
C30   C34   S    
C43   H42   S    
C6    N1    S    
C27   H44   S    
C4    C6    A    
N3    Zn2   S    
C38   H30   S    
C30   H8    S    
C43   H43   S    
C23   C44   A    
C6    C34   A    
C39   H31   S    
C2    C4    A    
N3    N4    D    
C5    C23   A    
C35   H19   S    
C24   H12   S    
C13   C21   A    
C10   O11   A    
C34   C45   A    
C10   O13   A    
C22   H1    S    
C37   H28   S    
C31   C48   S    
O1    Zn1   S    
C14   C16   A    
C27   H45   S    
C42   H40   S    
C8    C37   S    
C15   N2    A    
C1    O1    A    
O12   Zn2   S    
C14   N1    A    
C29   H3    S    
C9    O10   A    
C15   C17   A    
C21   C25   A    
C16   C22   A    
C1    C7    S    
N4    O6    S    
C40   H33   S    
C32   H15   S    
C3    C5    A    
C12   O7    A    
C38   H29   S    
C2    C47   A    
C25   C27   S    
C41   H37   S    
C30   H7    S    
C26   C28   S    
C28   H48   S    
C11   N1    A    
C39   H32   S    
C31   H9    S    
C38   O5    S    
C32   H14   S    
O8    Zn2   S    
C14   O3    S    
C29   H5    S    
C35   H20   S    
C33   H16   S    
C17   C19   A    
C18   C20   A    
O7    Zn2   S    
C36   H25   S    
O9    Zn1   S    
C1    O8    A    
C39   C40   S    
C5    N2    S    
C35   H21   S    
C16   C18   A    
C42   C43   S    
C10   C47   S    
C27   H46   S    
C42   H39   S    
C13   O2    S    
O10   Zn1   S    
C36   H24   S    
O13   Zn1   S    
C29   H4    S    
