data_mof_unit_12674.cif
_audit_creation_date              2012-12-10T16:52:43-0500
_audit_creation_method            fapswitch 2.2
_symmetry_space_group_name_H-M    P1
_symmetry_Int_Tables_number       1
_space_group_crystal_system       triclinic
_cell_length_a                    12.970668
_cell_length_b                    10.96829
_cell_length_c                    9.761771
_cell_angle_alpha                 90.296379
_cell_angle_beta                  95.912557
_cell_angle_gamma                 89.930797
_cell_volume                      1381.3619028

loop_
_atom_site_label
_atom_site_type_symbol
_atom_type_description
_atom_site_fract_x
_atom_site_fract_y
_atom_site_fract_z
_atom_type_partial_charge
C1    C     C_R   0.501197 0.265942 0.499523 0.907249
C2    C     C_R   0.025627 0.471323 0.546348 0.044810
C3    C     C_R   0.978178 0.569062 0.467627 -0.071963
C4    C     C_R   0.868306 0.579660 0.457189 -0.060096
C5    C     C_R   0.862598 0.420776 0.630705 -0.161189
C6    C     C_R   0.967835 0.401711 0.630937 -0.119241
C7    C     C_2   0.498393 0.934933 0.395705 0.380964
C8    C     C_2   0.530773 0.863419 0.504768 -0.244663
C9    C     C_2   0.527236 0.064347 0.397227 -0.064942
C10   C     C_2   0.493046 0.134792 0.496523 -0.308842
C11   C     C_2   0.522370 0.407538 0.927776 0.008393
C12   C     C_R   0.301234 0.502318 0.474397 0.919630
C13   C     C_2   0.484548 0.406170 0.068313 0.116982
C14   C     C_R   0.504886 0.734220 0.500966 0.816944
C15   C     C_R   0.698983 0.503209 0.525550 0.767443
C16   C     C_R   0.811888 0.504618 0.540354 -0.074502
C17   C     C_R   0.189446 0.517072 0.460808 -0.274834
C18   C     C_R   0.042413 0.650819 0.401705 -0.097425
C19   C     C_R   0.144856 0.615725 0.385060 0.369759
C20   C     C_R   0.130669 0.444813 0.541195 0.365711
Cu1   Cu    Cu3+1 0.500020 0.500020 0.638640 0.963941
Cu2   Cu    Cu3+1 0.499980 0.499980 0.361360 1.051616
H1    H     H_    0.450831 0.093773 0.575266 0.122661
H2    H     H_    0.446876 0.560407 0.880458 0.186013
H3    H     H_    0.819303 0.363323 0.694340 0.160777
H4    H     H_    0.003415 0.330556 0.696346 0.188882
N1    N     N_2   0.498860 0.498660 0.846770 -0.324963
N2    N     N_2   0.498840 0.498630 0.152900 -0.262925
O1    O     O_R   0.500020 0.321960 0.617050 -0.616017
O2    O     O_R   0.499980 0.321920 0.382890 -0.522637
O3    O     O_R   0.349010 0.500000 0.598060 -0.558349
O4    O     O_R   0.348980 0.499950 0.363910 -0.536459
O5    O     O_R   0.500020 0.678080 0.617110 -0.611060
O6    O     O_R   0.499980 0.678040 0.382950 -0.554780
O7    O     O_R   0.651020 0.500050 0.636090 -0.593672
O8    O     O_R   0.650990 0.500000 0.401940 -0.551671
C21   C     C_2   0.810239 0.658848 0.352465 0.408871
H5    H     H_    0.742625 0.709187 0.378029 0.050502
O9    O     O_2   0.835049 0.664375 0.235335 -0.477738
C22   C     C_2   0.596136 0.312670 0.891059 0.478503
H6    H     H_    0.639589 0.324184 0.803220 0.125023
O10   O     O_2   0.612328 0.222056 0.962127 -0.574694
C23   C     C_2   0.417800 0.302561 0.098345 0.404673
H7    H     H_    0.423779 0.216815 0.043922 0.056749
O11   O     O_2   0.350603 0.313949 0.176144 -0.556139
C24   C     C_2   0.562882 0.597201 0.117241 0.558876
H8    H     H_    0.537060 0.690319 0.129103 0.074812
O12   O     O_2   0.648784 0.578583 0.080447 -0.510840
C25   C     C_2   0.010611 0.780040 0.374477 0.502407
H9    H     H_    0.950611 0.820653 0.429596 0.042671
O13   O     O_2   0.051735 0.843536 0.293355 -0.509957
O14   O     O_3   0.206515 0.687282 0.310311 -0.543377
C26   C     C_3   0.191288 0.649094 0.171313 -0.152350
H10   H     H_    0.111232 0.669856 0.125122 0.187054
H11   H     H_    0.207585 0.550076 0.159595 0.165802
H12   H     H_    0.245945 0.699321 0.112104 0.158604
O15   O     O_3   0.177273 0.350915 0.619621 -0.573102
C27   C     C_3   0.180294 0.246240 0.535457 -0.298723
H13   H     H_    0.229374 0.260948 0.450001 0.165167
H14   H     H_    0.100953 0.217331 0.493544 0.179963
H15   H     H_    0.215394 0.170426 0.599067 0.186559
O16   O     O_3   0.440596 0.884510 0.280864 -0.585900
C28   C     C_3   0.355233 0.959611 0.236913 -0.227523
H16   H     H_    0.380691 0.042666 0.185454 0.144554
H17   H     H_    0.309707 0.984349 0.323742 0.178177
H18   H     H_    0.302961 0.908778 0.159874 0.202056
C29   C     C_2   0.600664 0.905737 0.627295 0.285819
H19   H     H_    0.599123 0.859849 0.725283 0.126377
O17   O     O_2   0.664259 0.986656 0.618920 -0.510558
C30   C     C_2   0.594782 0.105166 0.292181 0.466206
H20   H     H_    0.594329 0.054682 0.196218 0.099282
O18   O     O_2   0.655867 0.189279 0.314629 -0.489349

loop_
_geom_bond_atom_site_label_1
_geom_bond_atom_site_label_2
_ccdc_geom_bond_type
C12   C17   S    
C4    C16   A    
C8    C14   S    
C23   H7    S    
C28   H17   S    
C7    O16   S    
C14   O6    A    
C30   H20   S    
Cu1   O7    S    
C1    O2    A    
C10   H1    S    
C23   O11   D    
C9    C10   D    
H2    N1    S    
C11   N1    D    
C13   C23   S    
O16   C28   S    
C27   H15   S    
C1    O1    A    
C2    C3    A    
Cu1   N1    S    
C28   H18   S    
C8    C29   S    
C7    C8    D    
C13   N2    D    
C2    C6    A    
Cu1   Cu2   S    
C12   O4    A    
Cu1   O3    S    
N2    C24   S    
O15   C27   S    
C6    H4    S    
Cu2   O4    S    
C14   O5    A    
C29   H19   S    
C5    H3    S    
C22   O10   D    
C22   H6    S    
C17   C19   A    
C21   H5    S    
Cu2   N2    S    
C4    C21   S    
C20   O15   S    
C26   H11   S    
C12   O3    A    
C5    C6    A    
Cu2   O6    S    
C24   O12   D    
Cu1   O5    S    
C27   H14   S    
C11   C22   S    
C15   O8    A    
C11   C13   S    
C17   C20   A    
Cu2   O8    S    
C9    C30   S    
C3    C4    A    
C3    C18   A    
C21   O9    D    
C25   H9    S    
C26   H12   S    
C15   O7    A    
C7    C9    S    
C24   H8    S    
C18   C19   A    
C5    C16   A    
C30   O18   D    
Cu2   O2    S    
C29   O17   D    
C27   H13   S    
C26   H10   S    
C2    C20   A    
C19   O14   S    
Cu1   O1    S    
C1    C10   S    
C15   C16   S    
C18   C25   S    
O14   C26   S    
C28   H16   S    
C25   O13   D    
