data_mof_unit_34513.cif
_audit_creation_date              2012-12-10T20:45:27-0500
_audit_creation_method            fapswitch 2.2
_symmetry_space_group_name_H-M    P1
_symmetry_Int_Tables_number       1
_space_group_crystal_system       triclinic
_cell_length_a                    10.840476
_cell_length_b                    10.612968
_cell_length_c                    9.92765
_cell_angle_alpha                 89.187674
_cell_angle_beta                  91.194159
_cell_angle_gamma                 90.108466
_cell_volume                      1141.80811914

loop_
_atom_site_label
_atom_site_type_symbol
_atom_type_description
_atom_site_fract_x
_atom_site_fract_y
_atom_site_fract_z
_atom_type_partial_charge
C1    C     C_R   0.496856 0.260641 0.500657 0.861650
C2    C     C_R   0.196934 0.527399 0.979341 -0.234420
C3    C     C_R   0.930048 0.533235 0.383147 -0.246250
C4    C     C_R   0.871864 0.514290 0.505605 -0.089803
C5    C     C_R   0.941707 0.504337 0.626517 -0.003531
C6    C     C_R   0.068110 0.504631 0.619498 -0.248361
C7    C     C_R   0.126821 0.512676 0.496044 -0.080605
C8    C     C_R   0.056547 0.529201 0.376156 0.008102
C9    C     C_R   0.873163 0.593136 0.844156 -0.115096
C10   C     C_R   0.830342 0.576512 0.975091 -0.126380
C11   C     C_R   0.804673 0.455412 0.024147 -0.169213
C12   C     C_R   0.259836 0.503172 0.498302 0.843151
C13   C     C_R   0.820704 0.351031 0.942433 -0.066679
C14   C     C_R   0.861981 0.367304 0.811030 -0.115861
C15   C     C_R   0.889060 0.488369 0.761630 0.122476
C16   C     C_R   0.572901 0.063365 0.583363 0.147467
C17   C     C_R   0.487567 0.128511 0.503147 -0.211201
C18   C     C_R   0.393182 0.064339 0.431354 -0.039381
C19   C     C_R   0.399162 0.933148 0.428548 -0.195148
C20   C     C_R   0.494572 0.871010 0.498979 -0.137687
C21   C     C_R   0.575064 0.935183 0.583509 0.122590
C22   C     C_3   0.712868 0.930808 0.589532 -0.482293
C23   C     C_R   0.500098 0.739322 0.499164 0.886716
C24   C     C_3   0.710340 0.073674 0.588865 -0.449813
C25   C     C_R   0.514362 0.390878 0.073193 0.178804
C26   C     C_R   0.499411 0.609799 0.070089 -0.126081
C27   C     C_R   0.498564 0.609849 0.926626 -0.140379
C28   C     C_R   0.516760 0.390492 0.931195 0.245995
C29   C     C_3   0.437926 0.274413 0.927923 -0.260602
C30   C     C_3   0.435504 0.276692 0.081303 -0.469600
C31   C     C_R   0.739708 0.503784 0.501852 0.869637
C32   C     C_R   0.205290 0.637205 0.055101 -0.115989
C33   C     C_R   0.160578 0.638644 0.185693 -0.091033
C34   C     C_R   0.107713 0.529530 0.240524 0.086094
C35   C     C_R   0.095424 0.420951 0.162952 -0.130640
C36   C     C_R   0.138401 0.419512 0.031099 0.047969
H1    H     H_    0.238960 0.526587 0.882007 0.148322
H2    H     H_    0.771739 0.441871 0.125243 0.151496
H3    H     H_    0.803057 0.257431 0.981885 0.200092
H4    H     H_    0.876510 0.285788 0.749133 0.125747
H5    H     H_    0.331060 0.879440 0.371910 0.178969
H6    H     H_    0.748367 0.889168 0.686130 0.211842
H7    H     H_    0.753059 0.890672 0.497321 0.202389
H8    H     H_    0.744837 0.114295 0.684892 0.233741
H9    H     H_    0.748629 0.117233 0.496094 0.196857
H10   H     H_    0.495949 0.698554 0.121917 0.158993
H11   H     H_    0.248475 0.720618 0.013276 0.143329
H12   H     H_    0.494361 0.698701 0.872255 0.162538
H13   H     H_    0.348686 0.292510 0.876092 0.120528
H14   H     H_    0.343453 0.297010 0.122190 0.214180
H15   H     H_    0.484617 0.197243 0.133184 0.224688
H16   H     H_    0.167956 0.723734 0.244293 0.135815
H17   H     H_    0.050969 0.338313 0.205405 0.180173
H18   H     H_    0.877110 0.547448 0.290683 0.164168
H19   H     H_    0.120251 0.493442 0.711669 0.151822
H20   H     H_    0.894763 0.687014 0.807406 0.127701
H21   H     H_    0.817935 0.657203 0.038826 0.141157
N1    N     N_R   0.499160 0.499140 0.142800 -0.109164
N2    N     N_R   0.499160 0.499180 0.857150 -0.129218
O1    O     O_R   0.500020 0.316790 0.614690 -0.618853
O2    O     O_R   0.500000 0.316760 0.385350 -0.624828
O3    O     O_R   0.316770 0.500030 0.614670 -0.639083
O4    O     O_R   0.316750 0.499990 0.385330 -0.613678
O5    O     O_R   0.500000 0.683240 0.614650 -0.623508
O6    O     O_R   0.499980 0.683210 0.385310 -0.627668
O7    O     O_R   0.683250 0.500010 0.614670 -0.601644
O8    O     O_R   0.683230 0.499970 0.385330 -0.630533
Zn1   Zn    Zn3+2 0.500010 0.500020 0.653130 0.947959
Zn2   Zn    Zn3+2 0.499990 0.499980 0.346870 0.942891
C37   C     C_2   0.290123 0.131658 0.360366 0.390015
H22   H     H_    0.277712 0.232188 0.372264 0.068981
O9    O     O_2   0.216778 0.075198 0.288168 -0.552847
C38   C     C_2   0.500399 0.158797 0.876897 0.478489
H23   H     H_    0.446715 0.091731 0.818690 0.061981
O10   O     O_2   0.608197 0.135890 0.905275 -0.618293
C39   C     C_2   0.122233 0.305982 0.947956 0.349201
H24   H     H_    0.141318 0.309777 0.841277 0.046366
O11   O     O_2   0.086947 0.206547 0.997295 -0.545719

loop_
_geom_bond_atom_site_label_1
_geom_bond_atom_site_label_2
_ccdc_geom_bond_type
C27   H12   S    
C18   C37   S    
C31   O7    A    
O7    Zn1   S    
C30   H15   S    
C16   C21   A    
C35   H17   S    
C38   H23   S    
C35   C36   A    
C6    H19   S    
C7    C8    A    
C29   H13   S    
C33   H16   S    
C31   O8    A    
C26   C27   A    
C24   H9    S    
O5    Zn1   S    
C28   C29   S    
C39   O11   D    
C18   C19   A    
C5    C6    A    
C3    H18   S    
C29   C38   S    
O2    Zn2   S    
C2    C32   A    
C34   C35   A    
C36   C39   S    
C19   C20   A    
C16   C17   A    
C37   H22   S    
C9    C10   A    
C30   H14   S    
C16   C24   S    
C21   C22   S    
C38   O10   D    
C33   C34   A    
C7    C12   S    
C13   H3    S    
O4    Zn2   S    
C10   H21   S    
C39   H24   S    
C3    C8    A    
C1    O1    A    
C12   O4    A    
O8    Zn2   S    
C11   H2    S    
C29   C30   S    
N2    Zn1   S    
C12   O3    A    
C22   H7    S    
C20   C23   S    
C17   C18   A    
C9    H20   S    
C8    C34   S    
C26   N1    A    
C23   O5    A    
C24   H8    S    
C32   H11   S    
C22   C24   S    
C25   N1    A    
C25   C28   A    
C3    C4    A    
C28   N2    A    
C2    C36   A    
C25   C30   S    
C4    C5    A    
C1    O2    A    
N1    Zn2   S    
C6    C7    A    
C1    C17   S    
O3    Zn1   S    
C32   C33   A    
C23   O6    A    
C9    C15   A    
C27   N2    A    
C11   C13   A    
C2    H1    S    
C22   H6    S    
O6    Zn2   S    
C5    C15   S    
C4    C31   S    
C10   C11   A    
C26   H10   S    
C14   H4    S    
C20   C21   A    
O1    Zn1   S    
C14   C15   A    
C37   O9    D    
C13   C14   A    
C19   H5    S    
