data_mof_unit_16001.cif
_audit_creation_date              2012-12-11T16:58:23-0500
_audit_creation_method            fapswitch 2.2
_symmetry_space_group_name_H-M    P1
_symmetry_Int_Tables_number       1
_space_group_crystal_system       triclinic
_cell_length_a                    17.236787
_cell_length_b                    7.263875
_cell_length_c                    16.551919
_cell_angle_alpha                 89.802161
_cell_angle_beta                  100.294532
_cell_angle_gamma                 90.10798
_cell_volume                      2039.02225677

loop_
_atom_site_label
_atom_site_type_symbol
_atom_type_description
_atom_site_fract_x
_atom_site_fract_y
_atom_site_fract_z
_atom_type_partial_charge
O1    O     O_R   0.413450 0.494370 0.415710 -0.544151
O2    O     O_R   0.586550 0.994370 0.584290 -0.542976
O3    O     O_R   0.578420 0.819350 0.429360 -0.546554
O4    O     O_R   0.421580 0.319350 0.570640 -0.551193
C1    C     C_R   0.603173 0.655479 0.412529 0.742712
C2    C     C_R   0.397275 0.155031 0.587770 0.738258
O5    O     O_R   0.413570 0.823780 0.406240 -0.539977
O6    O     O_R   0.586430 0.323780 0.593760 -0.539931
O7    O     O_R   0.420530 0.998740 0.561000 -0.527322
O8    O     O_R   0.579470 0.498740 0.439000 -0.523251
C3    C     C_R   0.386126 0.655037 0.383754 0.710712
C4    C     C_R   0.611502 0.154941 0.618515 0.717319
O9    O     O_3   0.502480 0.662320 0.550800 -0.383737
O10   O     O_3   0.497520 0.162320 0.449200 -0.380082
V1    V     V_3+5 0.499540 0.935370 0.490580 1.393363
V2    V     V_3+5 0.500460 0.435370 0.509420 1.388828
C5    C     C_R   0.686727 0.007416 0.749769 0.100092
C6    C     C_R   0.295563 0.482416 0.272917 0.074482
C7    C     C_R   0.676244 0.148895 0.691033 -0.162550
C8    C     C_R   0.314946 0.643450 0.318177 -0.148439
C9    C     C_R   0.730432 0.294560 0.705147 -0.260456
C10   C     C_R   0.260935 0.789555 0.303770 -0.292844
H1    H     H_    0.721409 0.415119 0.666149 0.154637
H2    H     H_    0.273422 0.907975 0.343096 0.150062
C11   C     C_R   0.801471 0.279494 0.763412 0.455972
C12   C     C_R   0.193391 0.783393 0.238900 0.485546
C13   C     C_R   0.814936 0.124696 0.817165 -0.202081
C14   C     C_R   0.179894 0.622877 0.188763 -0.178483
C15   C     C_R   0.753066 0.997190 0.810914 0.026861
C16   C     C_R   0.230464 0.473200 0.209927 0.007010
C17   C     C_3   0.749821 0.792480 0.813763 -0.366969
C18   C     C_3   0.273660 0.359768 0.157321 -0.346574
C19   C     C_3   0.675534 0.804147 0.747907 -0.397761
C20   C     C_3   0.344679 0.368569 0.226558 -0.395169
H3    H     H_    0.738220 0.740819 0.873582 0.220055
H4    H     H_    0.282843 0.433740 0.100844 0.160323
H5    H     H_    0.800584 0.728588 0.791690 0.217170
H6    H     H_    0.248642 0.218965 0.146758 0.212899
H7    H     H_    0.621221 0.762136 0.770664 0.173433
H8    H     H_    0.395278 0.446410 0.210054 0.166844
H9    H     H_    0.682828 0.742092 0.689067 0.165400
H10   H     H_    0.359954 0.232991 0.256539 0.173476
C21   C     C_R   0.331493 0.149434 0.633812 -0.180292
C22   C     C_R   0.669780 0.649191 0.367269 -0.182157
C23   C     C_R   0.167584 0.122188 0.862631 -0.309313
C24   C     C_R   0.834175 0.621995 0.138859 -0.314887
C25   C     C_R   0.304641 0.069314 0.849464 0.427413
C26   C     C_R   0.694681 0.614142 0.149117 0.437733
C27   C     C_R   0.243798 0.059351 0.895989 0.309705
C28   C     C_R   0.754503 0.601811 0.101742 0.312864
C29   C     C_R   0.152190 0.189620 0.780864 0.349399
C30   C     C_R   0.853455 0.655715 0.224348 0.350014
C31   C     C_R   0.209643 0.167429 0.728199 -0.170023
C32   C     C_R   0.793805 0.644611 0.274981 -0.165042
C33   C     C_R   0.287802 0.121547 0.765605 -0.130646
C34   C     C_R   0.713786 0.637176 0.235246 -0.130329
C35   C     C_R   0.348329 0.128154 0.718891 -0.240969
C36   C     C_R   0.653420 0.653308 0.281745 -0.241382
C37   C     C_R   0.252384 0.164192 0.593107 0.342373
C38   C     C_R   0.748706 0.631124 0.408717 0.347106
C39   C     C_R   0.191192 0.188035 0.640265 0.404809
C40   C     C_R   0.811893 0.641596 0.363246 0.404913
H11   H     H_    0.409311 0.110238 0.748033 0.162803
H12   H     H_    0.592296 0.661418 0.251564 0.165880
O11   O     O_R   0.920630 0.775410 0.061150 -0.537778
O12   O     O_R   0.079370 0.275410 0.938850 -0.534432
O13   O     O_R   0.086500 0.441450 0.093690 -0.541851
O14   O     O_R   0.913500 0.941450 0.906310 -0.540505
C41   C     C_R   0.113531 0.610506 0.116986 0.712993
C42   C     C_R   0.886125 0.110502 0.883420 0.722708
O15   O     O_R   0.921670 0.445960 0.070740 -0.555153
O16   O     O_R   0.078330 0.945960 0.929260 -0.552766
O17   O     O_R   0.913380 0.271130 0.915780 -0.519120
O18   O     O_R   0.086620 0.771130 0.084220 -0.507938
C43   C     C_R   0.896961 0.614272 0.087281 0.820508
C44   C     C_R   0.103886 0.114580 0.913526 0.831798
O19   O     O_3   0.997500 0.603030 0.949220 -0.388782
O20   O     O_3   0.002500 0.103030 0.050780 -0.380892
V3    V     V_3+5 0.000470 0.329940 0.009420 1.426705
V4    V     V_3+5 0.999530 0.829940 0.990580 1.431465
O21   O     O_3   0.111822 0.208387 0.603781 -0.565409
C45   C     C_3   0.095795 0.316638 0.530475 0.097013
H13   H     H_    0.030834 0.335895 0.516533 0.131227
H14   H     H_    0.107508 0.239381 0.476539 0.171376
C46   C     C_3   0.132224 0.512730 0.536526 -0.375942
H15   H     H_    0.102107 0.600351 0.575843 0.172555
H16   H     H_    0.195542 0.511448 0.564609 0.186203
C47   C     C_3   0.122577 0.607436 0.452409 -0.788894
H17   H     H_    0.167245 0.558801 0.417141 0.223290
H18   H     H_    0.130625 0.758400 0.460753 0.248020
H19   H     H_    0.063243 0.581179 0.415507 0.252213
O22   O     O_3   0.891373 0.627863 0.400697 -0.558500
C48   C     C_3   0.913650 0.721321 0.477106 0.096686
H20   H     H_    0.978559 0.712503 0.493553 0.133216
H21   H     H_    0.894360 0.646775 0.528259 0.163373
C49   C     C_3   0.894020 0.928941 0.475500 -0.365780
H22   H     H_    0.931588 0.004368 0.438896 0.180673
H23   H     H_    0.831502 0.955166 0.448227 0.186508
C50   C     C_3   0.911526 0.012950 0.561037 -0.815543
H24   H     H_    0.877199 0.944272 0.603146 0.223883
H25   H     H_    0.895465 0.160791 0.556350 0.236678
H26   H     H_    0.975395 0.002275 0.586589 0.265459
O23   O     O_3   0.261707 0.007701 0.977759 -0.538088
C51   C     C_3   0.257830 0.813822 0.984152 -0.175047
H27   H     H_    0.270831 0.737939 0.929720 0.089265
H28   H     H_    0.198804 0.771641 0.994771 0.144296
H29   H     H_    0.301343 0.768877 0.038287 0.150331
O24   O     O_3   0.733126 0.593211 0.017194 -0.546592
C52   C     C_3   0.743241 0.412702 0.989165 -0.227422
H30   H     H_    0.764328 0.309228 0.038225 0.107116
H31   H     H_    0.785649 0.417661 0.946252 0.166690
H32   H     H_    0.686188 0.363563 0.953850 0.157684
O25   O     O_3   0.079359 0.269486 0.753960 -0.557509
C53   C     C_3   0.087950 0.453475 0.728109 0.098987
H33   H     H_    0.046623 0.468723 0.669236 0.150961
H34   H     H_    0.148016 0.491668 0.717381 0.099913
C54   C     C_3   0.063978 0.591429 0.788035 -0.313022
H35   H     H_    0.008340 0.545761 0.806219 0.258263
H36   H     H_    0.110428 0.599754 0.843899 0.184121
C55   C     C_3   0.051706 0.780715 0.747198 -0.802856
H37   H     H_    0.109174 0.836612 0.737311 0.232426
H38   H     H_    0.023846 0.876011 0.785411 0.254933
H39   H     H_    0.011920 0.771673 0.686865 0.205289
O26   O     O_3   0.930879 0.702382 0.256043 -0.551906
C56   C     C_3   0.934788 0.886588 0.284704 0.122348
H40   H     H_    0.987949 0.897037 0.333528 0.147959
H41   H     H_    0.882655 0.928360 0.311040 0.113115
C57   C     C_3   0.942687 0.026085 0.217838 -0.340465
H42   H     H_    0.995772 0.992858 0.192090 0.264779
H43   H     H_    0.890245 0.019519 0.167985 0.190163
C58   C     C_3   0.949236 0.220719 0.253517 -0.788588
H44   H     H_    0.891039 0.266169 0.265990 0.235959
H45   H     H_    0.969110 0.317410 0.209637 0.257782
H46   H     H_    0.992716 0.226287 0.311764 0.211180
O27   O     O_3   0.858214 0.414604 0.765685 -0.554951
C59   C     C_3   0.888027 0.410651 0.691519 -0.325097
H47   H     H_    0.842786 0.394051 0.635204 0.161362
H48   H     H_    0.931709 0.298081 0.694055 0.203172
H49   H     H_    0.916254 0.544396 0.683640 0.157411
O28   O     O_3   0.141177 0.930160 0.218775 -0.546474
C60   C     C_3   0.151948 0.076071 0.275221 -0.290678
H50   H     H_    0.140638 0.029890 0.336197 0.157026
H51   H     H_    0.109549 0.186546 0.252331 0.178334
H52   H     H_    0.211028 0.138624 0.278914 0.143113
O29   O     O_3   0.232627 0.120254 0.510295 -0.568963
C61   C     C_3   0.264421 0.247178 0.459923 -0.262334
H53   H     H_    0.314033 0.182850 0.435999 0.166986
H54   H     H_    0.283365 0.380570 0.490058 0.140038
H55   H     H_    0.218860 0.279635 0.406147 0.130342
O30   O     O_3   0.764233 0.572298 0.489879 -0.566471
C62   C     C_3   0.740182 0.703573 0.543234 -0.284536
H56   H     H_    0.683604 0.659357 0.559788 0.166154
H57   H     H_    0.734552 0.846456 0.518259 0.137786
H58   H     H_    0.783978 0.706241 0.600999 0.144841
O31   O     O_3   0.381430 0.034783 0.888178 -0.533950
C63   C     C_3   0.404310 0.854548 0.870198 -0.202094
H59   H     H_    0.363487 0.783458 0.819897 0.098779
H60   H     H_    0.410447 0.768902 0.926606 0.166261
H61   H     H_    0.463160 0.861507 0.851989 0.150620
O32   O     O_3   0.616778 0.610484 0.109574 -0.534882
C64   C     C_3   0.588559 0.427887 0.109677 -0.203959
H62   H     H_    0.589367 0.375875 0.173099 0.120328
H63   H     H_    0.622653 0.333333 0.076701 0.140474
H64   H     H_    0.526428 0.425365 0.077183 0.169112

loop_
_geom_bond_atom_site_label_1
_geom_bond_atom_site_label_2
_ccdc_geom_bond_type
O14   V4    S    
O15   C43   A    
C48   H20   S    
C13   C15   A    
C5    C15   A    
C14   C41   S    
O1    C3    A    
O16   C44   A    
C58   H46   S    
O2    C4    A    
C57   H42   S    
C2    O7    A    
O15   V3    S    
C64   H62   S    
O27   C59   S    
C25   C27   A    
C46   H15   S    
O5    C3    A    
O12   V3    S    
C26   O32   S    
C19   H7    S    
C23   C44   S    
C20   H8    S    
C18   H4    S    
C63   H59   S    
C7    C9    A    
C61   H53   S    
C12   O28   S    
C54   H36   S    
O29   C61   S    
O19   V4    S    
C23   C29   A    
C49   C50   S    
C24   C30   A    
O24   C52   S    
C38   C40   A    
C62   H58   S    
C51   H27   S    
C31   C39   A    
C63   H60   S    
C55   H38   S    
C20   H10   S    
C40   O22   S    
C56   C57   S    
C62   H56   S    
C17   C19   S    
C6    C16   A    
C18   H6    S    
C6    C8    A    
C55   H39   S    
C21   C37   A    
C26   C28   A    
O6    V2    S    
O11   V4    S    
O18   V4    S    
C28   O24   S    
C60   H50   S    
C5    C19   S    
C59   H49   S    
C51   H28   S    
C24   C43   S    
C64   H63   S    
C30   C32   A    
C35   H11   S    
C61   H54   S    
C31   C33   A    
C36   H12   S    
C32   C34   A    
C3    C8    S    
C37   C39   A    
C46   H16   S    
O13   V3    S    
O28   C60   S    
O4    C2    A    
C54   C55   S    
C22   C36   A    
O20   V3    S    
C32   C40   A    
O3    C1    A    
O21   C45   S    
C17   H5    S    
C49   H23   S    
O13   C41   A    
C60   H51   S    
C18   C20   S    
O4    V2    S    
C33   C35   A    
C61   H55   S    
C50   H24   S    
O10   V1    S    
C47   H19   S    
C23   C27   A    
O6    C4    A    
O12   C44   A    
C49   H22   S    
C42   O17   A    
O17   V3    S    
C41   O18   A    
O1    V2    S    
C38   O30   S    
O2    V1    S    
C6    C20   S    
C13   C42   S    
C37   O29   S    
C59   H48   S    
C50   H25   S    
C1    C22   S    
C47   H18   S    
C48   C49   S    
C45   H14   S    
C2    C21   S    
C9    H1    S    
C56   H40   S    
C17   H3    S    
C52   H32   S    
C58   H44   S    
C57   C58   S    
O23   C51   S    
C64   H64   S    
O3    V1    S    
C55   H37   S    
C25   C33   A    
O25   C53   S    
C46   C47   S    
C26   C34   A    
C9    C11   A    
C15   C17   S    
C29   O25   S    
C63   H61   S    
C8    C10   A    
C59   H47   S    
C58   H45   S    
C57   H43   S    
C27   O23   S    
C53   H34   S    
C14   C16   A    
C53   H33   S    
C60   H52   S    
C11   C13   A    
C45   C46   S    
C24   C28   A    
C12   C14   A    
O11   C43   A    
C19   H9    S    
O32   C64   S    
C52   H31   S    
O7    V1    S    
C1    O8    A    
O16   V4    S    
O8    V2    S    
C54   H35   S    
C16   C18   S    
C30   O26   S    
C25   O31   S    
C22   C38   A    
C4    C7    S    
O5    V1    S    
O22   C48   S    
C5    C7    A    
C34   C36   A    
C10   H2    S    
C62   H57   S    
C11   O27   S    
C53   C54   S    
C21   C35   A    
C50   H26   S    
C47   H17   S    
C48   H21   S    
C45   H13   S    
C10   C12   A    
O9    V2    S    
O31   C63   S    
C56   H41   S    
O14   C42   A    
O30   C62   S    
C39   O21   S    
C29   C31   A    
C52   H30   S    
C51   H29   S    
O26   C56   S    
