data_mof_unit_59484.cif
_audit_creation_date              2012-12-11T16:22:19-0500
_audit_creation_method            fapswitch 2.2
_symmetry_space_group_name_H-M    P1
_symmetry_Int_Tables_number       1
_space_group_crystal_system       triclinic
_cell_length_a                    13.488287
_cell_length_b                    14.048269
_cell_length_c                    30.045506
_cell_angle_alpha                 97.98353
_cell_angle_beta                  90.106252
_cell_angle_gamma                 118.698251
_cell_volume                      4930.06011649

loop_
_atom_site_label
_atom_site_type_symbol
_atom_type_description
_atom_site_fract_x
_atom_site_fract_y
_atom_site_fract_z
_atom_type_partial_charge
C1    C     C_R   0.720938 0.098957 0.569160 0.545842
C2    C     C_1   0.343969 0.659057 0.763178 -0.038170
C3    C     C_1   0.346771 0.665962 0.723825 -0.037726
C4    C     C_R   0.383768 0.788754 0.551064 0.540757
C5    C     C_R   0.301715 0.599257 0.897360 0.019247
C6    C     C_3   0.244798 0.177935 0.725639 -0.102071
C7    C     C_3   0.218092 0.083587 0.752951 -0.102056
C8    C     C_1   0.297245 0.197500 0.876645 -0.018756
C9    C     C_1   0.365032 0.135822 0.613924 -0.016132
C10   C     C_3   0.340641 0.259502 0.761926 -0.098837
C11   C     C_3   0.314249 0.164987 0.788439 0.051342
C12   C     C_R   0.348720 0.677012 0.677257 0.036515
C13   C     C_3   0.426894 0.233852 0.736595 -0.099906
C14   C     C_3   0.330911 0.152491 0.701033 0.052110
C15   C     C_3   0.400353 0.139616 0.763797 -0.102673
C16   C     C_R   0.397397 0.118700 0.569593 0.546586
C17   C     C_3   0.304509 0.057913 0.727492 -0.100039
C18   C     C_1   0.305613 0.178049 0.837049 -0.061130
C19   C     C_1   0.345669 0.145068 0.652826 -0.058893
C20   C     C_3   0.886051 0.274948 0.734938 -0.087762
C21   C     C_3   0.789850 0.236774 0.767073 0.030542
C22   C     C_1   0.895015 0.203858 0.878638 -0.016607
C23   C     C_R   0.255791 0.674330 0.655297 -0.119567
C24   C     C_1   0.768841 0.131473 0.614660 -0.016397
C25   C     C_3   0.941657 0.220045 0.759424 -0.110205
C26   C     C_3   0.844668 0.182647 0.791090 0.060778
C27   C     C_3   0.872107 0.110590 0.726753 -0.110232
C28   C     C_R   0.719898 0.095033 0.442696 0.541893
C29   C     C_3   0.816769 0.165472 0.703086 0.041089
C30   C     C_3   0.775518 0.073511 0.759023 -0.110150
C31   C     C_3   0.719432 0.127971 0.734576 -0.087452
C32   C     C_1   0.866407 0.192806 0.839560 -0.056813
C33   C     C_1   0.796048 0.150734 0.654330 -0.060343
C34   C     C_R   0.263595 0.702019 0.612175 -0.128173
C35   C     C_3   0.270813 0.577426 0.258776 -0.098843
C36   C     C_3   0.240585 0.642551 0.228869 -0.100133
C37   C     C_1   0.309158 0.607168 0.111323 -0.021179
C38   C     C_1   0.366494 0.735949 0.378169 -0.018589
C39   C     C_3   0.370189 0.591006 0.229696 -0.099185
C40   C     C_R   0.382229 0.784311 0.424412 0.546437
C41   C     C_3   0.340113 0.656648 0.200562 0.050274
C42   C     C_3   0.451122 0.700092 0.260772 -0.101656
C43   C     C_3   0.351463 0.685924 0.289002 0.050086
C44   C     C_3   0.420738 0.765177 0.230765 -0.099132
C45   C     C_R   0.251204 0.658360 0.832897 -0.117052
C46   C     C_3   0.321366 0.751453 0.259803 -0.097541
C47   C     C_1   0.327844 0.635046 0.151425 -0.062294
C48   C     C_1   0.358102 0.707876 0.338105 -0.060164
C49   C     C_R   0.355589 0.132889 0.401349 0.021202
C50   C     C_R   0.417182 0.234177 0.386033 -0.125750
C51   C     C_R   0.398280 0.243219 0.341636 -0.113360
C52   C     C_R   0.395750 0.114517 0.443149 0.541786
C53   C     C_R   0.317574 0.151463 0.312423 0.039505
C54   C     C_R   0.249425 0.052996 0.328280 -0.119288
C55   C     C_R   0.267782 0.043809 0.372755 -0.129767
C56   C     C_R   0.233693 0.633735 0.876523 -0.127324
C57   C     C_R   0.253569 0.086470 0.146353 -0.089638
C58   C     C_R   0.248488 0.103308 0.101641 -0.005099
C59   C     C_R   0.392897 0.294967 0.124369 -0.138513
C60   C     C_R   0.396706 0.276773 0.168401 -0.125674
C61   C     C_R   0.324049 0.173993 0.179634 0.026056
C62   C     C_1   0.317467 0.161427 0.225967 -0.033587
C63   C     C_1   0.314572 0.155422 0.265340 -0.032169
C64   C     C_R   0.364933 0.733278 0.590830 0.019096
C65   C     C_R   0.315058 0.210769 0.090969 0.036753
C66   C     C_R   0.779258 0.132265 0.402314 0.020637
C67   C     C_R   0.392837 0.597959 0.875045 -0.130706
C68   C     C_R   0.801748 0.060772 0.371868 -0.126704
C69   C     C_R   0.830378 0.083828 0.328607 -0.115233
C70   C     C_R   0.837616 0.178668 0.315701 0.038609
C71   C     C_R   0.824657 0.254636 0.346857 -0.114141
C72   C     C_R   0.796070 0.231863 0.390121 -0.125701
C73   C     C_R   0.891181 0.303768 0.167719 -0.116466
C74   C     C_R   0.913603 0.311498 0.122702 -0.128949
C75   C     C_R   0.855007 0.116691 0.107844 -0.125050
C76   C     C_R   0.454875 0.727757 0.611940 -0.128400
C77   C     C_R   0.832168 0.109134 0.152772 -0.113412
C78   C     C_R   0.409940 0.622379 0.831367 -0.121046
C79   C     C_R   0.854313 0.203416 0.182956 0.039576
C80   C     C_1   0.849109 0.198497 0.230047 -0.033244
C81   C     C_1   0.845730 0.191571 0.269367 -0.033314
C82   C     C_R   0.900556 0.218940 0.092886 0.021445
C83   C     C_R   0.284104 0.232554 0.922087 0.544953
C84   C     C_R   0.266399 0.547281 0.938023 0.540597
C85   C     C_R   0.945060 0.222026 0.923007 0.546661
C86   C     C_R   0.292978 0.243085 0.048919 0.540893
C87   C     C_R   0.275275 0.558620 0.065151 0.545149
C88   C     C_R   0.446855 0.700204 0.655106 -0.116510
C89   C     C_R   0.336956 0.649249 0.809885 0.036430
C90   C     C_R   0.954129 0.233208 0.049978 0.541921
C91   C     C_3   0.742577 0.307830 0.790289 -0.408829
C92   C     C_3   0.170244 0.006867 0.066837 -0.384556
Cr1   Cr    Cr6+3 0.583430 0.162610 0.509470 1.019222
Cr2   Cr    Cr6+3 0.584210 0.916680 0.495400 1.018532
Cr3   Cr    Cr6+3 0.332380 0.920740 0.495100 1.019055
Cr4   Cr    Cr6+3 0.086810 0.177030 0.983130 1.012088
Cr5   Cr    Cr6+3 0.337180 0.419300 0.994610 1.016769
Cr6   Cr    Cr6+3 0.084840 0.422330 0.995830 1.018000
H1    H     H_    0.163005 0.635637 0.892846 0.129364
H2    H     H_    0.906628 0.058913 0.709540 0.105936
H3    H     H_    0.194671 0.679593 0.816391 0.106581
H4    H     H_    0.033214 0.257603 0.770186 0.109386
H5    H     H_    0.154047 0.619111 0.215118 0.101796
H6    H     H_    0.209452 0.500575 0.270803 0.111762
H7    H     H_    0.300941 0.817436 0.272843 0.108532
H8    H     H_    0.482027 0.842003 0.218706 0.109487
H9    H     H_    0.537572 0.723482 0.274593 0.102932
H10   H     H_    0.390510 0.525001 0.216579 0.104666
H11   H     H_    0.199402 0.006368 0.155625 0.106768
H12   H     H_    0.181200 0.193801 0.709503 0.104256
H13   H     H_    0.186725 0.981727 0.305685 0.104041
H14   H     H_    0.179392 0.656095 0.672337 0.105648
H15   H     H_    0.218925 0.964746 0.383616 0.131014
H16   H     H_    0.484866 0.304246 0.407377 0.127387
H17   H     H_    0.452435 0.344510 0.194145 0.106716
H18   H     H_    0.445391 0.377657 0.117375 0.134239
H19   H     H_    0.451061 0.319825 0.329416 0.107060
H20   H     H_    0.949025 0.391442 0.112191 0.131068
H21   H     H_    0.908230 0.377010 0.191040 0.104564
H22   H     H_    0.830510 0.328394 0.336998 0.108096
H23   H     H_    0.289525 0.974778 0.712593 0.109075
H24   H     H_    0.779928 0.288826 0.412931 0.126451
H25   H     H_    0.789635 0.983592 0.380300 0.129707
H26   H     H_    0.192863 0.705282 0.596770 0.130750
H27   H     H_    0.803028 0.031043 0.164459 0.106419
H28   H     H_    0.843800 0.044058 0.085584 0.125437
H29   H     H_    0.840618 0.024809 0.304504 0.106454
H30   H     H_    0.534019 0.751364 0.596387 0.131135
H31   H     H_    0.476705 0.615474 0.813673 0.105656
H32   H     H_    0.446579 0.571544 0.890143 0.131058
H33   H     H_    0.519035 0.702179 0.671992 0.108088
H34   H     H_    0.463824 0.123567 0.779906 0.103016
H35   H     H_    0.132350 0.021636 0.760348 0.104069
H36   H     H_    0.707276 0.335289 0.764564 0.122421
H37   H     H_    0.674485 0.259750 0.811488 0.131430
H38   H     H_    0.811235 0.380830 0.811895 0.135486
H39   H     H_    0.092919 0.012191 0.058756 0.159805
H40   H     H_    0.214379 0.005293 0.035804 0.133383
H41   H     H_    0.142920 0.927688 0.079253 0.112235
H42   H     H_    0.512567 0.295958 0.729218 0.102904
H43   H     H_    0.355725 0.342716 0.776776 0.108183
H44   H     H_    0.931099 0.357460 0.724641 0.104341
H45   H     H_    0.627873 0.090792 0.723883 0.107310
H46   H     H_    0.730125 0.991073 0.769366 0.107808
O1    O     O_R   0.493980 0.188910 0.559650 -0.507497
O2    O     O_R   0.170560 0.527890 0.952050 -0.517090
O3    O     O_R   0.987620 0.318470 0.945550 -0.494276
O4    O     O_R   0.678640 0.153520 0.554450 -0.494347
O5    O     O_R   0.976400 0.159270 0.031530 -0.521193
O6    O     O_R   0.194000 0.188570 0.028560 -0.501347
O7    O     O_R   0.365260 0.335720 0.039020 -0.519804
O8    O     O_R   0.330440 0.515580 0.044910 -0.495573
O9    O     O_R   0.177310 0.536200 0.050190 -0.513069
O10   O     O_R   0.993870 0.326170 0.036530 -0.502815
O11   O     O_3   0.169610 0.339550 0.991190 -0.241228
O12   O     O_R   0.480180 0.824400 0.444640 -0.494409
O13   O     O_R   0.698130 0.004030 0.549500 -0.511300
O14   O     O_R   0.481060 0.827210 0.535360 -0.503586
O15   O     O_R   0.309260 0.811560 0.537660 -0.516939
O16   O     O_R   0.341620 0.023400 0.546290 -0.494780
O17   O     O_R   0.493030 0.185890 0.461780 -0.519197
O18   O     O_R   0.677760 0.150720 0.463730 -0.503072
O19   O     O_R   0.697180 0.001010 0.451640 -0.517035
O20   O     O_R   0.308310 0.808540 0.439800 -0.512177
O21   O     O_R   0.340740 0.020600 0.455570 -0.503440
O22   O     O_3   0.500010 0.000010 0.499990 -0.242391
O23   O     O_R   0.969650 0.150960 0.933380 -0.507668
O24   O     O_R   0.187740 0.180870 0.937580 -0.495121
O25   O     O_R   0.358510 0.327410 0.940870 -0.511309
O26   O     O_R   0.324180 0.507870 0.953930 -0.503405

loop_
_geom_bond_atom_site_label_1
_geom_bond_atom_site_label_2
_ccdc_geom_bond_type
C66   C68   A    
C21   C26   S    
Cr6   O10   S    
C11   C18   S    
C26   C32   S    
C73   H21   S    
C16   O16   A    
C8    C83   S    
C73   C74   A    
C5    C56   A    
C28   C66   S    
C35   C36   S    
C5    C67   A    
C92   H40   S    
Cr2   O22   S    
C28   O18   A    
C65   C86   S    
C39   C41   S    
C53   C54   A    
C7    C11   S    
C23   H14   S    
C21   C31   S    
C12   C23   A    
C60   H17   S    
C22   C32   T    
C71   H22   S    
C36   H5    S    
Cr3   O15   S    
C78   H31   S    
C7    H35   S    
C84   O26   A    
C86   O6    A    
C21   C91   S    
C30   C31   S    
C25   H4    S    
C4    O15   A    
C27   C29   S    
C20   C25   S    
C46   H7    S    
C29   C33   S    
Cr5   O25   S    
Cr1   O4    S    
C22   C85   S    
C57   C61   A    
C70   C81   S    
C3    C12   S    
C54   C55   A    
C11   C15   S    
C9    C19   T    
C4    O14   A    
C91   H38   S    
C45   C56   A    
C59   H18   S    
C7    C17   S    
Cr4   O24   S    
Cr1   O1    S    
C70   C71   A    
C90   O10   A    
C35   C43   S    
C42   H9    S    
C76   C88   A    
C38   C48   T    
C52   O17   A    
C23   C34   A    
C87   O9    A    
Cr6   O9    S    
C59   C60   A    
Cr2   O14   S    
C13   C14   S    
C27   C30   S    
C6    H12   S    
C14   C17   S    
C36   C41   S    
C69   C70   A    
C67   C78   A    
C42   C44   S    
C74   C82   A    
C90   O5    A    
C92   H39   S    
Cr3   O21   S    
C68   H25   S    
C44   C46   S    
C39   C42   S    
C20   C29   S    
C77   C79   A    
C78   C89   A    
C41   C47   S    
C39   H10   S    
C74   H20   S    
C66   C72   A    
C27   H2    S    
C15   H34   S    
Cr3   O16   S    
C85   O23   A    
C13   H42   S    
C20   H44   S    
C35   H6    S    
C5    C84   S    
C12   C88   A    
C68   C69   A    
C55   H15   S    
C25   C26   S    
C49   C55   A    
C8    C18   T    
Cr5   O26   S    
C57   H11   S    
C60   C61   A    
C50   H16   S    
C10   H43   S    
C2    C89   S    
C35   C39   S    
C62   C63   T    
C52   O21   A    
C6    C14   S    
C58   C65   A    
C40   O12   A    
Cr1   O17   S    
C49   C52   S    
Cr4   O6    S    
C34   C64   A    
C50   C51   A    
C64   C76   A    
Cr4   O23   S    
C36   C46   S    
C75   C77   A    
C45   H3    S    
C17   H23   S    
Cr1   O22   S    
C26   C30   S    
Cr2   O13   S    
C84   O2    A    
C87   O8    A    
C13   C15   S    
C76   H30   S    
C41   C44   S    
C67   H32   S    
C37   C47   T    
C42   C43   S    
C30   H46   S    
Cr3   O22   S    
C77   H27   S    
C43   C48   S    
C15   C17   S    
Cr6   O11   S    
C34   H26   S    
C45   C89   A    
C72   H24   S    
C14   C19   S    
C9    C16   S    
C37   C87   S    
C85   O3    A    
C80   C81   T    
C73   C79   A    
C10   C13   S    
C6    C10   S    
C75   C82   A    
C40   O20   A    
C6    C7    S    
C88   H33   S    
C44   H8    S    
C25   C27   S    
Cr6   O2    S    
C83   O24   A    
C4    C64   S    
C24   C33   T    
C82   C90   S    
C75   H28   S    
C1    O13   A    
C2    C3    T    
C71   C72   A    
C29   C31   S    
C86   O7    A    
C59   C65   A    
C38   C40   S    
C53   C63   S    
C57   C58   A    
C91   H36   S    
Cr1   O18   S    
Cr4   O5    S    
C83   O25   A    
C51   H19   S    
Cr5   O8    S    
C54   H13   S    
Cr5   O11   S    
C31   H45   S    
C61   C62   S    
C43   C46   S    
C10   C11   S    
C79   C80   S    
Cr4   O11   S    
C91   H37   S    
C20   C21   S    
C69   H29   S    
C1    C24   S    
Cr2   O12   S    
C49   C50   A    
Cr6   O3    S    
C16   O1    A    
C1    O4    A    
C56   H1    S    
C51   C53   A    
Cr3   O20   S    
C92   H41   S    
C58   C92   S    
Cr2   O19   S    
Cr5   O7    S    
C28   O19   A    
