data_mof_unit_5355.cif
_audit_creation_date              2012-12-10T18:14:41-0500
_audit_creation_method            fapswitch 2.2
_symmetry_space_group_name_H-M    P1
_symmetry_Int_Tables_number       1
_space_group_crystal_system       triclinic
_cell_length_a                    10.787699
_cell_length_b                    9.399641
_cell_length_c                    27.780224
_cell_angle_alpha                 89.828413
_cell_angle_beta                  90.058948
_cell_angle_gamma                 90.267311
_cell_volume                      2816.88380333

loop_
_atom_site_label
_atom_site_type_symbol
_atom_type_description
_atom_site_fract_x
_atom_site_fract_y
_atom_site_fract_z
_atom_type_partial_charge
C1    C     C_R   0.259892 0.500083 0.498847 0.850899
C2    C     C_R   0.450751 0.415691 0.273382 -0.147673
C3    C     C_R   0.506555 0.535462 0.252689 0.263934
C4    C     C_R   0.509607 0.577517 0.101519 -0.050462
C5    C     C_R   0.398118 0.592126 0.127273 -0.027679
C6    C     C_R   0.287791 0.617594 0.102223 -0.126893
C7    C     C_R   0.620391 0.549537 0.126604 -0.032330
C8    C     C_R   0.496044 0.506432 0.353701 -0.179948
C9    C     C_R   0.500122 0.504417 0.645903 -0.151416
C10   C     C_R   0.396291 0.585407 0.974518 0.006800
C11   C     C_R   0.624080 0.602881 0.974535 -0.072955
C12   C     C_R   0.496090 0.500533 0.407210 0.910140
C13   C     C_R   0.510073 0.588849 0.949182 0.035335
C14   C     C_R   0.286267 0.559670 0.948631 -0.253867
C15   C     C_R   0.285219 0.542934 0.898699 0.384250
C16   C     C_R   0.397534 0.560448 0.872497 -0.123372
C17   C     C_R   0.510012 0.578628 0.898254 -0.087154
C18   C     C_R   0.623274 0.585471 0.873105 -0.097401
C19   C     C_R   0.624076 0.566756 0.823056 0.607894
C20   C     C_R   0.403284 0.560869 0.821600 0.595727
C21   C     C_R   0.450585 0.420338 0.726573 -0.112448
C22   C     C_R   0.437631 0.406320 0.676645 0.397719
C23   C     C_R   0.740362 0.500264 0.499742 0.886989
C24   C     C_R   0.568687 0.616343 0.666840 -0.233895
C25   C     C_R   0.575126 0.632364 0.716587 -0.053640
C26   C     C_R   0.516078 0.534361 0.746842 0.231328
C27   C     C_R   0.396387 0.599658 0.025371 0.066146
C28   C     C_R   0.509912 0.587842 0.050581 0.081014
C29   C     C_R   0.623402 0.581498 0.025174 0.079646
C30   C     C_R   0.286607 0.620611 0.052137 -0.193374
C31   C     C_R   0.730019 0.528958 0.100706 -0.137812
C32   C     C_R   0.733015 0.636112 0.947753 0.390963
C33   C     C_R   0.732871 0.616853 0.897958 -0.122726
C34   C     C_R   0.495682 0.500090 0.592686 0.913446
C35   C     C_R   0.730758 0.541975 0.050782 -0.100448
C36   C     C_3   0.073033 0.653187 0.488012 -0.411193
C37   C     C_3   0.074792 0.454418 0.548383 -0.383418
C38   C     C_3   0.930723 0.650613 0.482355 0.277992
C39   C     C_3   0.932513 0.470498 0.550900 0.180454
C40   C     C_3   0.071132 0.396466 0.460276 -0.318801
C41   C     C_3   0.122500 0.501201 0.498615 -0.043658
C42   C     C_3   0.878747 0.500737 0.498888 -0.122701
C43   C     C_3   0.928541 0.387876 0.463046 -0.341917
C44   C     C_3   0.528376 0.083495 0.549376 -0.148422
C45   C     C_3   0.529634 0.915966 0.549362 -0.206154
C46   C     C_3   0.378448 0.082837 0.486303 -0.193430
C47   C     C_3   0.378093 0.915617 0.486638 -0.208394
C48   C     C_3   0.595250 0.084538 0.467912 -0.196235
C49   C     C_3   0.593340 0.917022 0.467102 -0.133386
C50   C     C_R   0.399686 0.579935 0.177635 0.561848
C51   C     C_R   0.617603 0.537149 0.176993 0.565665
C52   C     C_R   0.555402 0.641653 0.282068 -0.085363
C53   C     C_R   0.549545 0.627754 0.331866 -0.209746
C54   C     C_R   0.442155 0.400587 0.323526 0.413951
Cu1   Cu    Cu3+1 0.499860 0.642410 0.500020 0.941131
Cu2   Cu    Cu3+1 0.499860 0.357590 0.500020 1.020868
H1    H     H_    0.616864 0.693423 0.644506 0.175018
H2    H     H_    0.817925 0.635851 0.878184 0.253152
H3    H     H_    0.624744 0.722384 0.731535 0.184397
H4    H     H_    0.815136 0.514903 0.032365 0.197856
H5    H     H_    0.892652 0.733709 0.506626 0.079077
H6    H     H_    0.912633 0.565779 0.573283 0.097650
H7    H     H_    0.411296 0.335669 0.249874 0.188455
H8    H     H_    0.099418 0.432706 0.423843 0.262164
H9    H     H_    0.109787 0.288046 0.465806 0.188743
H10   H     H_    0.888329 0.403750 0.426600 0.233571
H11   H     H_    0.900341 0.279196 0.473987 0.212434
H12   H     H_    0.457498 0.119286 0.575226 0.220351
H13   H     H_    0.460741 0.877345 0.576197 0.165972
H14   H     H_    0.618885 0.124716 0.562496 0.233807
H15   H     H_    0.621920 0.877426 0.561523 0.161305
H16   H     H_    0.304480 0.120322 0.510992 0.166355
H17   H     H_    0.305185 0.878591 0.512070 0.157551
H18   H     H_    0.581239 0.126244 0.431038 0.211418
H19   H     H_    0.573812 0.880202 0.429868 0.177398
H20   H     H_    0.689197 0.120939 0.478906 0.187604
H21   H     H_    0.687147 0.877744 0.476535 0.198423
H22   H     H_    0.353838 0.121386 0.449905 0.216104
H23   H     H_    0.351702 0.875158 0.450427 0.157791
H24   H     H_    0.201192 0.632729 0.121203 0.197624
H25   H     H_    0.404655 0.345091 0.750289 0.202137
H26   H     H_    0.198644 0.642301 0.035176 0.185875
H27   H     H_    0.586727 0.713813 0.353304 0.215727
N1    N     N_R   0.508243 0.552068 0.201344 -0.460488
N2    N     N_R   0.515010 0.554508 0.798297 -0.466860
N3    N     N_3   0.500250 0.143650 0.501060 -0.159642
N4    N     N_3   0.500250 0.856350 0.501060 -0.148818
O1    O     O_R   0.317570 0.620260 0.500030 -0.614368
O2    O     O_R   0.317570 0.379740 0.500030 -0.572149
O3    O     O_R   0.499900 0.620250 0.430280 -0.589009
O4    O     O_R   0.499900 0.379750 0.430280 -0.544756
O5    O     O_R   0.682190 0.620260 0.500010 -0.590224
O6    O     O_R   0.682190 0.379740 0.500010 -0.554709
O7    O     O_R   0.499860 0.620280 0.569750 -0.622786
O8    O     O_R   0.499860 0.379720 0.569750 -0.517426
O9    O     O_2   0.293609 0.595483 0.202756 -0.503235
O10   O     O_2   0.299176 0.573430 0.795171 -0.423698
O11   O     O_2   0.722890 0.508936 0.201420 -0.505768
O12   O     O_2   0.733084 0.560386 0.799379 -0.468181
S1    S     S_3+6 0.353579 0.255179 0.345177 -0.002612
O13   O     O_2   0.282348 0.297329 0.389164 -0.351669
O14   O     O_2   0.263368 0.207417 0.307143 -0.251626
O15   O     O_3   0.449115 0.119737 0.358108 -0.566939
H28   H     H_    0.393851 0.037508 0.364704 0.360528
H29   H     H_    0.596712 0.736037 0.266264 0.171218
H30   H     H_    0.815404 0.500560 0.118818 0.195113
S2    S     S_3+6 0.858850 0.736939 0.971512 0.015226
O16   O     O_2   0.965931 0.640471 0.982437 -0.313638
O17   O     O_2   0.899876 0.844887 0.934719 -0.229182
O18   O     O_3   0.816174 0.823265 0.021760 -0.527971
H31   H     H_    0.893770 0.865400 0.034552 0.378461
H32   H     H_    0.119429 0.698149 0.455595 0.236198
H33   H     H_    0.102092 0.341823 0.554278 0.236772
H34   H     H_    0.097987 0.725169 0.518335 0.136879
H35   H     H_    0.118817 0.518965 0.577349 0.184618
S3    S     S_3+6 0.889895 0.703945 0.421497 -0.035918
O19   O     O_2   0.763196 0.651167 0.408179 -0.340792
O20   O     O_2   0.891859 0.863658 0.418716 -0.303231
O21   O     O_3   0.992079 0.639625 0.381470 -0.530382
H36   H     H_    0.963544 0.675698 0.349828 0.400733
S4    S     S_3+6 0.868441 0.322077 0.584392 0.015815
O22   O     O_2   0.947489 0.295836 0.628123 -0.192495
O23   O     O_2   0.740629 0.357890 0.601353 -0.282606
O24   O     O_3   0.862703 0.172076 0.551648 -0.569202
H37   H     H_    0.949323 0.137831 0.550340 0.346548
S5    S     S_3+6 0.333462 0.271962 0.657209 0.005512
O25   O     O_2   0.222457 0.271069 0.689902 -0.197680
O26   O     O_2   0.289936 0.294671 0.606505 -0.357386
O27   O     O_3   0.404716 0.113877 0.662102 -0.549553
H38   H     H_    0.340449 0.042458 0.653742 0.369312
S6    S     S_3+6 0.142822 0.484925 0.872570 0.105177
O28   O     O_2   0.082588 0.607935 0.847164 -0.152490
O29   O     O_2   0.165771 0.367668 0.837003 -0.216039
O30   O     O_3   0.044496 0.423629 0.914862 -0.488687
H39   H     H_    0.081696 0.333623 0.926429 0.352889
H40   H     H_    0.199994 0.543429 0.967291 0.207426

loop_
_geom_bond_atom_site_label_1
_geom_bond_atom_site_label_2
_ccdc_geom_bond_type
C10   C27   A    
Cu2   O8    S    
C21   C26   A    
C33   H2    S    
C45   H15   S    
C48   H20   S    
C12   O4    A    
C47   H23   S    
Cu1   Cu2   S    
S6    O30   S    
C36   H34   S    
C50   N1    A    
C44   C45   S    
S5    O25   D    
C23   C42   S    
C12   O3    A    
C28   C29   A    
C45   N4    S    
C38   C42   S    
Cu1   O3    S    
Cu1   O7    S    
C5    C6    A    
C3    C52   A    
C9    C22   A    
C22   S5    S    
C37   H33   S    
C15   C16   A    
S3    O19   D    
C18   C19   A    
Cu1   O1    S    
C49   N4    S    
O18   H31   S    
S4    O24   S    
C6    H24   S    
C40   C43   S    
C20   O10   S    
S3    O20   D    
C24   H1    S    
C32   S2    S    
C36   H32   S    
C1    O2    A    
S2    O16   D    
C49   H19   S    
C44   H14   S    
C46   H16   S    
C16   C20   A    
C38   H5    S    
C1    O1    A    
C43   H10   S    
C21   C22   A    
C27   C30   A    
C37   C41   S    
S2    O17   D    
C54   S1    S    
C36   C41   S    
C4    C7    A    
C44   N3    S    
C4    C28   A    
C39   C42   S    
Cu2   O4    S    
Cu2   O6    S    
C7    C31   A    
C45   H13   S    
C48   H18   S    
C34   O8    A    
C47   H17   S    
C10   C14   A    
C8    C54   A    
C46   H22   S    
C19   O12   S    
C16   C17   A    
C3    N1    S    
S5    O27   S    
C19   N2    A    
C25   C26   A    
S1    O15   S    
C23   O6    A    
C35   H4    S    
C47   N4    S    
C30   H26   S    
Cu1   O5    S    
C38   S3    S    
Cu2   N3    S    
C8    C12   S    
C20   N2    A    
S1    O14   D    
C17   C18   A    
C52   C53   A    
C24   C25   A    
S4    O22   D    
C1    C41   S    
C40   C41   S    
C6    C30   A    
C21   H25   S    
C52   H29   S    
C40   H9    S    
C2    C54   A    
C9    C34   S    
S2    O18   S    
C31   C35   A    
C5    C50   A    
C44   H12   S    
C42   C43   S    
S6    O28   D    
O15   H28   S    
C2    H7    S    
O27   H38   S    
C39   H6    S    
C46   C47   S    
Cu2   O2    S    
S5    O26   D    
C23   O5    A    
C34   O7    A    
C4    C5    A    
S6    O29   D    
C10   C13   A    
C39   S4    S    
C8    C53   A    
C11   C32   A    
O21   H36   S    
C9    C24   A    
O30   H39   S    
C37   H35   S    
C29   C35   A    
C40   H8    S    
S3    O21   S    
C13   C17   A    
C53   H27   S    
C32   C33   A    
C36   C38   S    
C2    C3    A    
C7    C51   A    
C37   C39   S    
C11   C13   A    
C50   O9    S    
C14   H40   S    
C51   O11   S    
C26   N2    S    
C48   C49   S    
S1    O13   D    
C31   H30   S    
C49   H21   S    
C48   N3    S    
Cu1   N4    S    
C18   C33   A    
S4    O23   D    
C15   S6    S    
C11   C29   A    
C43   H11   S    
C27   C28   A    
C14   C15   A    
C25   H3    S    
C51   N1    A    
O24   H37   S    
C46   N3    S    
