data_mof_unit_64998.cif
_audit_creation_date              2012-12-10T20:44:41-0500
_audit_creation_method            fapswitch 2.2
_symmetry_space_group_name_H-M    P1
_symmetry_Int_Tables_number       1
_space_group_crystal_system       triclinic
_cell_length_a                    28.312158
_cell_length_b                    26.036599
_cell_length_c                    13.126776
_cell_angle_alpha                 90.107653
_cell_angle_beta                  82.714363
_cell_angle_gamma                 90.024861
_cell_volume                      9598.29108725

loop_
_atom_site_label
_atom_site_type_symbol
_atom_type_description
_atom_site_fract_x
_atom_site_fract_y
_atom_site_fract_z
_atom_type_partial_charge
C1    C     C_R   0.590031 0.098671 0.510528 0.538260
C2    C     C_R   0.292047 0.167427 0.532720 -0.105249
C3    C     C_R   0.792170 0.332417 0.533051 -0.105974
C4    C     C_R   0.796370 0.673943 0.552592 -0.105639
C5    C     C_R   0.298014 0.792419 0.467806 0.169007
C6    C     C_R   0.304442 0.217060 0.495737 0.169361
C7    C     C_R   0.804541 0.282794 0.495653 0.169150
C8    C     C_R   0.797833 0.707255 0.467696 0.168553
C9    C     C_R   0.336623 0.794868 0.390211 -0.057031
C10   C     C_R   0.351713 0.227455 0.456608 -0.056551
C11   C     C_R   0.851769 0.272436 0.456086 -0.058056
C12   C     C_R   0.590065 0.901344 0.510661 0.537068
C13   C     C_R   0.836375 0.704584 0.389953 -0.056398
C14   C     C_R   0.373742 0.829509 0.397049 0.373362
C15   C     C_R   0.386256 0.189008 0.452344 0.370061
C16   C     C_R   0.886294 0.310924 0.451806 0.366449
C17   C     C_R   0.873535 0.670039 0.396839 0.378196
C18   C     C_R   0.704144 0.167450 0.547577 -0.042487
C19   C     C_R   0.678433 0.794653 0.437381 -0.041392
C20   C     C_R   0.178565 0.705071 0.437545 -0.041387
C21   C     C_R   0.204018 0.332413 0.547769 -0.042561
C22   C     C_R   0.669796 0.128902 0.549572 0.362312
C23   C     C_R   0.090065 0.598618 0.510716 0.535849
C24   C     C_R   0.642237 0.830466 0.431140 0.366429
C25   C     C_R   0.142331 0.669285 0.431274 0.366693
C26   C     C_R   0.169703 0.370982 0.549826 0.361993
C27   C     C_R   0.694975 0.216810 0.510695 0.167091
C28   C     C_R   0.698923 0.789134 0.529214 0.168052
C29   C     C_R   0.199058 0.710712 0.529381 0.167958
C30   C     C_R   0.194902 0.283070 0.510333 0.167194
C31   C     C_R   0.625982 0.139114 0.513886 0.035566
C32   C     C_R   0.626402 0.861543 0.516373 0.040257
C33   C     C_R   0.126453 0.638370 0.516494 0.040262
C34   C     C_R   0.090035 0.401293 0.510460 0.539480
C35   C     C_R   0.125965 0.360822 0.513646 0.034978
C36   C     C_R   0.616753 0.188602 0.478926 -0.192828
C37   C     C_R   0.646384 0.855210 0.608140 -0.189789
C38   C     C_R   0.146430 0.644828 0.608279 -0.189055
C39   C     C_R   0.116792 0.311356 0.478089 -0.193739
C40   C     C_R   0.409668 0.901539 0.488799 0.539300
C41   C     C_R   0.409897 0.098771 0.489872 0.546970
C42   C     C_R   0.909909 0.401195 0.489816 0.543747
C43   C     C_R   0.909649 0.598415 0.488826 0.541317
C44   C     C_R   0.650801 0.227202 0.478639 -0.121714
C45   C     C_R   0.333121 0.860972 0.559022 -0.205113
C46   C     C_R   0.681891 0.818843 0.614652 -0.118387
C47   C     C_R   0.181989 0.681170 0.614814 -0.118087
C48   C     C_R   0.150804 0.272732 0.477741 -0.121954
C49   C     C_R   0.477298 0.000457 0.776975 0.495312
C50   C     C_R   0.977300 0.500481 0.776979 0.495689
C51   C     C_R   0.523033 0.999878 0.223556 0.567050
C52   C     C_R   0.023016 0.499878 0.223549 0.566033
C53   C     C_2   0.531158 0.999137 0.112228 -0.023347
C54   C     C_2   0.031138 0.499128 0.112211 -0.023078
C55   C     C_2   0.495785 0.009995 0.057632 0.362145
C56   C     C_R   0.326495 0.129158 0.529622 -0.200827
C57   C     C_2   0.995858 0.510329 0.057580 0.364294
C58   C     C_2   0.467894 0.004075 0.888999 -0.067649
C59   C     C_2   0.967913 0.504223 0.889001 -0.069560
C60   C     C_2   0.503941 0.004927 0.945626 -0.118664
C61   C     C_2   0.003976 0.505143 0.945588 -0.120711
C62   C     C_R   0.372146 0.863050 0.481715 0.035113
C63   C     C_R   0.373852 0.139439 0.489328 0.039032
C64   C     C_R   0.873902 0.360482 0.489195 0.036943
C65   C     C_R   0.872061 0.636803 0.481715 0.034492
C66   C     C_R   0.826591 0.370721 0.529906 -0.202386
C67   C     C_R   0.833097 0.639086 0.559167 -0.205162
C68   C     C_R   0.296437 0.826032 0.552491 -0.105893
F1    F     F_    0.452048 0.023733 0.105493 -0.605399
F2    F     F_    0.910119 0.668392 0.319319 -0.571178
F3    F     F_    0.952226 0.524465 0.105388 -0.597139
F4    F     F_    0.679996 0.081473 0.583598 -0.597771
F5    F     F_    0.623819 0.835650 0.341139 -0.591673
F6    F     F_    0.123917 0.663967 0.341254 -0.590221
F7    F     F_    0.179862 0.418380 0.584444 -0.597879
F8    F     F_    0.410408 0.830938 0.319703 -0.583479
F9    F     F_    0.431824 0.200800 0.414544 -0.598160
F10   F     F_    0.931827 0.299188 0.413583 -0.601662
H1    H     H_    0.540447 0.001048 0.908992 0.125164
H2    H     H_    0.143152 0.234786 0.450088 0.154060
H3    H     H_    0.330879 0.886459 0.624778 0.157361
H4    H     H_    0.316008 0.091425 0.558919 0.157159
H5    H     H_    0.816118 0.408447 0.559522 0.157109
H6    H     H_    0.830943 0.613832 0.625081 0.157919
H7    H     H_    0.431256 0.006857 0.925093 0.179269
H8    H     H_    0.931283 0.507054 0.925119 0.178599
H9    H     H_    0.565212 0.985162 0.074944 0.043372
H10   H     H_    0.065055 0.484779 0.074945 0.038895
H11   H     H_    0.737738 0.158744 0.574972 0.170064
H12   H     H_    0.040474 0.501189 0.908945 0.126057
H13   H     H_    0.690315 0.771279 0.370732 0.170477
H14   H     H_    0.190479 0.728331 0.370915 0.170404
H15   H     H_    0.237543 0.341090 0.575572 0.170166
H16   H     H_    0.337994 0.769555 0.324322 0.160708
H17   H     H_    0.361733 0.265583 0.428890 0.159701
H18   H     H_    0.861765 0.234314 0.428039 0.159147
H19   H     H_    0.837668 0.729657 0.323902 0.161875
H20   H     H_    0.583068 0.197533 0.452080 0.175659
H21   H     H_    0.634422 0.878325 0.675163 0.159918
H22   H     H_    0.134424 0.621836 0.675287 0.160935
H23   H     H_    0.266682 0.825804 0.613080 0.163089
H24   H     H_    0.083172 0.302456 0.450838 0.175078
H25   H     H_    0.255952 0.158276 0.565171 0.162164
H26   H     H_    0.756112 0.341542 0.565845 0.162182
H27   H     H_    0.766677 0.674343 0.613319 0.163352
H28   H     H_    0.643119 0.265169 0.451432 0.154141
H29   H     H_    0.696923 0.814470 0.686020 0.153830
H30   H     H_    0.197026 0.685653 0.686184 0.154076
N1    N     N_2   0.261178 0.756572 0.457048 -0.230219
N2    N     N_2   0.270800 0.257618 0.498862 -0.231430
N3    N     N_2   0.770898 0.242224 0.498729 -0.231899
N4    N     N_2   0.760974 0.743035 0.456891 -0.229666
N5    N     N_2   0.728746 0.257162 0.506524 -0.228359
N6    N     N_2   0.735960 0.753645 0.539401 -0.227120
N7    N     N_2   0.236125 0.746195 0.539559 -0.227276
N8    N     N_2   0.228644 0.242692 0.506136 -0.227807
O1    O     O_3   0.499990 0.000000 0.500000 -0.483045
O2    O     O_R   0.950070 0.602520 0.433660 -0.454933
O3    O     O_R   0.588860 0.940050 0.570910 -0.547032
O4    O     O_R   0.588860 0.059950 0.570910 -0.470651
O5    O     O_R   0.088860 0.440050 0.570910 -0.470365
O6    O     O_R   0.088860 0.559950 0.570910 -0.547283
O7    O     O_R   0.401370 0.059920 0.548800 -0.559657
O8    O     O_R   0.401370 0.940080 0.548800 -0.562060
O9    O     O_R   0.901370 0.559920 0.548800 -0.562811
O10   O     O_R   0.901370 0.440080 0.548800 -0.558463
O11   O     O_R   0.520330 0.000000 0.732910 -0.538772
O12   O     O_3   0.999990 0.500000 0.500000 -0.482748
O13   O     O_R   0.020330 0.500000 0.732910 -0.538532
O14   O     O_R   0.518600 0.042600 0.271700 -0.506828
O15   O     O_R   0.518600 0.957400 0.271700 -0.506244
O16   O     O_R   0.018600 0.542600 0.271700 -0.477171
O17   O     O_R   0.018600 0.457400 0.271700 -0.536515
O18   O     O_R   0.442440 0.000000 0.723710 -0.535812
O19   O     O_R   0.942440 0.500000 0.723710 -0.535750
O20   O     O_R   0.559670 0.102510 0.446620 -0.551263
O21   O     O_R   0.559670 0.897490 0.446620 -0.472515
O22   O     O_R   0.059670 0.602510 0.446620 -0.473234
O23   O     O_R   0.059670 0.397490 0.446620 -0.550222
O24   O     O_R   0.450070 0.897480 0.433660 -0.459767
O25   O     O_R   0.450070 0.102520 0.433660 -0.456122
O26   O     O_R   0.950070 0.397480 0.433660 -0.462890
Zn1   Zn    Zn3+2 0.506960 0.939150 0.414470 1.056240
Zn2   Zn    Zn3+2 0.506960 0.060850 0.414470 1.024645
Zn3   Zn    Zn3+2 0.006960 0.439150 0.414470 1.009023
Zn4   Zn    Zn3+2 0.006960 0.560850 0.414470 1.070100
Zn5   Zn    Zn3+2 0.548670 0.000000 0.592090 0.984067
Zn6   Zn    Zn3+2 0.048670 0.500000 0.592090 0.984263
Zn7   Zn    Zn3+2 0.437380 0.000000 0.578960 0.949349
Zn8   Zn    Zn3+2 0.937380 0.500000 0.578960 0.949056

loop_
_geom_bond_atom_site_label_1
_geom_bond_atom_site_label_2
_ccdc_geom_bond_type
C3    H26   S    
C11   H18   S    
C49   O18   A    
O7    Zn7   S    
C60   H1    S    
C8    C13   A    
C42   C64   S    
C45   C62   A    
C23   O22   A    
O24   Zn1   S    
C4    C8    A    
O12   Zn4   S    
C43   O9    A    
N4    N6    D    
C30   N8    S    
C7    C11   A    
C20   H14   S    
C28   C46   A    
C21   H15   S    
C29   C47   A    
C50   C59   S    
C10   H17   S    
C30   C48   A    
O1    Zn1   S    
C34   C35   S    
C3    C7    A    
C50   O19   A    
C8    N4    S    
C24   F5    S    
C20   C25   A    
C58   C60   D    
C14   C62   A    
C40   O24   A    
C34   O23   A    
C1    C31   S    
C40   C62   S    
C25   F6    S    
O13   Zn6   S    
C66   H5    S    
C27   C44   A    
C51   O14   A    
C23   C33   S    
C42   O26   A    
O6    Zn6   S    
C1    O20   A    
O14   Zn2   S    
C31   C36   A    
C29   N7    S    
C17   F2    S    
C55   C60   S    
C12   C32   S    
C52   O17   A    
C6    N2    S    
O26   Zn3   S    
C2    C6    A    
C53   H9    S    
C5    C68   A    
C49   O11   A    
C22   F4    S    
C21   C26   A    
C52   C54   S    
C23   O6    A    
C20   C29   A    
C53   C55   D    
C40   O8    A    
C59   C61   D    
C22   C31   A    
O21   Zn1   S    
C52   O16   A    
O11   Zn5   S    
O2    Zn4   S    
O1    Zn2   S    
C68   H23   S    
C38   H22   S    
O25   Zn2   S    
C51   O15   A    
O12   Zn6   S    
C65   C67   A    
O18   Zn7   S    
C49   C58   S    
C51   C53   S    
C1    O4    A    
C14   F8    S    
C12   O3    A    
C35   C39   A    
C9    C14   A    
C24   C32   A    
C5    C9    A    
C50   O13   A    
O8    Zn7   S    
C11   C16   A    
C43   C65   S    
C46   H29   S    
C45   C68   A    
C26   F7    S    
O5    Zn6   S    
O1    Zn5   S    
N3    N5    D    
C32   C37   A    
C57   F3    S    
C57   C61   S    
C19   C28   A    
C38   C47   A    
C55   F1    S    
C28   N6    S    
C27   N5    S    
O12   Zn8   S    
C34   O5    A    
C36   C44   A    
C3    C66   A    
O17   Zn3   S    
C41   C63   S    
C42   O10   A    
C58   H7    S    
N2    N8    D    
C37   H21   S    
O15   Zn1   S    
C61   H12   S    
C39   H24   S    
C21   C30   A    
C4    H27   S    
O23   Zn3   S    
C18   C22   A    
C18   H11   S    
C45   H3    S    
C18   C27   A    
C6    C10   A    
C4    C67   A    
O1    Zn7   S    
C56   H4    S    
C44   H28   S    
O19   Zn8   S    
C41   O25   A    
C17   C65   A    
C33   C38   A    
C13   C17   A    
C10   C15   A    
O16   Zn4   S    
C41   O7    A    
C19   C24   A    
C59   H8    S    
O20   Zn2   S    
C2    C56   A    
C54   H10   S    
O10   Zn8   S    
C48   H2    S    
C15   F9    S    
C5    N1    S    
C2    H25   S    
O22   Zn4   S    
C56   C63   A    
C7    N3    S    
C16   F10   S    
C13   H19   S    
O12   Zn3   S    
C19   H13   S    
O9    Zn8   S    
N1    N7    D    
C43   O2    A    
C26   C35   A    
C67   H6    S    
O4    Zn5   S    
C47   H30   S    
C25   C33   A    
C15   C63   A    
C12   O21   A    
C36   H20   S    
C16   C64   A    
C37   C46   A    
O3    Zn5   S    
C9    H16   S    
C64   C66   A    
C39   C48   A    
C54   C57   D    
