data_mof_unit_64722.cif
_audit_creation_date              2013-03-05T16:42:57-0500
_audit_creation_method            fapswitch 2.2
_symmetry_space_group_name_H-M    P1
_symmetry_Int_Tables_number       1
_space_group_crystal_system       triclinic
_cell_length_a                    17.83286
_cell_length_b                    16.407348
_cell_length_c                    27.904309
_cell_angle_alpha                 89.672994
_cell_angle_beta                  90.182474
_cell_angle_gamma                 89.802275
_cell_volume                      8164.29658321

loop_
_atom_site_label
_atom_site_type_symbol
_atom_site_description
_atom_site_fract_x
_atom_site_fract_y
_atom_site_fract_z
_atom_type_partial_charge
O1    O     O_R   0.391260 0.567930 0.500000 -0.553921
O2    O     O_R   0.608740 0.432070 0.500000 -0.553839
O3    O     O_R   0.608740 0.567930 0.500000 -0.557616
O4    O     O_R   0.391260 0.432070 0.500000 -0.557215
C1    C     C_R   0.354941 0.499964 0.499781 0.835469
C2    C     C_R   0.645067 0.500045 0.500315 0.835523
O5    O     O_R   0.500010 0.567900 0.430260 -0.572149
O6    O     O_R   0.499990 0.432100 0.569740 -0.572251
O7    O     O_R   0.499990 0.567900 0.569740 -0.543100
O8    O     O_R   0.500010 0.432100 0.430260 -0.543654
C3    C     C_R   0.499786 0.500247 0.407118 0.888054
C4    C     C_R   0.500216 0.499741 0.592891 0.887494
Cu1   Cu    Cu3+1 0.500000 0.580420 0.500000 1.012227
Cu2   Cu    Cu3+1 0.500000 0.419580 0.500000 1.012362
C5    C     C_R   0.441103 0.525092 0.178033 0.597239
C6    C     C_R   0.562597 0.483608 0.822156 0.600182
O9    O     O_2   0.383186 0.554768 0.203679 -0.492503
O10   O     O_2   0.624461 0.465407 0.796571 -0.494985
N1    N     N_R   0.502153 0.494669 0.201655 -0.452467
N2    N     N_R   0.498211 0.504107 0.798469 -0.452099
C7    C     C_R   0.562938 0.464670 0.177912 0.613164
C8    C     C_R   0.433492 0.522044 0.822191 0.605722
C9    C     C_R   0.532840 0.560807 0.277210 -0.157210
C10   C     C_R   0.468780 0.437897 0.722762 -0.171900
C11   C     C_R   0.532746 0.563674 0.327097 0.085291
C12   C     C_R   0.468472 0.435428 0.672883 0.089425
C13   C     C_R   0.464012 0.435130 0.329051 0.387174
C14   C     C_R   0.534916 0.565375 0.671053 0.378592
C15   C     C_R   0.469600 0.430529 0.278753 0.105239
C16   C     C_R   0.529180 0.569738 0.721359 0.117744
C17   C     C_R   0.502188 0.494723 0.253048 0.213062
C18   C     C_R   0.498283 0.504487 0.747041 0.208840
C19   C     C_R   0.500849 0.494542 0.101946 -0.137943
C20   C     C_R   0.497997 0.499673 0.898192 -0.138934
C21   C     C_R   0.438641 0.525504 0.127614 -0.110920
C22   C     C_R   0.564370 0.481358 0.872583 -0.110280
C23   C     C_R   0.375914 0.556082 0.102312 0.469889
C24   C     C_R   0.630528 0.461420 0.897945 0.473401
C25   C     C_R   0.563879 0.462874 0.127278 -0.070092
C26   C     C_R   0.431133 0.519525 0.872800 -0.071361
C27   C     C_R   0.498770 0.500210 0.353924 -0.215130
C28   C     C_R   0.501283 0.499677 0.646100 -0.214631
C29   C     C_R   0.433270 0.519630 0.974900 0.048579
C30   C     C_R   0.563401 0.468097 0.025206 0.047942
C31   C     C_R   0.564619 0.475009 0.974372 0.003783
C32   C     C_R   0.435700 0.523936 0.025793 0.004311
C33   C     C_R   0.498593 0.497986 0.949245 0.077222
C34   C     C_R   0.499934 0.495394 0.050890 0.077195
C35   C     C_R   0.366807 0.534799 0.948885 -0.232402
C36   C     C_R   0.623376 0.433000 0.051111 -0.233468
C37   C     C_R   0.364857 0.535169 0.899067 0.213484
C38   C     C_R   0.624539 0.430116 0.100923 0.214941
O11   O     O_2   0.372468 0.542928 0.796359 -0.471037
O12   O     O_2   0.621780 0.437312 0.203752 -0.470654
C39   C     C_R   0.376046 0.557129 0.052401 -0.293953
C40   C     C_R   0.630455 0.460853 0.947873 -0.295374
H1    H     H_    0.444564 0.388160 0.743102 0.181013
H2    H     H_    0.558091 0.609838 0.256801 0.182978
H3    H     H_    0.313892 0.544027 0.966567 0.158147
H4    H     H_    0.669889 0.404255 0.033301 0.157823
H5    H     H_    0.328869 0.586955 0.035513 0.163912
H6    H     H_    0.684134 0.451480 0.964923 0.162882
C41   C     C_R   0.847434 0.570505 0.487426 -0.160709
C42   C     C_R   0.152597 0.429918 0.513407 -0.160741
C43   C     C_R   0.152002 0.568632 0.484619 -0.155337
C44   C     C_R   0.848037 0.431346 0.515436 -0.155077
H7    H     H_    0.878126 0.624576 0.476847 0.170448
H8    H     H_    0.121906 0.376035 0.524316 0.170374
H9    H     H_    0.120873 0.622035 0.472889 0.170022
H10   H     H_    0.879174 0.377776 0.526886 0.169924
C45   C     C_R   0.769243 0.571866 0.487681 0.143404
C46   C     C_R   0.230784 0.428466 0.513012 0.143583
C47   C     C_R   0.230150 0.569234 0.483664 0.131475
C48   C     C_R   0.769885 0.430628 0.516243 0.131988
C49   C     C_R   0.728464 0.500665 0.501181 -0.149414
C50   C     C_R   0.271554 0.499404 0.499061 -0.149848
C51   C     C_R   0.886425 0.500569 0.500819 0.051218
C52   C     C_R   0.113612 0.499691 0.499700 0.051089
C53   C     C_1   0.966434 0.500298 0.500443 -0.007139
C54   C     C_1   0.033605 0.500006 0.500129 -0.007191
C55   C     C_R   0.537389 0.828718 0.536349 0.309789
C56   C     C_R   0.462781 0.171284 0.463518 0.311188
C57   C     C_R   0.466877 0.829898 0.462126 0.316320
C58   C     C_R   0.533366 0.170064 0.537736 0.315800
C59   C     C_R   0.534947 0.742431 0.535988 -0.011799
C60   C     C_R   0.465069 0.257617 0.463983 -0.014205
C61   C     C_R   0.467079 0.743503 0.463280 0.015403
C62   C     C_R   0.533039 0.256459 0.536659 0.016265
H11   H     H_    0.561169 0.708436 0.564682 0.191000
H12   H     H_    0.438885 0.291726 0.435317 0.190388
H13   H     H_    0.440098 0.710154 0.434859 0.167752
H14   H     H_    0.560064 0.289785 0.565075 0.167279
N3    N     N_R   0.500000 0.701220 0.500000 -0.204141
N4    N     N_R   0.500000 0.298780 0.500000 -0.203541
C63   C     C_R   0.500806 0.873113 0.499777 -0.062089
C64   C     C_R   0.499455 0.126895 0.500060 -0.060577
C65   C     C_1   0.500357 0.962753 0.499906 0.131598
C66   C     C_1   0.499969 0.037254 0.499899 0.132783
O13   O     O_3   0.426799 0.374582 0.354208 -0.567054
C67   C     C_3   0.348214 0.381482 0.346859 0.066220
H15   H     H_    0.325582 0.319465 0.340576 0.185609
H16   H     H_    0.331277 0.419593 0.315321 0.159550
C68   C     C_3   0.310869 0.415827 0.391235 -0.813714
H17   H     H_    0.332461 0.477947 0.398410 0.237071
H18   H     H_    0.249270 0.419480 0.385657 0.224581
H19   H     H_    0.322365 0.375449 0.422409 0.255511
O14   O     O_3   0.570981 0.626842 0.645978 -0.568370
C69   C     C_3   0.649677 0.621539 0.653284 0.070162
H20   H     H_    0.667169 0.585304 0.685445 0.166781
H21   H     H_    0.671442 0.684205 0.658533 0.185594
C70   C     C_3   0.687469 0.585718 0.609436 -0.815149
H22   H     H_    0.675858 0.624770 0.577717 0.255314
H23   H     H_    0.749068 0.582852 0.615161 0.226636
H24   H     H_    0.666421 0.523131 0.603004 0.236319
I1    I     I_    0.722754 0.686979 0.467535 -0.365687
I2    I     I_    0.277351 0.313633 0.533593 -0.361896
I3    I     I_    0.275962 0.677502 0.453843 -0.349660
I4    I     I_    0.724144 0.321649 0.545197 -0.351904
O15   O     O_3   0.571288 0.870167 0.573644 -0.562010
C71   C     C_3   0.649192 0.854163 0.573478 0.077776
H25   H     H_    0.673431 0.861236 0.536872 0.164363
H26   H     H_    0.661019 0.791632 0.587163 0.149652
C72   C     C_3   0.688253 0.914450 0.606251 -0.730343
H27   H     H_    0.665856 0.908960 0.643221 0.251918
H28   H     H_    0.749441 0.901696 0.607003 0.207353
H29   H     H_    0.678963 0.977581 0.592876 0.274718
O16   O     O_3   0.429246 0.129672 0.426124 -0.561274
C73   C     C_3   0.351682 0.147551 0.424831 0.075428
H30   H     H_    0.341672 0.209298 0.409414 0.151589
H31   H     H_    0.326024 0.143758 0.461214 0.163202
C74   C     C_3   0.312479 0.085880 0.393025 -0.726715
H32   H     H_    0.320409 0.023466 0.407887 0.274560
H33   H     H_    0.251528 0.099747 0.391317 0.206289
H34   H     H_    0.335913 0.088525 0.356209 0.252231
O17   O     O_3   0.429424 0.872767 0.426377 -0.564293
C75   C     C_3   0.462412 0.856411 0.381480 0.076637
H35   H     H_    0.444060 0.795941 0.368119 0.169849
H36   H     H_    0.524920 0.858233 0.383328 0.166600
C76   C     C_3   0.436923 0.920881 0.345562 -0.710228
H37   H     H_    0.454840 0.982174 0.357722 0.273912
H38   H     H_    0.462253 0.908531 0.310022 0.214042
H39   H     H_    0.374887 0.919930 0.341973 0.249209
O18   O     O_3   0.570999 0.127151 0.573395 -0.564266
C77   C     C_3   0.538161 0.143338 0.618357 0.077581
H40   H     H_    0.475653 0.141380 0.616599 0.167441
H41   H     H_    0.556475 0.203808 0.631732 0.167579
C78   C     C_3   0.563885 0.078864 0.654205 -0.720747
H42   H     H_    0.625914 0.080076 0.657797 0.247802
H43   H     H_    0.538524 0.091009 0.689760 0.210756
H44   H     H_    0.546179 0.017530 0.641992 0.275978
I5    I     I_    0.430987 0.325624 0.241397 -0.305256
I6    I     I_    0.563943 0.676378 0.758530 -0.263193
O19   O     O_3   0.315629 0.590341 0.126045 -0.531075
C79   C     C_3   0.255633 0.534332 0.125770 0.091665
H45   H     H_    0.273249 0.474203 0.140988 0.155661
H46   H     H_    0.233815 0.525597 0.088728 0.130428
C80   C     C_3   0.192259 0.567451 0.156446 -0.682222
H47   H     H_    0.172616 0.626982 0.141904 0.248530
H48   H     H_    0.144658 0.523992 0.156432 0.195167
H49   H     H_    0.212017 0.575809 0.193882 0.268676
O20   O     O_3   0.697531 0.448246 0.874270 -0.526864
C81   C     C_3   0.713800 0.363910 0.874989 0.087236
H50   H     H_    0.666210 0.327953 0.860126 0.146512
H51   H     H_    0.726348 0.342528 0.912103 0.130079
C82   C     C_3   0.782441 0.347900 0.844200 -0.679617
H52   H     H_    0.831305 0.382008 0.858420 0.249485
H53   H     H_    0.795881 0.281761 0.844528 0.191940
H54   H     H_    0.771366 0.367638 0.806690 0.269077
I7    I     I_    0.413047 0.333143 0.643152 -0.340034
I8    I     I_    0.589084 0.665308 0.356902 -0.335378
I9    I     I_    0.255752 0.558211 0.869917 -0.224423
I10   I     I_    0.722054 0.371600 0.129908 -0.225389

loop_
_geom_bond_atom_site_label_1
_geom_bond_atom_site_label_2
_geom_bond_distance
_ccdc_geom_bond_type
C11   I8    2.122222 S    
C9    H2    1.083120 S    
C57   C61   1.417698 A    
C82   H52   1.110689 S    
C61   H13   1.078988 S    
C13   C15   1.409817 A    
C78   H42   1.110624 S    
C46   C50   1.427329 A    
C74   H34   1.110986 S    
N1    C17   1.434095 S    
C73   H30   1.112020 S    
C38   I10   2.137905 S    
C65   C66   1.222352 T    
C72   H27   1.110741 S    
C70   H23   1.110330 S    
C30   C31   1.422612 A    
O5    C3    1.287379 A    
C13   O13   1.385513 S    
C80   H47   1.110681 S    
O1    C1    1.291547 A    
C42   H8    1.084030 S    
C78   H43   1.110455 S    
C10   C12   1.392662 A    
C77   C78   1.520441 S    
N2    C18   1.435048 S    
C7    O12   1.345633 S    
C55   C63   1.407708 A    
C76   H39   1.110665 S    
C52   C54   1.426834 S    
C72   H28   1.110434 S    
C14   O14   1.385493 S    
O18   C77   1.412442 S    
C44   C48   1.394020 A    
C61   N3    1.364218 A    
C43   C47   1.394001 A    
C69   H20   1.116675 S    
C58   C64   1.407129 A    
O7    Cu1   1.955693 S    
C4    C28   1.484819 S    
C60   N4    1.364158 A    
C59   N3    1.364092 A    
C24   O20   1.384086 S    
C62   H14   1.079027 S    
C31   C40   1.408785 A    
C10   H1    1.083174 S    
C35   C37   1.390450 A    
C64   C66   1.470810 S    
C32   C39   1.408968 A    
C36   C38   1.390571 A    
O14   C69   1.419753 S    
C70   H24   1.109914 S    
C79   H46   1.113489 S    
O3    Cu1   1.949238 S    
C71   C72   1.520170 S    
C6    N2    1.363186 A    
O3    C2    1.286540 A    
C31   C33   1.417285 A    
C25   C38   1.416152 A    
C57   C63   1.407150 A    
C82   H53   1.110486 S    
Cu1   Cu2   2.638959 S    
C19   C34   1.424718 A    
O2    C2    1.291767 A    
C42   C52   1.388520 A    
C75   C76   1.520426 S    
C5    C21   1.407426 A    
C29   C32   1.422806 A    
C71   H26   1.111944 S    
O20   C81   1.412848 S    
C8    O11   1.345670 S    
C81   H51   1.113342 S    
C51   C53   1.426842 S    
C48   I4    2.124379 S    
C76   H37   1.110849 S    
C41   H7    1.084038 S    
C45   C49   1.427609 A    
C47   I3    2.124373 S    
C48   C49   1.424578 A    
C23   O19   1.383791 S    
O17   C75   1.412492 S    
C78   H44   1.110832 S    
C56   C64   1.407799 A    
C12   I7    2.122203 S    
C79   C80   1.520665 S    
C75   H36   1.116234 S    
O8    Cu2   1.955695 S    
C11   C27   1.417775 A    
C59   H11   1.077760 S    
C29   C35   1.408585 A    
C72   H29   1.110693 S    
C58   O18   1.385903 S    
C56   C60   1.417346 A    
C67   C68   1.518213 S    
Cu1   N3    1.982006 S    
C9    C17   1.392501 A    
C5    N1    1.362652 A    
C10   C18   1.392717 A    
C15   I5    2.132461 S    
C81   C82   1.520706 S    
C13   C27   1.419994 A    
C16   I6    2.132062 S    
O13   C67   1.419729 S    
C7    C25   1.413511 A    
O6    C4    1.287332 A    
C8    C26   1.413345 A    
C67   H16   1.116883 S    
C45   I1    2.131821 S    
C68   H18   1.110349 S    
C6    O10   1.349476 S    
C19   C25   1.421176 A    
C79   H45   1.115577 S    
C77   H41   1.111758 S    
N2    C8    1.364387 A    
C80   H49   1.110770 S    
C60   H12   1.077858 S    
C47   C50   1.424421 A    
C40   H6    1.077766 S    
O1    Cu1   1.950647 S    
O16   C73   1.413266 S    
C73   C74   1.520371 S    
C71   H25   1.116039 S    
C12   C28   1.417811 A    
C81   H50   1.115487 S    
C41   C51   1.388436 A    
C30   C36   1.408592 A    
C5    O9    1.349486 S    
C44   C51   1.388106 A    
C55   O15   1.384860 S    
O6    Cu2   1.958024 S    
C43   C52   1.388180 A    
C70   H22   1.108276 S    
C21   C23   1.410172 A    
C57   O17   1.385780 S    
C58   C62   1.417654 A    
C41   C45   1.394503 A    
O4    C1    1.286596 A    
C74   H33   1.110525 S    
C73   H31   1.116422 S    
O15   C71   1.412995 S    
C63   C65   1.470766 S    
C82   H54   1.110764 S    
C26   C37   1.416169 A    
C46   I2    2.131446 S    
C35   H3    1.076871 S    
C69   C70   1.519035 S    
C77   H40   1.116192 S    
C36   H4    1.077043 S    
C1    C50   1.487170 S    
C37   I9    2.138084 S    
C14   C16   1.410002 A    
C15   C17   1.399942 A    
C6    C22   1.407681 A    
C22   C24   1.410358 A    
C16   C18   1.400420 A    
C76   H38   1.110466 S    
C44   H10   1.084078 S    
C43   H9    1.084069 S    
C39   H5    1.077658 S    
C14   C28   1.420162 A    
C67   H15   1.110588 S    
C19   C21   1.416711 A    
C69   H21   1.110572 S    
C3    C27   1.484387 S    
C68   H19   1.108602 S    
C20   C22   1.416784 A    
C42   C46   1.394497 A    
O4    Cu2   1.949240 S    
O2    Cu2   1.950645 S    
O7    C4    1.288277 A    
C56   O16   1.385479 S    
O8    C3    1.287992 A    
C53   C54   1.197902 T    
C23   C39   1.392727 A    
C32   C34   1.417498 A    
C30   C34   1.414401 A    
O5    Cu1   1.958027 S    
C9    C11   1.393145 A    
C24   C40   1.393195 A    
C80   H48   1.110486 S    
C68   H17   1.109829 S    
C62   N4    1.364165 A    
C20   C26   1.420987 A    
C20   C33   1.424726 A    
O19   C79   1.412806 S    
C29   C33   1.414551 A    
Cu2   N4    1.982006 S    
C55   C59   1.416654 A    
C75   H35   1.111826 S    
C74   H32   1.111054 S    
N1    C7    1.364129 A    
C2    C49   1.487403 S    
