data_mof_unit_55397.cif
_audit_creation_date              2012-12-10T19:08:06-0500
_audit_creation_method            fapswitch 2.2
_symmetry_space_group_name_H-M    P1
_symmetry_Int_Tables_number       1
_space_group_crystal_system       triclinic
_cell_length_a                    9.066613
_cell_length_b                    10.821128
_cell_length_c                    9.560747
_cell_angle_alpha                 89.706696
_cell_angle_beta                  89.936582
_cell_angle_gamma                 90.44516
_cell_volume                      937.973037422

loop_
_atom_site_label
_atom_site_type_symbol
_atom_type_description
_atom_site_fract_x
_atom_site_fract_y
_atom_site_fract_z
_atom_type_partial_charge
C1    C     C_R   0.500468 0.262570 0.500382 0.793327
C2    C     C_R   0.565051 0.936914 0.386563 -0.220477
C3    C     C_R   0.507611 0.870863 0.501368 -0.065590
C4    C     C_R   0.466115 0.935780 0.620895 0.045102
C5    C     C_3   0.331948 0.927394 0.713179 -0.039780
C6    C     C_3   0.332654 0.069645 0.713449 -0.039008
C7    C     C_R   0.609443 0.559790 0.073007 0.277145
C8    C     C_R   0.401222 0.430887 0.074873 -0.075016
C9    C     C_R   0.401362 0.430726 0.926111 -0.084757
C10   C     C_R   0.608843 0.560285 0.925492 0.248235
C11   C     C_3   0.645515 0.695103 0.917634 -0.165984
C12   C     C_R   0.220739 0.500016 0.500040 0.829048
C13   C     C_3   0.646823 0.694834 0.077939 -0.272707
C14   C     C_R   0.500445 0.737554 0.499926 0.794491
C15   C     C_R   0.779264 0.500166 0.500001 0.845305
C16   C     C_1   0.065586 0.500180 0.500146 -0.171367
C17   C     C_1   0.934427 0.500229 0.500074 -0.140404
C18   C     C_R   0.466476 0.062908 0.621115 0.058122
C19   C     C_R   0.508270 0.129598 0.501987 -0.066528
C20   C     C_R   0.565105 0.065786 0.386590 -0.220874
Cu1   Cu    Cu3+1 0.499990 0.499980 0.640670 0.933526
Cu2   Cu    Cu3+1 0.500010 0.500020 0.359330 0.966727
H1    H     H_    0.605908 0.115044 0.295347 0.160567
H2    H     H_    0.553612 0.750594 0.874388 0.175780
H3    H     H_    0.555059 0.749533 0.122313 0.121676
H4    H     H_    0.606624 0.889681 0.295882 0.137611
H5    H     H_    0.358318 0.888543 0.817932 0.131296
H6    H     H_    0.360376 0.108087 0.817938 0.136144
H7    H     H_    0.319414 0.376736 0.130921 0.149978
H8    H     H_    0.319738 0.376377 0.870847 0.145246
N1    N     N_R   0.500920 0.500930 0.147930 -0.207004
N2    N     N_R   0.500930 0.500890 0.852020 -0.199776
O1    O     O_R   0.500000 0.319640 0.618810 -0.582824
O2    O     O_R   0.500020 0.319680 0.381230 -0.591424
O3    O     O_R   0.288380 0.499980 0.618770 -0.592191
O4    O     O_R   0.288400 0.500020 0.381190 -0.563192
O5    O     O_R   0.499980 0.680320 0.618770 -0.588121
O6    O     O_R   0.500000 0.680360 0.381190 -0.586784
O7    O     O_R   0.711600 0.499980 0.618810 -0.587262
O8    O     O_R   0.711620 0.500020 0.381230 -0.534555
C21   C     C_2   0.793983 0.724001 0.144778 0.417508
H9    H     H_    0.828497 0.819720 0.154717 0.046947
O9    O     O_2   0.875925 0.642423 0.185590 -0.536602
C22   C     C_3   0.199014 0.862166 0.645391 -0.792866
H10   H     H_    0.184567 0.890585 0.534516 0.238233
H11   H     H_    0.215272 0.760710 0.648809 0.234287
H12   H     H_    0.097135 0.882974 0.704962 0.231293
C23   C     C_3   0.200185 0.134607 0.645895 -0.817337
H13   H     H_    0.217080 0.236164 0.649533 0.226753
H14   H     H_    0.185459 0.107276 0.534963 0.239170
H15   H     H_    0.098226 0.112249 0.705460 0.233598
C24   C     C_3   0.792791 0.721319 0.843246 -0.782001
H16   H     H_    0.777900 0.714539 0.728454 0.246289
H17   H     H_    0.830440 0.816816 0.866893 0.209716
H18   H     H_    0.879258 0.654975 0.876093 0.251310

loop_
_geom_bond_atom_site_label_1
_geom_bond_atom_site_label_2
_ccdc_geom_bond_type
C7    C10   A    
C20   H1    S    
Cu1   O3    S    
C12   O4    A    
C21   O9    D    
C21   H9    S    
C19   C20   A    
Cu1   O7    S    
C22   H12   S    
Cu2   O8    S    
C13   C21   S    
C2    C3    A    
C4    C18   A    
C2    H4    S    
Cu1   Cu2   S    
C24   H16   S    
C14   O5    A    
C11   C13   S    
C15   O7    A    
C16   C17   T    
C3    C14   S    
C6    C23   S    
C9    H8    S    
C6    C18   S    
C8    H7    S    
C23   H14   S    
C23   H13   S    
C24   H18   S    
C24   H17   S    
C1    O2    A    
C23   H15   S    
C5    C6    S    
Cu2   O2    S    
Cu1   N2    S    
C6    H6    S    
C15   O8    A    
C1    C19   S    
Cu1   O1    S    
C10   C11   S    
C1    O1    A    
C14   O6    A    
Cu2   O6    S    
C10   N2    A    
C11   H2    S    
C7    C13   S    
Cu1   O5    S    
C22   H10   S    
C12   O3    A    
C18   C19   A    
Cu2   N1    S    
C15   C17   S    
C8    C9    A    
C11   C24   S    
C12   C16   S    
C9    N2    A    
C5    H5    S    
C8    N1    A    
C2    C20   A    
C5    C22   S    
C7    N1    A    
Cu2   O4    S    
C3    C4    A    
C22   H11   S    
C4    C5    S    
C13   H3    S    
