data_mof_unit_15040.cif
_audit_creation_date              2012-12-11T15:57:48-0500
_audit_creation_method            fapswitch 2.2
_symmetry_space_group_name_H-M    P1
_symmetry_Int_Tables_number       1
_space_group_crystal_system       triclinic
_cell_length_a                    10.709033
_cell_length_b                    10.790809
_cell_length_c                    17.018299
_cell_angle_alpha                 100.074507
_cell_angle_beta                  99.899858
_cell_angle_gamma                 61.214256
_cell_volume                      1688.23619507

loop_
_atom_site_label
_atom_site_type_symbol
_atom_type_description
_atom_site_fract_x
_atom_site_fract_y
_atom_site_fract_z
_atom_type_partial_charge
C1    C     C_R   0.355104 0.775434 0.401806 0.555114
C2    C     C_2   0.290588 0.278010 0.800535 -0.061221
C3    C     C_2   0.295830 0.184963 0.735640 0.043490
C4    C     C_R   0.369492 0.346576 0.357064 0.543687
C5    C     C_2   0.349554 0.191312 0.663802 -0.036603
C6    C     C_1   0.842359 0.331618 0.705571 -0.032398
C7    C     C_1   0.888010 0.295964 0.771859 -0.041878
C8    C     C_1   0.363086 0.753662 0.714644 -0.028016
C9    C     C_1   0.330467 0.800866 0.782049 -0.004355
C10   C     C_R   0.893874 0.307623 0.086464 0.575448
C11   C     C_R   0.319526 0.300526 0.119545 0.561719
C12   C     C_2   0.830839 0.326153 0.159096 -0.053973
C13   C     C_R   0.294032 0.893553 0.084718 0.571963
C14   C     C_R   0.940528 0.274215 0.853656 0.530761
C15   C     C_R   0.276844 0.251923 0.878246 0.570685
C16   C     C_R   0.776664 0.375477 0.404614 0.546355
C17   C     C_R   0.282589 0.876880 0.858234 0.548167
C18   C     C_R   0.383183 0.710320 0.631024 0.546545
C19   C     C_R   0.365381 0.346372 0.579922 0.542150
C20   C     C_R   0.776327 0.379918 0.629150 0.537599
C21   C     C_1   0.343433 0.337710 0.273686 -0.044846
C22   C     C_1   0.332113 0.328365 0.202808 -0.032500
C23   C     C_2   0.854821 0.211272 0.193245 0.145254
C24   C     C_2   0.853364 0.320336 0.333034 0.071985
C25   C     C_1   0.461683 0.061721 0.628148 0.269962
C26   C     C_1   0.586134 0.798016 0.341368 0.211186
C27   C     C_2   0.829149 0.225680 0.276282 0.103124
C28   C     C_2   0.331024 0.854235 0.334405 0.060420
C29   C     C_2   0.345468 0.832901 0.160581 -0.045269
C30   C     C_2   0.423581 0.876994 0.218477 0.076712
C31   C     C_2   0.443032 0.842042 0.300315 -0.007934
C32   C     C_2   0.299065 0.317916 0.637125 -0.147260
Cr1   Cr    Cr6+3 0.608020 0.610770 0.522990 1.079916
Cr2   Cr    Cr6+3 0.289390 0.599570 0.488050 1.036669
Cr3   Cr    Cr6+3 0.602610 0.289690 0.489020 1.031220
Cr4   Cr    Cr6+3 0.053780 0.052210 0.965970 1.057055
Cr5   Cr    Cr6+3 0.060060 0.372530 0.992430 1.039037
Cr6   Cr    Cr6+3 0.372600 0.061970 0.991430 1.057962
H1    H     H_    0.315789 0.363656 0.798541 0.088442
H2    H     H_    0.885472 0.486856 0.321666 0.256779
H3    H     H_    0.462598 0.045839 0.245371 0.240962
H4    H     H_    0.599969 0.895510 0.208997 0.232123
H5    H     H_    0.128927 0.011406 0.343795 0.243686
H6    H     H_    0.141065 0.864849 0.283564 0.235591
H7    H     H_    0.256531 0.023745 0.679589 0.243797
H8    H     H_    0.157610 0.118749 0.753709 0.197759
H9    H     H_    0.207879 0.409090 0.662934 0.104531
H10   H     H_    0.783544 0.432216 0.190890 0.087313
H11   H     H_    0.302267 0.766863 0.173737 0.083869
H12   H     H_    0.984773 0.998008 0.177041 0.258392
H13   H     H_    0.810065 0.048964 0.144114 0.248170
H14   H     H_    0.667488 0.191043 0.297715 0.274201
H15   H     H_    0.835897 0.080218 0.342774 0.256078
H16   H     H_    0.025612 0.354039 0.368046 0.238432
N1    N     N_3   0.893591 0.074448 0.147477 -0.556692
N2    N     N_1   0.551544 0.958640 0.599661 -0.242909
N3    N     N_3   0.776963 0.133389 0.292615 -0.647539
N4    N     N_3   0.945034 0.376373 0.320182 -0.647591
N5    N     N_3   0.488793 0.957987 0.202163 -0.562134
N6    N     N_1   0.700126 0.764496 0.373860 -0.285549
N7    N     N_3   0.186565 0.933571 0.299549 -0.647961
N8    N     N_3   0.261549 0.072890 0.737850 -0.605469
O1    O     O_R   0.749250 0.499990 0.439200 -0.490339
O2    O     O_R   0.411120 0.181190 0.091480 -0.490593
O3    O     O_R   0.364220 0.944920 0.062310 -0.459332
O4    O     O_R   0.477870 0.725740 0.440280 -0.481785
O5    O     O_R   0.158740 0.906940 0.874970 -0.512288
O6    O     O_R   0.930920 0.176940 0.885610 -0.481603
O7    O     O_R   0.910730 0.394510 0.895320 -0.503173
O8    O     O_R   0.185840 0.361180 0.920280 -0.514023
O9    O     O_R   0.399210 0.173040 0.915160 -0.482794
O10   O     O_R   0.353170 0.937370 0.898860 -0.493077
O11   O     O_3   0.162150 0.162240 0.983280 -0.302311
O12   O     O_R   0.299400 0.468710 0.556310 -0.512734
O13   O     O_R   0.260770 0.742210 0.412610 -0.511693
O14   O     O_R   0.297990 0.466320 0.394220 -0.490294
O15   O     O_R   0.487720 0.253870 0.385870 -0.529503
O16   O     O_R   0.721940 0.304340 0.422320 -0.519869
O17   O     O_R   0.750770 0.502570 0.614050 -0.502525
O18   O     O_R   0.479280 0.728140 0.602370 -0.467189
O19   O     O_R   0.262290 0.744790 0.587460 -0.508084
O20   O     O_R   0.489240 0.256450 0.560730 -0.486953
O21   O     O_R   0.723350 0.306730 0.584410 -0.493829
O22   O     O_3   0.500010 0.500010 0.500020 -0.283208
O23   O     O_R   0.170650 0.915100 0.051290 -0.507798
O24   O     O_R   0.941960 0.184500 0.049060 -0.447321
O25   O     O_R   0.922640 0.402670 0.071640 -0.510304
O26   O     O_R   0.196880 0.368740 0.083740 -0.489588

loop_
_geom_bond_atom_site_label_1
_geom_bond_atom_site_label_2
_ccdc_geom_bond_type
Cr5   O7    S    
Cr5   O26   S    
C24   C27   D    
C12   H10   S    
Cr4   O5    S    
C13   O3    A    
C12   C23   D    
H8    N8    S    
C13   C29   S    
C30   C31   S    
H7    N8    S    
C18   O19   A    
C2    H1    S    
C7    C14   S    
C8    C9    T    
C1    C28   S    
C25   N2    T    
Cr2   O19   S    
C23   C27   S    
C19   O20   A    
C16   O16   A    
Cr2   O13   S    
C5    C32   D    
C28   N7    S    
C26   C31   S    
C16   C24   S    
Cr5   O8    S    
Cr2   O22   S    
C19   C32   S    
Cr3   O20   S    
Cr1   O4    S    
Cr6   O2    S    
C28   C31   D    
Cr6   O10   S    
C10   O25   A    
C17   O5    A    
H2    N4    S    
C1    O13   A    
C24   N4    S    
H3    N5    S    
C11   O2    A    
C27   N3    S    
H15   N3    S    
Cr1   O17   S    
C29   H11   S    
Cr4   O24   S    
Cr3   O15   S    
C8    C18   S    
C29   C30   D    
Cr6   O3    S    
C11   O26   A    
Cr1   O1    S    
C30   N5    S    
C1    O4    A    
C2    C15   S    
C10   C12   S    
Cr2   O12   S    
C5    C25   S    
C9    C17   S    
C16   O1    A    
H6    N7    S    
C32   H9    S    
C15   O9    A    
H5    N7    S    
H16   N4    S    
C3    N8    S    
C15   O8    A    
Cr5   O11   S    
Cr6   O9    S    
C10   O24   A    
Cr3   O21   S    
Cr3   O16   S    
C20   O17   A    
Cr5   O25   S    
C19   O12   A    
C3    C5    S    
H4    N5    S    
Cr3   O22   S    
Cr4   O6    S    
Cr1   O18   S    
C23   N1    S    
C6    C7    T    
Cr4   O23   S    
C6    C20   S    
C11   C22   S    
H12   N1    S    
C2    C3    D    
C4    O15   A    
C4    C21   S    
C14   O7    A    
H13   N1    S    
Cr1   O22   S    
C4    O14   A    
H14   N3    S    
C17   O10   A    
C18   O18   A    
C20   O21   A    
C13   O23   A    
C14   O6    A    
C21   C22   T    
C26   N6    T    
Cr4   O11   S    
Cr2   O14   S    
Cr6   O11   S    
