data_mof_unit_39500.cif
_audit_creation_date              2013-03-05T15:42:26-0500
_audit_creation_method            fapswitch 2.2
_symmetry_space_group_name_H-M    P1
_symmetry_Int_Tables_number       1
_space_group_crystal_system       triclinic
_cell_length_a                    11.132093
_cell_length_b                    11.183859
_cell_length_c                    18.574937
_cell_angle_alpha                 89.982019
_cell_angle_beta                  88.965435
_cell_angle_gamma                 59.608534
_cell_volume                      1994.3724801

loop_
_atom_site_label
_atom_site_type_symbol
_atom_site_description
_atom_site_fract_x
_atom_site_fract_y
_atom_site_fract_z
_atom_type_partial_charge
O1    O     O_R   0.507340 0.255690 0.581430 -0.516895
O2    O     O_R   0.280360 0.527380 0.578910 -0.527483
C1    C     C_R   0.226997 0.649955 0.606672 0.555187
O3    O     O_R   0.260600 0.739610 0.584580 -0.482370
O4    O     O_R   0.532370 0.695050 0.573830 -0.481025
C2    C     C_R   0.654699 0.622659 0.600572 0.564012
O5    O     O_R   0.744850 0.503430 0.576380 -0.527146
O6    O     O_R   0.699080 0.276500 0.571950 -0.488304
C3    C     C_R   0.633614 0.218538 0.598835 0.588965
O7    O     O_R   0.498860 0.256520 0.419860 -0.518705
O8    O     O_R   0.272490 0.528150 0.429140 -0.500657
C4    C     C_R   0.222461 0.650184 0.401177 0.552524
O9    O     O_R   0.252110 0.740440 0.423010 -0.509532
O10   O     O_R   0.524510 0.695820 0.424050 -0.520262
C5    C     C_R   0.617036 0.587797 0.385622 0.539327
O11   O     O_R   0.736370 0.504260 0.414810 -0.519374
O12   O     O_R   0.691220 0.277270 0.422180 -0.515967
C6    C     C_R   0.624454 0.215510 0.400318 0.546908
Cr1   Cr    Cr6+3 0.392940 0.397950 0.502230 1.008400
Cr2   Cr    Cr6+3 0.398400 0.708500 0.501260 1.056206
Cr3   Cr    Cr6+3 0.708640 0.393530 0.496460 1.054217
O13   O     O_3   0.499990 0.499990 0.499980 -0.304333
C7    C     C_3   0.638565 0.836931 0.768942 -0.229902
H1    H     H_    0.699344 0.889749 0.762118 0.161596
H2    H     H_    0.544762 0.906753 0.801935 0.110632
C8    C     C_3   0.593797 0.812591 0.694244 0.102598
H3    H     H_    0.482159 0.844411 0.699949 0.115883
H4    H     H_    0.915493 0.692967 0.762506 0.137981
H5    H     H_    0.879109 0.651046 0.645611 0.185354
C9    C     C_3   0.869925 0.624865 0.762224 -0.259014
C10   C     C_3   0.671328 0.601530 0.807115 -0.217496
C11   C     C_3   0.734177 0.695871 0.806997 0.006203
H6    H     H_    0.744406 0.499367 0.831133 0.146782
H7    H     H_    0.579470 0.645507 0.843941 0.128412
C12   C     C_3   0.680612 0.656141 0.674629 0.058949
C13   C     C_3   0.839820 0.602345 0.683981 -0.236199
C14   C     C_3   0.643084 0.574961 0.730487 -0.148356
H8    H     H_    0.721168 0.463802 0.719502 0.169497
H9    H     H_    0.944886 0.523855 0.786293 0.162117
H10   H     H_    0.902110 0.489323 0.671885 0.133543
H11   H     H_    0.485820 0.154885 0.686676 0.201610
C15   C     C_R   0.687454 0.149435 0.820471 -0.006549
C16   C     C_R   0.789875 0.160506 0.780479 -0.022860
C17   C     C_R   0.797909 0.141958 0.704068 0.007811
C18   C     C_R   0.576887 0.148025 0.710272 -0.129820
C19   C     C_R   0.578206 0.151544 0.783365 -0.190778
C20   C     C_R   0.870700 0.208168 0.812880 -0.152511
C21   C     C_R   0.963180 0.229680 0.771304 -0.222342
C22   C     C_R   0.986738 0.190126 0.698832 -0.139051
C23   C     C_R   0.911278 0.137540 0.665640 0.228735
C24   C     C_R   0.681544 0.149240 0.668768 0.088811
H12   H     H_    0.857864 0.235588 0.869521 0.137596
H13   H     H_    0.495391 0.145676 0.810559 0.153887
H14   H     H_    0.021740 0.270150 0.796621 0.136316
H15   H     H_    0.066105 0.196656 0.668329 0.146981
H16   H     H_    0.135284 0.875371 0.684211 0.175998
C25   C     C_R   0.171348 0.679026 0.830276 -0.003981
C26   C     C_R   0.189247 0.558694 0.795051 -0.010231
C27   C     C_R   0.170752 0.560200 0.719612 -0.014241
C28   C     C_R   0.143802 0.789589 0.715029 -0.126557
C29   C     C_R   0.161924 0.790207 0.788459 -0.020257
C30   C     C_R   0.227599 0.435606 0.833363 -0.085842
C31   C     C_R   0.235737 0.321226 0.799382 -0.156571
C32   C     C_R   0.213708 0.323865 0.726110 -0.156869
C33   C     C_R   0.177059 0.442887 0.686804 -0.096288
C34   C     C_R   0.161400 0.672381 0.679057 -0.003938
H17   H     H_    0.256124 0.424920 0.889349 0.141114
H18   H     H_    0.262601 0.228618 0.829736 0.104200
H19   H     H_    0.229732 0.231430 0.699331 0.125759
H20   H     H_    0.151749 0.442056 0.631016 0.148656
H21   H     H_    0.485286 0.831125 0.316296 0.156447
C35   C     C_R   0.632463 0.663360 0.160000 -0.001938
C36   C     C_R   0.685093 0.526898 0.182257 0.051619
C37   C     C_R   0.698946 0.498216 0.256888 0.044857
C38   C     C_R   0.547349 0.744463 0.280788 -0.135802
C39   C     C_R   0.560768 0.771644 0.209244 -0.149414
C40   C     C_R   0.743582 0.417793 0.131196 -0.064347
C41   C     C_R   0.843904 0.287182 0.152000 -0.061723
C42   C     C_R   0.874331 0.262648 0.224072 -0.094553
C43   C     C_R   0.796612 0.361941 0.276731 -0.072662
C44   C     C_R   0.623036 0.609091 0.307168 -0.000331
H22   H     H_    0.722799 0.436652 0.074292 0.112225
H23   H     H_    0.519423 0.877591 0.192811 0.142247
H24   H     H_    0.901768 0.206553 0.112244 0.138254
H25   H     H_    0.954351 0.163236 0.239193 0.104195
H26   H     H_    0.822658 0.330373 0.331435 0.162635
H27   H     H_    0.882534 0.074944 0.328679 0.117495
C45   C     C_R   0.687940 0.062958 0.192027 -0.006163
C46   C     C_R   0.567016 0.094198 0.234284 -0.001762
C47   C     C_R   0.581475 0.078747 0.309607 0.063228
C48   C     C_R   0.799481 0.069669 0.302903 -0.168537
C49   C     C_R   0.809255 0.032898 0.229752 -0.153975
C50   C     C_R   0.431375 0.148714 0.207776 -0.113339
C51   C     C_R   0.321494 0.173880 0.254535 -0.137158
C52   C     C_R   0.346479 0.129493 0.325620 -0.117893
C53   C     C_R   0.480860 0.066294 0.351471 0.027429
C54   C     C_R   0.676263 0.110620 0.340796 0.003916
H28   H     H_    0.404175 0.181530 0.153303 0.202023
H29   H     H_    0.907489 0.995832 0.201223 0.158838
H30   H     H_    0.217376 0.220738 0.234448 0.193044
H31   H     H_    0.261875 0.143533 0.360966 0.114027
H32   H     H_    0.138610 0.495126 0.329145 0.164408
C55   C     C_R   0.170339 0.652476 0.178732 -0.018523
C56   C     C_R   0.215706 0.734913 0.211900 -0.012952
C57   C     C_R   0.180658 0.767723 0.284528 0.018462
C58   C     C_R   0.148559 0.569991 0.296363 -0.132070
C59   C     C_R   0.141845 0.564151 0.221644 0.190653
C60   C     C_R   0.266114 0.808305 0.171763 -0.065641
C61   C     C_R   0.245399 0.933724 0.197982 -0.114108
C62   C     C_R   0.188797 0.977516 0.266703 -0.154278
C63   C     C_R   0.158638 0.895655 0.310071 -0.089779
C64   C     C_R   0.167112 0.672291 0.328597 -0.043671
H33   H     H_    0.306005 0.777129 0.117155 0.124005
H34   H     H_    0.268403 0.998583 0.164090 0.118698
H35   H     H_    0.158049 0.079045 0.285888 0.103676
H36   H     H_    0.109847 0.937921 0.361978 0.157256
O14   O     O_R   0.089570 0.825450 0.930590 -0.526215
O15   O     O_R   0.818700 0.054260 0.929860 -0.505270
C65   C     C_R   0.702210 0.101432 0.895695 0.543510
O16   O     O_R   0.606310 0.077010 0.915520 -0.532760
O17   O     O_R   0.646730 0.806540 0.917560 -0.516366
C66   C     C_R   0.759521 0.712453 0.883366 0.550793
O18   O     O_R   0.837290 0.593240 0.915240 -0.534131
O19   O     O_R   0.065320 0.635310 0.931580 -0.521410
C67   C     C_R   0.116542 0.708243 0.904842 0.522637
O20   O     O_R   0.068470 0.828620 0.091850 -0.548836
O21   O     O_R   0.799150 0.057200 0.079350 -0.513450
C68   C     C_R   0.699248 0.045006 0.112018 0.562962
O22   O     O_R   0.585220 0.080180 0.076770 -0.525666
O23   O     O_R   0.627170 0.809480 0.067050 -0.528748
C69   C     C_R   0.691692 0.689102 0.095144 0.537786
O24   O     O_R   0.816200 0.596410 0.076500 -0.461626
O25   O     O_R   0.045770 0.638240 0.081070 -0.425650
C70   C     C_R   0.097826 0.705259 0.110762 0.541048
Cr4   Cr    Cr6+3 0.937880 0.938320 0.007620 0.977600
Cr5   Cr    Cr6+3 0.625560 0.937220 0.994510 0.986173
Cr6   Cr    Cr6+3 0.938080 0.625010 0.001190 1.062340
O26   O     O_3   0.833840 0.833520 0.001110 -0.293360
N1    N     N_R   0.954591 0.074483 0.595039 0.078628
O27   O     O_R   0.927171 0.979588 0.574718 -0.328368
O28   O     O_R   0.032894 0.101736 0.553426 -0.364697
C71   C     C_3   0.173963 0.911109 0.818039 -0.250567
C72   C     C_3   0.305437 0.866746 0.860401 -0.419220
H37   H     H_    0.331302 0.778121 0.896383 0.167814
H38   H     H_    0.391426 0.838066 0.821441 0.126688
H39   H     H_    0.293287 0.955375 0.893193 0.137749
H40   H     H_    0.178144 0.975104 0.773640 0.130904
H41   H     H_    0.081455 0.981833 0.850880 0.207250
C73   C     C_3   0.509187 0.997547 0.424980 -0.250080
C74   C     C_3   0.660824 0.882748 0.434673 -0.355596
H42   H     H_    0.701514 0.815206 0.385990 0.150372
H43   H     H_    0.727623 0.927510 0.445957 0.174432
H44   H     H_    0.667474 0.817619 0.481224 0.220370
H45   H     H_    0.476443 0.074634 0.469284 0.222076
H46   H     H_    0.442859 0.950323 0.431786 0.164365
N2    N     N_R   0.098641 0.474466 0.191130 0.078905
O29   O     O_R   0.999792 0.462698 0.222469 -0.370711
O30   O     O_R   0.164106 0.396802 0.135289 -0.374938
N3    N     N_R   0.603961 0.898091 0.637390 0.040666
O31   O     O_R   0.494303 0.978470 0.600284 -0.391249
O32   O     O_R   0.723019 0.885012 0.618315 -0.367773
C75   C     C_3   0.493959 0.597796 0.727101 -0.324085
C76   C     C_3   0.503235 0.472057 0.694315 -0.404443
H47   H     H_    0.520995 0.473705 0.636070 0.206244
H48   H     H_    0.585234 0.383126 0.721816 0.138282
H49   H     H_    0.413795 0.461229 0.704823 0.166622
H50   H     H_    0.445194 0.608572 0.781023 0.158137
H51   H     H_    0.422592 0.689729 0.695802 0.180774

loop_
_geom_bond_atom_site_label_1
_geom_bond_atom_site_label_2
_geom_bond_distance
_ccdc_geom_bond_type
C26   C30   1.414014 A    
C72   H39   1.110667 S    
C9    C11   1.531900 S    
O25   Cr6   1.975970 S    
C50   C51   1.394012 A    
H27   C48   1.076422 S    
Cr4   O26   2.026918 S    
C36   C37   1.416277 A    
C52   C53   1.387047 A    
C3    C24   1.476058 S    
C56   C60   1.412436 A    
C35   C39   1.391638 A    
C68   O22   1.311233 A    
C5    C44   1.482301 S    
O4    Cr2   1.977206 S    
C58   C64   1.397903 A    
C18   C19   1.358847 A    
C60   C61   1.388140 A    
C21   H14   1.077366 S    
H5    C13   1.107003 S    
O8    Cr1   1.962243 S    
C8    H3    1.109111 S    
C14   H8    1.114942 S    
C30   H17   1.081696 S    
N2    O29   1.300159 A    
C12   C14   1.562964 S    
C55   C70   1.465708 S    
O21   Cr4   1.943507 S    
N3    O31   1.301145 A    
C25   C67   1.471554 S    
O4    C2    1.290463 A    
C15   C65   1.478566 S    
C58   C59   1.394577 A    
C18   C24   1.391193 A    
C72   H37   1.108977 S    
C2    C12   1.496557 S    
C15   C19   1.398534 A    
C7    C8    1.552451 S    
O15   C65   1.303840 A    
C43   H26   1.071465 S    
C62   C63   1.378608 A    
C45   C49   1.415112 A    
O6    C3    1.290493 A    
C74   H44   1.109522 S    
C7    H1    1.106369 S    
C10   H6    1.112940 S    
O21   C68   1.323875 A    
C63   H36   1.081519 S    
C6    C54   1.491436 S    
C47   C54   1.406733 A    
C59   N2    1.434208 S    
C40   C41   1.376565 A    
C45   C46   1.427015 A    
C57   C63   1.404878 A    
C28   C34   1.392518 A    
C73   H45   1.106804 S    
C37   C43   1.406508 A    
Cr3   O13   2.003316 S    
C51   C52   1.392985 A    
C39   H23   1.077971 S    
C56   C57   1.394008 A    
O6    Cr3   1.955770 S    
O1    Cr1   2.081701 S    
C71   C72   1.521182 S    
C31   C32   1.384951 A    
O10   Cr2   1.942622 S    
O19   Cr6   1.946870 S    
C13   H10   1.112100 S    
C76   H49   1.076597 S    
O1    C3    1.295569 A    
C42   C43   1.391574 A    
Cr5   O26   2.006328 S    
C48   C49   1.406048 A    
C41   C42   1.379967 A    
C38   C44   1.402100 A    
C26   C27   1.418859 A    
C22   H15   1.074317 S    
O12   Cr3   1.974291 S    
H16   C28   1.080115 S    
C10   C14   1.524489 S    
C28   C29   1.382923 A    
O16   Cr5   2.076976 S    
C12   C13   1.570171 S    
C60   H33   1.083935 S    
C33   H20   1.080037 S    
C38   C39   1.385393 A    
C30   C31   1.387141 A    
C11   C66   1.481159 S    
O22   Cr5   2.083975 S    
C29   C71   1.527952 S    
O23   C69   1.278828 A    
C20   C21   1.391370 A    
C51   H30   1.076180 S    
O7    Cr1   2.069408 S    
N1    O27   1.301606 A    
Cr1   O13   2.024452 S    
N3    O32   1.300166 A    
O12   C6    1.313350 A    
C10   H7    1.105234 S    
C8    N3    1.465248 S    
C32   H19   1.076323 S    
C48   C54   1.384327 A    
C65   O16   1.276978 A    
C25   C29   1.425074 A    
C71   H41   1.100776 S    
O17   C66   1.312247 A    
C2    O5    1.271704 A    
C61   H34   1.081629 S    
C75   H51   1.102776 S    
C17   C24   1.427748 A    
C21   C22   1.395299 A    
C57   C64   1.410596 A    
Cr2   O13   2.012011 S    
O20   Cr4   2.083929 S    
C16   C17   1.429111 A    
O25   C70   1.285711 A    
C74   H43   1.108979 S    
C1    C34   1.477641 S    
C15   C16   1.406885 A    
C37   C44   1.426864 A    
C1    O3    1.299006 A    
O14   Cr4   2.061384 S    
C4    C64   1.460821 S    
C35   C69   1.460162 S    
C75   C76   1.486751 S    
C17   C23   1.417414 A    
C72   H38   1.098787 S    
C31   H18   1.082758 S    
H11   C18   1.078439 S    
O9    Cr2   2.094955 S    
C76   H48   1.086880 S    
O2    Cr1   1.948324 S    
C23   N1    1.443360 S    
C71   H40   1.107468 S    
C10   C11   1.532824 S    
O23   Cr5   1.957192 S    
C35   C36   1.395352 A    
O8    C4    1.297530 A    
O11   Cr3   2.073117 S    
C47   C53   1.415961 A    
C20   H12   1.082517 S    
Cr6   O26   2.011620 S    
O18   Cr6   2.098192 S    
C52   H31   1.082057 S    
C74   H42   1.110388 S    
C9    C13   1.546351 S    
C7    C11   1.564882 S    
N2    O30   1.301622 A    
O2    C1    1.289759 A    
C73   H46   1.109622 S    
C27   C34   1.422127 A    
O5    Cr3   2.097856 S    
C61   C62   1.387597 A    
C32   C33   1.389981 A    
H21   C38   1.076169 S    
N1    O28   1.301735 A    
C25   C26   1.415427 A    
O14   C67   1.278336 A    
C40   H22   1.083763 S    
O7    C6    1.276651 A    
C53   C73   1.524645 S    
C62   H35   1.065865 S    
C19   H13   1.074121 S    
H4    C9    1.108355 S    
C42   H25   1.056069 S    
C9    H9    1.109841 S    
H32   C58   1.084056 S    
C7    H2    1.108106 S    
O17   Cr5   1.968556 S    
C46   C50   1.410448 A    
C69   O24   1.282483 A    
C76   H47   1.098115 S    
C75   H50   1.107556 S    
O3    Cr2   2.060111 S    
C41   H24   1.081167 S    
C8    C12   1.550796 S    
C4    O9    1.278472 A    
O20   C70   1.296650 A    
C45   C68   1.494224 S    
C22   C23   1.396603 A    
C55   C56   1.402629 A    
C66   O18   1.314437 A    
C36   C40   1.409602 A    
O10   C5    1.320945 A    
O19   C67   1.302774 A    
C55   C59   1.420959 A    
O24   Cr6   2.066472 S    
C46   C47   1.411787 A    
C73   C74   1.532399 S    
C16   C20   1.400335 A    
C50   H28   1.071700 S    
C27   C33   1.415420 A    
O15   Cr4   1.963458 S    
C5    O11   1.304404 A    
C49   H29   1.081232 S    
C14   C75   1.549131 S    
