data_mof_unit_64700.cif
_audit_creation_date              2012-10-26T21:25:36-0400
_audit_creation_method            fapswitch 2.2
_symmetry_space_group_name_H-M    P1
_symmetry_Int_Tables_number       1
_space_group_crystal_system       triclinic
_cell_length_a                    16.022395
_cell_length_b                    14.756675
_cell_length_c                    14.369049
_cell_angle_alpha                 90.00015
_cell_angle_beta                  89.985782
_cell_angle_gamma                 89.999921
_cell_volume                      3397.37869587

loop_
_atom_site_label
_atom_site_type_symbol
_atom_type_description
_atom_site_fract_x
_atom_site_fract_y
_atom_site_fract_z
_atom_type_partial_charge
C1    C     C_1   0.251914 0.500000 0.500023 0.056021
C2    C     C_R   0.659145 0.500000 0.499974 0.548477
C3    C     C_R   0.499998 0.500000 0.330559 0.542478
C4    C     C_R   0.500002 0.500000 0.669441 0.542478
C5    C     C_1   0.500000 0.802740 0.500000 0.157948
C6    C     C_1   0.500000 0.197259 0.500000 0.157948
C7    C     C_1   0.499998 0.500000 0.228389 -0.010727
C8    C     C_1   0.500002 0.500000 0.771611 -0.010727
C9    C     C_1   0.499998 0.500000 0.143117 -0.010129
C10   C     C_1   0.500001 0.500000 0.856883 -0.010129
C11   C     C_1   0.500000 0.500000 0.042635 0.029535
C12   C     C_1   0.748086 0.500000 0.499977 0.056021
C13   C     C_1   0.500000 0.500000 0.957365 0.029535
C14   C     C_R   0.565726 0.952089 0.540984 -0.088930
C15   C     C_R   0.434274 0.047911 0.459016 -0.088930
C16   C     C_R   0.434273 0.952089 0.459016 -0.088930
C17   C     C_R   0.565726 0.047911 0.540984 -0.088930
C18   C     C_R   0.956226 0.582709 0.499991 0.236547
C19   C     C_R   0.043774 0.417291 0.500009 0.236547
C20   C     C_R   0.043774 0.582709 0.499996 0.236546
C21   C     C_R   0.956226 0.417291 0.500004 0.236546
C22   C     C_R   0.912666 0.500000 0.499993 -0.036670
C23   C     C_R   0.087334 0.500000 0.500007 -0.036670
C24   C     C_1   0.823009 0.500000 0.499984 0.083408
C25   C     C_1   0.176991 0.500000 0.500016 0.083407
C26   C     C_R   0.500000 0.902870 0.500000 0.001602
C27   C     C_R   0.500000 0.097130 0.500000 0.001602
C28   C     C_R   0.340855 0.500000 0.500026 0.548477
Cl1   Cl    Cl    0.098868 0.686566 0.499985 -0.455647
Cl2   Cl    Cl    0.901132 0.313434 0.500015 -0.455647
Cl3   Cl    Cl    0.901131 0.686565 0.499985 -0.455647
Cl4   Cl    Cl    0.098868 0.313435 0.500015 -0.455647
Cu1   Cu    Cu3+1 0.500000 0.589220 0.500000 1.042827
Cu2   Cu    Cu3+1 0.500000 0.410780 0.500000 1.042827
H1    H     H_    0.617271 0.083626 0.573124 0.143842
H2    H     H_    0.382729 0.916374 0.426876 0.143842
H3    H     H_    0.382730 0.083626 0.426875 0.143841
H4    H     H_    0.617270 0.916374 0.573125 0.143841
N1    N     N_1   0.500000 0.276710 0.500000 -0.171290
N2    N     N_1   0.500000 0.723290 0.500000 -0.171290
O1    O     O_R   0.380310 0.575320 0.500020 -0.477427
O2    O     O_R   0.619690 0.424680 0.499980 -0.477426
O3    O     O_R   0.619690 0.575320 0.499980 -0.477426
O4    O     O_R   0.380310 0.424680 0.500020 -0.477426
O5    O     O_R   0.500000 0.575360 0.376050 -0.475124
O6    O     O_R   0.500000 0.424640 0.623950 -0.475124
O7    O     O_R   0.500000 0.575360 0.623950 -0.475125
O8    O     O_R   0.500000 0.424640 0.376050 -0.475125

loop_
_geom_bond_atom_site_label_1
_geom_bond_atom_site_label_2
_ccdc_geom_bond_type
C1    C28   S    
C19   C23   A    
C10   C13   S    
Cu2   O6    S    
C14   H4    S    
Cu1   O5    S    
C21   Cl2   S    
C3    O8    A    
C15   C27   A    
C6    C27   S    
Cu2   O2    S    
C20   C23   A    
C2    O3    A    
C4    C8    S    
C2    C12   S    
Cu1   Cu2   S    
Cu1   O1    S    
C4    O6    A    
C21   C22   A    
C14   C26   A    
C1    C25   T    
C9    C11   S    
C14   C17   A    
C2    O2    A    
C19   Cl4   S    
C19   C21   A    
C28   O4    A    
C3    C7    S    
C20   Cl1   S    
C23   C25   S    
C16   C26   A    
Cu1   O7    S    
C22   C24   S    
Cu1   N2    S    
Cu2   O8    S    
C15   C16   A    
C5    C26   S    
C17   C27   A    
C28   O1    A    
C11   C13   T    
Cu2   O4    S    
C18   C20   A    
C8    C10   T    
C5    N2    T    
C7    C9    T    
C12   C24   T    
C6    N1    T    
C15   H3    S    
C18   Cl3   S    
C17   H1    S    
C18   C22   A    
C3    O5    A    
C16   H2    S    
Cu2   N1    S    
C4    O7    A    
Cu1   O3    S    
