data_mof_unit_39412.cif
_audit_creation_date              2012-12-11T16:28:03-0500
_audit_creation_method            fapswitch 2.2
_symmetry_space_group_name_H-M    P1
_symmetry_Int_Tables_number       1
_space_group_crystal_system       triclinic
_cell_length_a                    30.48433
_cell_length_b                    24.200817
_cell_length_c                    18.314023
_cell_angle_alpha                 90.648372
_cell_angle_beta                  122.925792
_cell_angle_gamma                 89.993241
_cell_volume                      11339.8570098

loop_
_atom_site_label
_atom_site_type_symbol
_atom_type_description
_atom_site_fract_x
_atom_site_fract_y
_atom_site_fract_z
_atom_type_partial_charge
C1    C     C_R   0.538495 0.595237 0.724190 -0.123388
C2    C     C_R   0.658924 0.338034 0.404613 0.199691
C3    C     C_R   0.776942 0.696446 0.955116 0.430045
C4    C     C_R   0.282172 0.802049 0.961229 0.443557
C5    C     C_R   0.718410 0.188601 0.032030 0.411823
C6    C     C_R   0.729575 0.799672 0.054638 0.420287
C7    C     C_R   0.278107 0.193143 0.956270 0.419337
C8    C     C_R   0.821365 0.265219 0.964936 0.291867
C9    C     C_R   0.181608 0.732270 0.035877 0.328273
C10   C     C_R   0.175565 0.269063 0.024330 0.297377
C11   C     C_R   0.825025 0.721830 0.976001 0.306208
C12   C     C_R   0.331040 0.776292 0.988094 0.290585
C13   C     C_R   0.661743 0.670952 0.414740 0.208216
C14   C     C_R   0.668939 0.213750 0.004451 0.301279
C15   C     C_R   0.678824 0.777426 0.026718 0.288834
C16   C     C_R   0.318010 0.227394 0.960369 0.345202
C17   C     C_R   0.589872 0.586015 0.424112 -0.159216
C18   C     C_R   0.407307 0.422202 0.576635 -0.166265
C19   C     C_R   0.411041 0.586529 0.577893 -0.155288
C20   C     C_R   0.592386 0.422948 0.421592 -0.161338
C21   C     C_R   0.091739 0.084652 0.425433 -0.158263
C22   C     C_R   0.907830 0.922244 0.577722 -0.162663
C23   C     C_R   0.908803 0.085410 0.575821 -0.158511
C24   C     C_R   0.337297 0.342305 0.591162 0.216078
C25   C     C_R   0.092653 0.921025 0.423284 -0.168171
C26   C     C_R   0.385586 0.589806 0.269682 -0.142859
C27   C     C_R   0.609863 0.400228 0.716300 -0.129081
C28   C     C_R   0.611449 0.597195 0.720984 -0.119675
C29   C     C_R   0.388060 0.403382 0.278016 -0.128384
C30   C     C_R   0.890349 0.098725 0.282755 -0.133498
C31   C     C_R   0.115881 0.912889 0.732388 -0.148500
C32   C     C_R   0.116241 0.084862 0.736733 -0.138400
C33   C     C_R   0.894170 0.894931 0.295818 -0.103891
C34   C     C_R   0.587448 0.620554 0.759326 0.064879
C35   C     C_R   0.845667 0.185417 0.578754 0.205621
C36   C     C_R   0.412279 0.379576 0.240355 0.063007
C37   C     C_R   0.407912 0.608546 0.225970 0.065793
C38   C     C_R   0.583717 0.374068 0.749003 0.058284
C39   C     C_R   0.095435 0.098877 0.784945 0.070746
C40   C     C_R   0.920586 0.867850 0.264519 0.061106
C41   C     C_R   0.914079 0.121064 0.243670 0.067510
C42   C     C_R   0.094309 0.893349 0.776013 0.066520
C43   C     C_R   0.634166 0.609161 0.494226 0.089688
C44   C     C_R   0.360120 0.404235 0.508503 0.086889
C45   C     C_R   0.366263 0.608108 0.509201 0.085166
C46   C     C_R   0.158540 0.831988 0.413077 0.215812
C47   C     C_R   0.639624 0.405354 0.487810 0.082129
C48   C     C_R   0.137700 0.105443 0.496534 0.082372
C49   C     C_R   0.861236 0.903562 0.510306 0.088682
C50   C     C_R   0.863309 0.106084 0.505696 0.084240
C51   C     C_R   0.139008 0.902210 0.491399 0.086698
C52   C     C_R   0.261504 0.711703 0.422223 0.222412
C53   C     C_R   0.765802 0.341116 0.546132 0.236686
C54   C     C_R   0.741494 0.712744 0.581261 0.228279
C55   C     C_R   0.241183 0.320922 0.431855 0.245300
C56   C     C_R   0.760426 0.213139 0.408606 0.238852
C57   C     C_R   0.169692 0.165865 0.420733 0.199154
C58   C     C_R   0.255583 0.816287 0.573994 0.254840
C59   C     C_R   0.238573 0.216277 0.587301 0.211305
C60   C     C_R   0.746377 0.815318 0.429443 0.251868
C61   C     C_R   0.297258 0.673098 0.432529 -0.267679
C62   C     C_R   0.729452 0.376929 0.544846 -0.293712
C63   C     C_R   0.706240 0.673510 0.572953 -0.270002
C64   C     C_R   0.273723 0.363825 0.439455 -0.284923
C65   C     C_R   0.785687 0.162475 0.425168 -0.291073
C66   C     C_R   0.224566 0.861663 0.561533 -0.284196
C67   C     C_R   0.211294 0.168430 0.578666 -0.263828
C68   C     C_R   0.845812 0.829310 0.586551 0.218026
C69   C     C_R   0.776734 0.861477 0.443345 -0.278740
C70   C     C_R   0.332785 0.649449 0.512488 0.004463
C71   C     C_R   0.676837 0.375890 0.475767 0.010812
C72   C     C_R   0.667600 0.651239 0.492194 0.004890
C73   C     C_R   0.322014 0.373402 0.516105 0.003445
C74   C     C_R   0.830615 0.150302 0.506016 0.015716
C75   C     C_R   0.175845 0.868440 0.484733 -0.001007
C76   C     C_R   0.173771 0.145597 0.496905 0.008541
C77   C     C_R   0.826248 0.867726 0.518131 -0.004219
C78   C     C_3   0.785370 0.366529 0.874372 0.373490
C79   C     C_R   0.295364 0.701024 0.576953 -0.191953
C80   C     C_3   0.755252 0.413698 0.815320 -1.062185
C81   C     C_3   0.219585 0.628628 0.123377 0.347187
C82   C     C_3   0.244388 0.573122 0.161828 -1.010193
C83   C     C_3   0.210449 0.373899 0.110587 0.372001
C84   C     C_3   0.237715 0.426207 0.161079 -1.035043
C85   C     C_3   0.788731 0.620068 0.884963 0.324990
C86   C     C_3   0.762851 0.566268 0.837424 -0.990916
C87   C     C_3   0.296423 0.873035 0.888356 0.402838
C88   C     C_3   0.261171 0.912616 0.815538 -1.086601
C89   C     C_3   0.716165 0.130518 0.131739 0.380888
C90   C     C_R   0.690942 0.293935 0.420443 -0.200483
C91   C     C_3   0.755657 0.099802 0.211764 -1.138069
C92   C     C_3   0.717341 0.882176 0.114988 0.373144
C93   C     C_3   0.746638 0.933461 0.166882 -1.017712
C94   C     C_3   0.283468 0.120810 0.874589 0.351514
C95   C     C_3   0.263147 0.062176 0.842455 -1.025757
C96   C     C_3   0.222789 0.727199 0.326271 -0.350650
C97   C     C_3   0.235488 0.781510 0.300760 -0.828126
C98   C     C_3   0.822877 0.350961 0.622182 -0.384306
C99   C     C_3   0.861305 0.358843 0.594320 -0.853207
C100  C     C_3   0.782892 0.728649 0.676463 -0.363698
C101  C     C_R   0.702184 0.702643 0.424436 -0.190133
C102  C     C_3   0.773407 0.783498 0.706826 -0.821291
C103  C     C_3   0.190691 0.314913 0.341052 -0.379138
C104  C     C_3   0.141033 0.326854 0.339049 -0.846501
C105  C     C_3   0.718731 0.223591 0.310828 -0.355699
C106  C     C_3   0.733667 0.267674 0.267762 -0.860567
C107  C     C_3   0.305666 0.813162 0.666204 -0.383250
C108  C     C_3   0.354842 0.831331 0.670628 -0.864974
C109  C     C_3   0.271884 0.239597 0.681502 -0.353564
C110  C     C_3   0.252926 0.294002 0.696695 -0.836065
C111  C     C_3   0.696363 0.812362 0.337804 -0.370202
C112  C     C_R   0.461574 0.404380 0.276261 -0.130763
C113  C     C_R   0.310899 0.293727 0.577998 -0.197867
C114  C     C_3   0.648618 0.834400 0.334528 -0.863582
C115  C     C_3   0.379714 0.652858 0.681169 -0.352650
C116  C     C_3   0.385787 0.685685 0.758534 -0.956508
C117  C     C_3   0.607040 0.342755 0.315572 -0.360500
C118  C     C_3   0.596798 0.301981 0.241355 -0.901089
C119  C     C_3   0.614586 0.658462 0.323320 -0.371617
C120  C     C_3   0.603917 0.695875 0.248568 -0.938014
C121  C     C_3   0.382943 0.357567 0.682387 -0.379441
C122  C     C_3   0.385918 0.329724 0.759179 -0.958200
C123  C     C_3   0.896176 0.178837 0.668219 -0.363659
C124  C     C_R   0.811341 0.227372 0.566377 -0.207682
C125  C     C_3   0.912271 0.225644 0.735931 -0.941260
C126  C     C_3   0.111329 0.843221 0.321813 -0.373750
C127  C     C_3   0.104561 0.809597 0.245161 -0.945044
C128  C     C_3   0.127461 0.147824 0.328020 -0.348197
C129  C     C_3   0.124335 0.176513 0.250906 -0.967956
C130  C     C_3   0.895100 0.839683 0.676512 -0.372708
C131  C     C_3   0.905854 0.803106 0.751784 -0.948826
C132  C     C_3   0.887599 0.280530 0.934929 0.275350
C133  C     C_3   0.891454 0.324528 0.879456 -1.022984
C134  C     C_3   0.111749 0.717420 0.058712 0.260843
C135  C     C_R   0.184597 0.782844 0.430372 -0.194562
C136  C     C_3   0.098072 0.672113 0.100344 -1.004129
C137  C     C_3   0.107797 0.288656 0.049000 0.247891
C138  C     C_3   0.097649 0.338274 0.089146 -1.005830
C139  C     C_3   0.891944 0.707777 0.947725 0.250008
C140  C     C_3   0.899760 0.671030 0.887833 -1.002276
C141  C     C_3   0.404892 0.795717 0.979395 0.266482
C142  C     C_3   0.422215 0.845811 0.951103 -0.985075
C143  C     C_3   0.587382 0.177250 0.971682 0.297052
C144  C     C_3   0.575307 0.123021 0.999667 -0.964612
C145  C     C_3   0.609410 0.796114 0.047415 0.263789
C146  C     C_R   0.206470 0.204615 0.433227 -0.193101
C147  C     C_3   0.597674 0.844093 0.088194 -0.996947
C148  C     C_3   0.385106 0.219065 0.929682 0.254989
C149  C     C_3   0.399107 0.176287 0.884388 -1.018416
C150  C     C_R   0.819104 0.780076 0.567586 -0.197156
C151  C     C_R   0.263466 0.729067 0.499394 0.024641
C152  C     C_R   0.745027 0.296715 0.481967 0.038859
C153  C     C_R   0.737500 0.729419 0.502665 0.025445
C154  C     C_R   0.260846 0.285054 0.505565 0.022073
C155  C     C_R   0.774215 0.247234 0.483720 0.026598
C156  C     C_R   0.458790 0.587978 0.267499 -0.121902
C157  C     C_R   0.234933 0.776466 0.503309 0.013877
C158  C     C_R   0.234102 0.236015 0.509571 0.030266
C159  C     C_R   0.767495 0.774951 0.497604 0.010286
C160  C     C_R   0.381050 0.641137 0.147196 0.084056
C161  C     C_R   0.608152 0.334836 0.819561 0.098458
C162  C     C_R   0.613362 0.656851 0.834847 0.080476
C163  C     C_R   0.385932 0.343267 0.164983 0.090175
C164  C     C_R   0.887101 0.154162 0.165697 0.080802
C165  C     C_R   0.122269 0.859664 0.853128 0.089111
C166  C     C_R   0.122682 0.128774 0.866974 0.082028
C167  C     C_R   0.535532 0.400463 0.716017 -0.122197
C168  C     C_R   0.897821 0.824675 0.198933 0.088553
C169  C     C_R   0.384973 0.692362 0.040641 -0.127426
C170  C     C_R   0.610024 0.290530 0.936724 -0.146572
C171  C     C_R   0.615329 0.701195 0.952567 -0.116890
C172  C     C_R   0.382331 0.303195 0.042980 -0.153900
C173  C     C_R   0.886080 0.193073 0.045530 -0.096824
C174  C     C_R   0.119602 0.809135 0.960768 -0.140125
C175  C     C_R   0.116214 0.189162 0.962401 -0.106597
C176  C     C_R   0.902642 0.774078 0.092256 -0.154682
C177  C     C_R   0.405937 0.653351 0.104551 -0.161951
C178  C     C_R   0.043456 0.081722 0.739093 -0.125054
C179  C     C_R   0.585903 0.325462 0.867704 -0.201794
C180  C     C_R   0.589982 0.668508 0.879291 -0.167677
C181  C     C_R   0.407523 0.335528 0.116425 -0.177995
C182  C     C_R   0.912228 0.165350 0.122892 -0.170993
C183  C     C_R   0.098499 0.847638 0.896835 -0.179893
C184  C     C_R   0.094272 0.149704 0.898656 -0.168955
C185  C     C_R   0.926640 0.804130 0.167986 -0.180337
C186  C     C_R   0.331576 0.663033 0.117486 -0.122863
C187  C     C_R   0.656499 0.311431 0.844875 -0.117691
C188  C     C_R   0.663970 0.676465 0.866306 -0.103397
C189  C     C_R   0.965984 0.897896 0.289286 -0.124338
C190  C     C_R   0.337421 0.319445 0.137902 -0.108583
C191  C     C_R   0.834288 0.169499 0.128381 -0.121420
C192  C     C_R   0.170247 0.835353 0.878454 -0.117598
C193  C     C_R   0.175399 0.143245 0.906744 -0.171817
C194  C     C_R   0.845124 0.810245 0.158729 -0.125601
C195  C     C_R   0.308371 0.701577 0.050231 0.110678
C196  C     C_R   0.683051 0.277908 0.917814 0.099615
C197  C     C_R   0.691667 0.707191 0.943728 0.103419
C198  C     C_R   0.310692 0.286519 0.062511 0.115129
C199  C     C_R   0.806775 0.198152 0.048935 0.103439
C200  C     C_R   0.962365 0.095056 0.277382 -0.118875
C201  C     C_R   0.194584 0.797696 0.947067 0.100943
C202  C     C_R   0.196594 0.189641 0.962547 0.101877
C203  C     C_R   0.818922 0.780222 0.080767 0.106719
C204  C     C_R   0.340101 0.722430 0.021507 -0.050373
C205  C     C_R   0.654691 0.261303 0.955007 -0.039111
C206  C     C_R   0.663678 0.726913 0.979571 -0.041896
C207  C     C_R   0.336385 0.272974 0.019333 -0.051783
C208  C     C_R   0.836329 0.216640 0.014480 -0.044242
C209  C     C_R   0.165720 0.780085 0.983673 -0.044843
C210  C     C_R   0.164115 0.215382 0.987179 -0.040405
C211  C     C_R   0.042850 0.912987 0.734626 -0.129864
C212  C     C_R   0.848641 0.759726 0.047239 -0.029663
C213  C     C_R   0.258789 0.725250 0.022602 -0.171154
C214  C     C_R   0.735159 0.259251 0.952378 -0.174682
C215  C     C_R   0.744510 0.723698 0.978915 -0.164564
C216  C     C_R   0.260116 0.264824 0.033215 -0.185695
C217  C     C_R   0.753472 0.214362 0.011041 -0.173291
C218  C     C_R   0.244734 0.774972 0.975194 -0.183215
C219  C     C_R   0.245321 0.214650 0.984627 -0.159982
C220  C     C_R   0.764478 0.767962 0.039251 -0.172040
C221  C     C_R   0.639878 0.587351 0.569202 -0.121838
C222  C     C_R   0.335362 0.667434 0.588923 0.202648
C223  C     C_R   0.357995 0.416798 0.432173 -0.118078
C224  C     C_R   0.360188 0.586122 0.433029 -0.118648
C225  C     C_R   0.642938 0.419074 0.565138 -0.130498
C226  C     C_R   0.140774 0.085834 0.570681 -0.105673
C227  C     C_R   0.858113 0.917027 0.433522 -0.130062
C228  C     C_R   0.859161 0.084485 0.431282 -0.138687
C229  C     C_R   0.141203 0.915906 0.567593 -0.122924
C230  C     C_R   0.771242 0.288573 0.937429 0.424750
C231  C     C_R   0.223681 0.700846 0.043175 0.417592
C232  C     C_R   0.224593 0.294004 0.048638 0.426652
H1    H     H_    0.511456 0.599592 0.744514 0.085121
H2    H     H_    0.314317 0.655335 0.154118 0.144188
H3    H     H_    0.783767 0.131754 0.258507 0.240498
H4    H     H_    0.736174 0.080849 0.242055 0.236119
H5    H     H_    0.774961 0.066545 0.196473 0.303967
H6    H     H_    0.711959 0.854945 0.158394 0.084725
H7    H     H_    0.679723 0.897719 0.059507 0.186121
H8    H     H_    0.758181 0.959690 0.130505 0.291545
H9    H     H_    0.721971 0.958061 0.182769 0.229070
H10   H     H_    0.782030 0.921455 0.227983 0.241647
H11   H     H_    0.325270 0.120349 0.897517 0.168219
H12   H     H_    0.261203 0.149307 0.818819 0.100309
H13   H     H_    0.321968 0.323672 0.178323 0.135787
H14   H     H_    0.229533 0.062919 0.773803 0.217649
H15   H     H_    0.293734 0.036852 0.841874 0.244492
H16   H     H_    0.250961 0.041839 0.883233 0.295637
H17   H     H_    0.234628 0.816095 0.339983 0.261837
H18   H     H_    0.274422 0.779165 0.309194 0.250375
H19   H     H_    0.206372 0.788888 0.230467 0.268866
H20   H     H_    0.223540 0.695496 0.282444 0.186408
H21   H     H_    0.181367 0.723153 0.302904 0.174240
H22   H     H_    0.862636 0.321612 0.559684 0.268410
H23   H     H_    0.850355 0.395714 0.552300 0.257844
H24   H     H_    0.680053 0.671412 0.826872 0.141911
H25   H     H_    0.901126 0.366150 0.653302 0.245054
H26   H     H_    0.826084 0.389230 0.659379 0.189399
H27   H     H_    0.837318 0.319553 0.673302 0.178621
H28   H     H_    0.774569 0.818007 0.668833 0.259760
H29   H     H_    0.735472 0.782201 0.701940 0.253735
H30   H     H_    0.804376 0.790194 0.776823 0.267012
H31   H     H_    0.783808 0.697327 0.721272 0.195652
H32   H     H_    0.823172 0.725109 0.694025 0.175212
H33   H     H_    0.138195 0.300595 0.385746 0.268587
H34   H     H_    0.140217 0.371462 0.354278 0.255024
H35   H     H_    0.185912 0.841229 0.838632 0.152759
H36   H     H_    0.106489 0.318605 0.272287 0.242425
H37   H     H_    0.191061 0.345395 0.296223 0.172064
H38   H     H_    0.187738 0.276309 0.305869 0.173430
H39   H     H_    0.737558 0.309242 0.298093 0.264972
H40   H     H_    0.770312 0.255649 0.271059 0.250323
H41   H     H_    0.701971 0.270156 0.197146 0.252215
H42   H     H_    0.712199 0.184404 0.273625 0.174262
H43   H     H_    0.677945 0.230422 0.291870 0.181742
H44   H     H_    0.362532 0.803775 0.630157 0.272737
H45   H     H_    0.350662 0.874723 0.648654 0.259086
H46   H     H_    0.816478 0.164877 0.166061 0.158115
H47   H     H_    0.388800 0.829998 0.739416 0.240855
H48   H     H_    0.302724 0.841277 0.712041 0.177472
H49   H     H_    0.311387 0.774029 0.700012 0.176711
H50   H     H_    0.251905 0.326576 0.653920 0.262135
H51   H     H_    0.213750 0.288171 0.686265 0.255190
H52   H     H_    0.279932 0.307197 0.765975 0.256733
H53   H     H_    0.271684 0.210630 0.727978 0.209753
H54   H     H_    0.313988 0.241056 0.709075 0.183656
H55   H     H_    0.641115 0.810494 0.377931 0.272158
H56   H     H_    0.654557 0.878838 0.353575 0.256923
H57   H     H_    0.824877 0.821165 0.190054 0.142313
H58   H     H_    0.613977 0.831250 0.266696 0.245328
H59   H     H_    0.701431 0.838679 0.293412 0.164490
H60   H     H_    0.688376 0.773197 0.301959 0.174818
H61   H     H_    0.394420 0.729859 0.755935 0.277504
H62   H     H_    0.351419 0.681010 0.763662 0.254212
H63   H     H_    0.420097 0.669489 0.819658 0.246479
H64   H     H_    0.375597 0.608579 0.691485 0.185556
H65   H     H_    0.417126 0.661645 0.686281 0.194776
H66   H     H_    0.629982 0.304486 0.230167 0.270164
H67   H     H_    0.590342 0.258315 0.255694 0.248560
H68   H     H_    0.196581 0.120100 0.886571 0.185755
H69   H     H_    0.560656 0.314835 0.179816 0.243675
H70   H     H_    0.573176 0.338116 0.323766 0.191717
H71   H     H_    0.608263 0.384437 0.289831 0.183968
H72   H     H_    0.594708 0.738432 0.258979 0.279963
H73   H     H_    0.636191 0.695284 0.237501 0.251004
H74   H     H_    0.568407 0.679997 0.187910 0.243128
H75   H     H_    0.618561 0.615788 0.304999 0.185712
H76   H     H_    0.578737 0.663886 0.324683 0.201886
H77   H     H_    0.349616 0.337013 0.757583 0.285026
H78   H     H_    0.394434 0.285102 0.761082 0.259149
H79   H     H_    0.549471 0.344032 0.851535 0.118187
H80   H     H_    0.418446 0.348911 0.820260 0.249076
H81   H     H_    0.420264 0.348701 0.687649 0.193568
H82   H     H_    0.378439 0.401965 0.692740 0.194961
H83   H     H_    0.916634 0.265604 0.711140 0.281420
H84   H     H_    0.884363 0.229383 0.756804 0.254069
H85   H     H_    0.951109 0.215831 0.794894 0.248951
H86   H     H_    0.892544 0.140719 0.697698 0.181154
H87   H     H_    0.929422 0.176145 0.659242 0.206107
H88   H     H_    0.137287 0.818394 0.236864 0.279346
H89   H     H_    0.100088 0.764798 0.251285 0.259292
H90   H     H_    0.443254 0.635572 0.123534 0.107361
H91   H     H_    0.068403 0.823331 0.184692 0.244812
H92   H     H_    0.074938 0.837845 0.321147 0.191452
H93   H     H_    0.116357 0.886065 0.306300 0.192338
H94   H     H_    0.114341 0.220779 0.248842 0.275350
H95   H     H_    0.160768 0.171321 0.251854 0.257963
H96   H     H_    0.091983 0.157403 0.189273 0.249504
H97   H     H_    0.132597 0.103059 0.321285 0.187644
H98   H     H_    0.088910 0.157137 0.318410 0.194327
H99   H     H_    0.875080 0.808505 0.765866 0.280023
H100  H     H_    0.910573 0.759220 0.740192 0.259549
H101  H     H_    0.444598 0.353941 0.134907 0.113005
H102  H     H_    0.943051 0.817159 0.811020 0.248401
H103  H     H_    0.929997 0.837381 0.672242 0.201067
H104  H     H_    0.890598 0.881233 0.697664 0.190291
H105  H     H_    0.869539 0.242583 0.893696 0.067812
H106  H     H_    0.928983 0.272573 0.988779 0.131012
H107  H     H_    0.898022 0.366312 0.909577 0.276165
H108  H     H_    0.925013 0.314774 0.873159 0.244325
H109  H     H_    0.855418 0.324541 0.813164 0.230030
H110  H     H_    0.087996 0.710224 0.986605 0.098970
H111  H     H_    0.100634 0.755591 0.079568 0.131225
H112  H     H_    0.489226 0.399048 0.257369 0.087612
H113  H     H_    0.550844 0.653478 0.857589 0.108141
H114  H     H_    0.125055 0.673795 0.172170 0.263277
H115  H     H_    0.057624 0.679088 0.084336 0.226268
H116  H     H_    0.098826 0.630702 0.074593 0.248973
H117  H     H_    0.128139 0.256332 0.099412 0.079636
H118  H     H_    0.067761 0.274890 0.996881 0.135737
H119  H     H_    0.088109 0.375146 0.047969 0.277901
H120  H     H_    0.063816 0.328967 0.094788 0.236227
H121  H     H_    0.132055 0.347256 0.154622 0.239538
H122  H     H_    0.911788 0.686198 0.011315 0.092371
H123  H     H_    0.910371 0.747898 0.949437 0.134559
H124  H     H_    0.060893 0.864762 0.877588 0.111194
H125  H     H_    0.881921 0.689695 0.823050 0.263865
H126  H     H_    0.942528 0.667362 0.916456 0.230643
H127  H     H_    0.883492 0.629109 0.881616 0.248085
H128  H     H_    0.384650 0.766499 0.922627 0.070775
H129  H     H_    0.441706 0.777642 0.034517 0.130198
H130  H     H_    0.428848 0.882456 0.993299 0.280078
H131  H     H_    0.459766 0.836282 0.956600 0.231744
H132  H     H_    0.392139 0.855698 0.882089 0.235127
H133  H     H_    0.580159 0.172556 0.905310 0.089728
H134  H     H_    0.558752 0.207119 0.969348 0.106375
H135  H     H_    0.952702 0.153805 0.148688 0.107990
H136  H     H_    0.591255 0.124360 0.070896 0.261108
H137  H     H_    0.532008 0.116720 0.964423 0.227937
H138  H     H_    0.592172 0.087363 0.984251 0.248382
H139  H     H_    0.627997 0.762680 0.096226 0.074817
H140  H     H_    0.570331 0.783135 0.991029 0.133360
H141  H     H_    0.587683 0.881532 0.047967 0.278146
H142  H     H_    0.563687 0.833073 0.092542 0.231891
H143  H     H_    0.631843 0.853192 0.154101 0.246095
H144  H     H_    0.410855 0.211868 0.001001 0.106748
H145  H     H_    0.393363 0.258759 0.909258 0.134127
H146  H     H_    0.968391 0.811587 0.201848 0.116453
H147  H     H_    0.371230 0.177694 0.812975 0.262284
H148  H     H_    0.438973 0.185942 0.899358 0.226935
H149  H     H_    0.400118 0.134247 0.908250 0.252883
H150  H     H_    0.053972 0.137906 0.871929 0.106996
H151  H     H_    0.405811 0.697705 0.009231 0.084358
H152  H     H_    0.591876 0.285592 0.972981 0.139285
H153  H     H_    0.595764 0.703780 0.986576 0.081727
H154  H     H_    0.402888 0.302715 0.011605 0.099601
H155  H     H_    0.906820 0.194504 0.012795 0.080420
H156  H     H_    0.485911 0.590232 0.247020 0.084881
H157  H     H_    0.094056 0.801944 0.982460 0.094186
H158  H     H_    0.092485 0.198294 0.986852 0.085414
H159  H     H_    0.930652 0.761780 0.077986 0.092266
H160  H     H_    0.674308 0.586386 0.633575 0.081670
H161  H     H_    0.325453 0.411927 0.366468 0.081717
H162  H     H_    0.325490 0.584421 0.369352 0.082415
H163  H     H_    0.678129 0.419925 0.628231 0.097285
H164  H     H_    0.173369 0.086144 0.636912 0.078828
H165  H     H_    0.824761 0.912160 0.368617 0.085082
H166  H     H_    0.825194 0.079901 0.367879 0.120901
H167  H     H_    0.506389 0.392439 0.731173 0.086311
H168  H     H_    0.173070 0.910890 0.633019 0.097325
H169  H     H_    0.577934 0.580321 0.357872 0.086165
H170  H     H_    0.419319 0.432839 0.641686 0.089582
H171  H     H_    0.423957 0.582386 0.644540 0.083651
H172  H     H_    0.581010 0.433470 0.356714 0.089355
H173  H     H_    0.079534 0.079751 0.359043 0.085124
H174  H     H_    0.919983 0.931559 0.643510 0.088540
H175  H     H_    0.920527 0.082894 0.642497 0.086634
H176  H     H_    0.081298 0.929893 0.358203 0.090245
H177  H     H_    0.346215 0.593825 0.252910 0.108454
H178  H     H_    0.017119 0.080505 0.761283 0.084231
H179  H     H_    0.649097 0.393879 0.733558 0.119244
H180  H     H_    0.650227 0.603468 0.735971 0.102448
H181  H     H_    0.348606 0.398217 0.260621 0.111069
H182  H     H_    0.853126 0.106831 0.271336 0.118524
H183  H     H_    0.156229 0.912952 0.752868 0.116686
H184  H     H_    0.155730 0.089039 0.754023 0.101252
H185  H     H_    0.858646 0.883160 0.290275 0.091527
H186  H     H_    0.298225 0.663145 0.375846 0.128206
H187  H     H_    0.741965 0.405373 0.599218 0.130948
H188  H     H_    0.708549 0.661647 0.631627 0.128513
H189  H     H_    0.993893 0.890843 0.271396 0.089431
H190  H     H_    0.262341 0.388675 0.383322 0.129752
H191  H     H_    0.771384 0.133184 0.372318 0.133210
H192  H     H_    0.237431 0.891051 0.614409 0.138108
H193  H     H_    0.217511 0.151364 0.637645 0.119480
H194  H     H_    0.762641 0.891902 0.392546 0.135357
H195  H     H_    0.811868 0.242615 0.621823 0.144227
H196  H     H_    0.164034 0.748148 0.388973 0.137806
H197  H     H_    0.214551 0.209678 0.383859 0.143400
H198  H     H_    0.839462 0.744628 0.605338 0.137048
H199  H     H_    0.287887 0.704116 0.627525 0.137811
H200  H     H_    0.989338 0.097938 0.256753 0.085208
H201  H     H_    0.671991 0.254605 0.393151 0.133897
H202  H     H_    0.707484 0.704135 0.371529 0.133727
H203  H     H_    0.331663 0.260742 0.621716 0.139231
H204  H     H_    0.789681 0.335248 0.833333 0.103404
H205  H     H_    0.823102 0.385199 0.927318 0.185568
H206  H     H_    0.738083 0.439912 0.844047 0.297292
H207  H     H_    0.781221 0.439351 0.802860 0.234692
H208  H     H_    0.724865 0.393874 0.753461 0.236873
H209  H     H_    0.177252 0.623758 0.095961 0.165553
H210  H     H_    0.237728 0.659820 0.177517 0.107145
H211  H     H_    0.016648 0.910707 0.757067 0.086806
H212  H     H_    0.268939 0.577815 0.233992 0.209091
H213  H     H_    0.213375 0.542126 0.148646 0.245993
H214  H     H_    0.268487 0.557670 0.136798 0.293591
H215  H     H_    0.208457 0.345034 0.155690 0.079249
H216  H     H_    0.171480 0.388282 0.057600 0.191155
H217  H     H_    0.252115 0.450695 0.127201 0.300266
H218  H     H_    0.209473 0.451033 0.168071 0.225994
H219  H     H_    0.270143 0.415867 0.226962 0.235422
H220  H     H_    0.830531 0.611897 0.934482 0.124948
H221  H     H_    0.783415 0.648029 0.833269 0.150983
H222  H     H_    0.672520 0.317045 0.805205 0.139424
H223  H     H_    0.726769 0.575534 0.774544 0.229050
H224  H     H_    0.788930 0.543689 0.822415 0.224871
H225  H     H_    0.752902 0.540034 0.875809 0.292881
H226  H     H_    0.303415 0.837065 0.856443 0.061096
H227  H     H_    0.333598 0.895844 0.934172 0.177683
H228  H     H_    0.243537 0.943357 0.837674 0.296881
H229  H     H_    0.284223 0.935216 0.793867 0.237193
H230  H     H_    0.230496 0.886836 0.759988 0.236304
H231  H     H_    0.679070 0.106720 0.100362 0.165483
H232  H     H_    0.713243 0.171197 0.158065 0.139312
N1    N     N_R   0.532910 0.558440 0.665240 -0.042945
N2    N     N_R   0.402970 0.441090 0.454460 -0.041382
N3    N     N_R   0.402970 0.558910 0.454460 -0.040169
N4    N     N_R   0.597030 0.441090 0.545540 -0.039796
N5    N     N_R   0.097030 0.058910 0.545540 -0.041727
N6    N     N_R   0.902970 0.941090 0.454460 -0.041614
N7    N     N_R   0.902970 0.058910 0.454460 -0.038468
N8    N     N_R   0.097030 0.941090 0.545540 -0.040297
N9    N     N_R   0.566200 0.559270 0.454460 -0.038322
N10   N     N_R   0.433800 0.440730 0.545540 -0.039146
N11   N     N_R   0.433800 0.559270 0.545540 -0.038110
N12   N     N_R   0.467090 0.441560 0.334760 -0.042224
N13   N     N_R   0.566200 0.440730 0.454460 -0.038477
N14   N     N_R   0.066200 0.059270 0.454460 -0.038470
N15   N     N_R   0.933800 0.940730 0.545540 -0.038272
N16   N     N_R   0.933800 0.059270 0.545540 -0.036412
N17   N     N_R   0.066200 0.940730 0.454460 -0.038387
N18   N     N_R   0.421050 0.559750 0.334770 -0.037891
N19   N     N_R   0.578950 0.440250 0.665230 -0.040892
N20   N     N_R   0.578950 0.559750 0.665230 -0.042331
N21   N     N_R   0.421050 0.440250 0.334770 -0.041353
N22   N     N_R   0.921050 0.059750 0.334770 -0.040272
N23   N     N_R   0.467090 0.558440 0.334760 -0.041160
N24   N     N_R   0.078950 0.940250 0.665230 -0.038389
N25   N     N_R   0.078950 0.059750 0.665230 -0.039164
N26   N     N_R   0.921050 0.940250 0.334770 -0.042901
N27   N     N_R   0.532910 0.441560 0.665240 -0.042567
N28   N     N_R   0.032910 0.058440 0.665240 -0.041094
N29   N     N_R   0.967090 0.941560 0.334760 -0.044441
N30   N     N_R   0.967090 0.058440 0.334760 -0.042449
N31   N     N_R   0.032910 0.941560 0.665240 -0.040765
N32   N     N_R   0.597030 0.558910 0.545540 -0.040374
Ni1   Ni    Ni4+2 0.483090 0.500000 0.604440 0.207961
Ni2   Ni    Ni4+2 0.516910 0.500000 0.395560 0.206406
Ni3   Ni    Ni4+2 0.983090 0.000000 0.604440 0.206122
Ni4   Ni    Ni4+2 0.016910 0.000000 0.395560 0.209084
Ni5   Ni    Ni4+2 0.586780 0.500000 0.604440 0.220973
Ni6   Ni    Ni4+2 0.413220 0.500000 0.395560 0.218790
Ni7   Ni    Ni4+2 0.086780 0.000000 0.604440 0.215285
Ni8   Ni    Ni4+2 0.913220 0.000000 0.395560 0.220373
O1    O     O_3   0.758455 0.343616 0.910629 -0.633839
O2    O     O_3   0.166210 0.720832 0.094213 -0.673486
O3    O     O_3   0.134511 0.303884 0.008352 -0.636111
O4    O     O_3   0.838520 0.717951 0.914100 -0.662192
O5    O     O_3   0.373381 0.811774 0.011138 -0.622042
O6    O     O_3   0.638606 0.196196 0.036447 -0.677693
O7    O     O_3   0.639916 0.813998 0.015093 -0.642055
O8    O     O_3   0.331103 0.217954 0.898596 -0.674390
O9    O     O_3   0.226431 0.643516 0.055599 -0.637777
O10   O     O_3   0.236469 0.350034 0.073615 -0.631957
O11   O     O_3   0.764211 0.641382 0.925913 -0.647144
O12   O     O_3   0.273240 0.857304 0.934581 -0.630307
O13   O     O_3   0.731632 0.136540 0.071733 -0.633794
O14   O     O_3   0.745016 0.854670 0.083425 -0.633020
O15   O     O_3   0.279447 0.135940 0.945624 -0.651443
O16   O     O_3   0.860937 0.300179 0.973924 -0.641747

loop_
_geom_bond_atom_site_label_1
_geom_bond_atom_site_label_2
_ccdc_geom_bond_type
C61   C70   A    
C55   C154  A    
C17   H169  S    
C92   H7    S    
C126  C127  S    
C31   C42   A    
C50   C228  A    
C14   O6    S    
C216  C219  A    
C125  H83   S    
C198  C216  A    
N7    N16   A    
C57   C128  S    
C112  N12   A    
C6    O14   S    
C107  H49   S    
C88   H228  S    
C124  H195  S    
C86   H225  S    
C105  H42   S    
C37   C160  S    
C85   H221  S    
C35   C124  A    
C154  C158  S    
C52   C61   A    
C56   C155  A    
C95   H14   S    
C54   C63   A    
C93   H8    S    
C3    C215  A    
N18   N23   A    
N30   Ni4   S    
C81   H210  S    
C111  H59   S    
C175  C210  A    
C169  C177  A    
N5    Ni7   S    
C12   O5    S    
N26   Ni8   S    
C229  H168  S    
C5    C217  A    
C100  H32   S    
C145  H140  S    
C1    H1    S    
C199  C217  A    
C53   C152  A    
C102  H30   S    
C85   H220  S    
C4    C12   A    
C164  C191  A    
C143  H133  S    
C21   C48   A    
C141  O5    S    
C144  H137  S    
C98   H26   S    
C29   N21   A    
N7    Ni8   S    
C16   O8    S    
C197  C206  A    
C26   N18   A    
C41   C200  A    
C3    O11   S    
C2    C117  S    
C156  N23   A    
C173  H155  S    
N13   Ni2   S    
C80   H208  S    
C38   C167  A    
C116  H61   S    
C150  C159  A    
C123  H87   S    
C165  C183  A    
C103  H38   S    
N23   Ni2   S    
C166  C184  A    
C170  C205  A    
C90   C152  A    
C78   O1    S    
C97   H17   S    
N20   Ni5   S    
C176  C212  A    
C147  H142  S    
C17   C43   A    
C136  H116  S    
C18   C44   A    
C131  H99   S    
C127  H88   S    
C170  H152  S    
C88   H229  S    
C139  C140  S    
C19   N11   A    
C116  H62   S    
C91   H5    S    
C149  H149  S    
C10   C232  A    
C44   C223  A    
C171  C206  A    
C47   C71   S    
C22   C49   A    
N21   Ni6   S    
N12   N21   A    
C83   H215  S    
C13   C72   A    
C173  C182  A    
C128  H97   S    
C2    C71   A    
C103  H37   S    
C39   C178  A    
C57   C76   A    
C79   C222  A    
C10   O3    S    
C68   C77   A    
C133  H108  S    
C64   H190  S    
C150  H198  S    
C45   C224  A    
C182  H135  S    
C138  H121  S    
C20   N13   A    
C228  N7    A    
C225  N4    A    
N19   N27   A    
N8    N17   A    
N2    N10   A    
C115  H65   S    
C130  C131  S    
C82   H213  S    
C215  C220  A    
C5    O13   S    
C114  H56   S    
C52   C151  A    
C87   H227  S    
C142  H131  S    
C59   C109  S    
C102  H28   S    
C93   H10   S    
C163  C190  A    
C32   N25   A    
C63   H188  S    
C15   C206  A    
C3    C11   A    
C21   N14   A    
C65   C74   A    
C229  N8    A    
C161  C187  A    
C98   C99   S    
C41   C164  S    
N6    Ni8   S    
C143  C144  S    
C183  H124  S    
C116  H63   S    
C135  C157  A    
C126  H92   S    
C163  C181  A    
C48   C76   S    
C115  C222  S    
C69   C77   A    
C129  H94   S    
C84   H217  S    
C31   N24   A    
C140  H125  S    
C97   H19   S    
C224  N3    A    
C85   C86   S    
C85   O11   S    
N8    Ni7   S    
C92   H6    S    
C119  H75   S    
C138  H119  S    
N3    Ni6   S    
C179  H79   S    
C112  H112  S    
C59   C158  A    
C78   C80   S    
C110  H52   S    
C115  C116  S    
C91   H3    S    
C165  C192  A    
C17   N9    A    
C2    C90   A    
C58   C107  S    
N10   Ni1   S    
C24   C121  S    
C59   C67   A    
C172  C181  A    
C10   C210  A    
C18   H170  S    
C117  H70   S    
C36   C163  S    
C107  C108  S    
C30   C41   A    
C127  H91   S    
C89   C91   S    
C169  H151  S    
C162  C180  A    
C213  C231  A    
C42   C165  S    
C66   H192  S    
C78   H205  S    
C106  H39   S    
C96   C97   S    
C33   N26   A    
C37   C156  A    
C94   C95   S    
C106  H41   S    
C227  H165  S    
C107  H48   S    
C201  C209  A    
C46   C75   A    
C226  N5    A    
C1    C34   A    
C69   H194  S    
C160  C177  A    
C114  H58   S    
C33   C40   A    
C118  H66   S    
C20   C47   A    
C188  H24   S    
C104  H33   S    
C226  H164  S    
C28   H180  S    
N14   Ni4   S    
C145  O7    S    
C130  H103  S    
C193  H68   S    
C121  H82   S    
C122  H77   S    
C132  H105  S    
N11   Ni1   S    
C86   H224  S    
C94   H11   S    
C191  H46   S    
C227  N6    A    
C11   C212  A    
N24   N31   A    
C196  C214  A    
C83   C84   S    
C189  N29   A    
C28   N20   A    
C147  H143  S    
C228  H166  S    
C67   H193  S    
C68   C130  S    
C178  H178  S    
C25   H176  S    
C6    C220  A    
C109  H54   S    
C4    C218  A    
N22   N30   A    
C89   H232  S    
C177  H90   S    
C84   H219  S    
C108  H45   S    
C146  H197  S    
N22   Ni8   S    
C140  H127  S    
C141  H129  S    
N29   Ni4   S    
C198  C207  A    
C172  C207  A    
C34   C162  S    
C58   C157  A    
C29   H181  S    
C213  C218  A    
C19   C45   A    
C7    O15   S    
C146  C158  A    
C53   C98   S    
C170  C179  A    
C132  O16   S    
C221  H160  S    
C35   C123  S    
C94   O15   S    
C60   C111  S    
C93   H9    S    
C117  C118  S    
C82   H214  S    
C169  C204  A    
C60   C69   A    
C126  H93   S    
C81   H209  S    
C199  C208  A    
C137  O3    S    
C49   C77   S    
C62   C71   A    
C173  C208  A    
C12   C204  A    
C224  H162  S    
C171  C180  A    
C68   C150  A    
C221  N32   A    
C172  H154  S    
C129  H96   S    
C79   H199  S    
C145  H139  S    
C124  C155  A    
C129  H95   S    
C186  H2    S    
C144  H138  S    
C98   H27   S    
C33   H185  S    
C87   C88   S    
C35   C74   A    
C187  C196  A    
C51   C229  A    
C174  C209  A    
C120  H73   S    
C134  H110  S    
C60   C159  A    
C113  C154  A    
C16   C207  A    
C149  H148  S    
C176  C185  A    
C211  H211  S    
C203  C220  A    
C151  C157  S    
C43   C221  A    
C201  C218  A    
C99   H22   S    
C211  N31   A    
C24   C73   A    
C123  C125  S    
C99   H25   S    
C27   C38   A    
C147  H141  S    
C32   C39   A    
C30   H182  S    
C23   H175  S    
N27   Ni1   S    
C125  H85   S    
C46   C135  A    
C131  H102  S    
C137  H118  S    
C38   C161  S    
C40   C189  A    
N15   Ni3   S    
C36   C112  A    
C192  C201  A    
C49   C227  A    
C108  H47   S    
C22   N15   A    
C81   O9    S    
N4    N13   A    
C30   N22   A    
C28   C34   A    
C128  H98   S    
C57   C146  A    
C128  C129  S    
C27   N19   A    
C125  H84   S    
C25   N17   A    
C145  C147  S    
C167  H167  S    
C133  H107  S    
C105  H43   S    
C23   N16   A    
C23   C50   A    
C195  C204  A    
C185  H146  S    
C223  N2    A    
C31   H183  S    
C111  H60   S    
C118  H69   S    
C32   H184  S    
N26   N29   A    
C22   H174  S    
N5    N14   A    
C181  H101  S    
C47   C225  A    
C100  H31   S    
C191  C199  A    
C142  H132  S    
C102  H29   S    
C167  N27   A    
C231  O9    S    
C143  H134  S    
C5    C14   A    
C110  H50   S    
C139  H123  S    
C7    C16   A    
C21   H173  S    
N32   Ni5   S    
C96   H20   S    
C214  C230  A    
C190  C198  A    
C80   H207  S    
C101  H202  S    
C45   C70   S    
C225  H163  S    
C84   H218  S    
C108  H44   S    
C143  O6    S    
C174  C183  A    
C95   H15   S    
C119  C120  S    
C26   C37   A    
C140  H126  S    
C97   H18   S    
N3    N11   A    
C105  C106  S    
C176  H159  S    
C88   H230  S    
C138  H120  S    
N24   Ni7   S    
C39   C166  S    
C50   C74   S    
C90   H201  S    
C4    O12   S    
C136  H115  S    
C109  C110  S    
C162  C188  A    
C131  H100  S    
C148  H145  S    
C188  C197  A    
C66   C75   A    
C92   C93   S    
C70   C222  A    
C111  C114  S    
C44   C73   S    
C56   C105  S    
C195  C213  A    
C164  C182  A    
C193  C202  A    
C1    N1    A    
C61   H186  S    
C83   H216  S    
C166  C193  A    
C89   O13   S    
C63   C72   A    
C144  H136  S    
C14   C205  A    
C103  C104  S    
C120  H74   S    
N31   Ni3   S    
C120  H72   S    
C175  C184  A    
C141  H128  S    
C106  H40   S    
C43   C72   S    
C62   H187  S    
C160  C186  A    
C54   C153  A    
C81   C82   S    
C132  H106  S    
C142  H130  S    
C135  H196  S    
N17   Ni4   S    
C29   C36   A    
C118  H67   S    
N28   Ni3   S    
C113  H203  S    
C104  H34   S    
C96   H21   S    
C148  O8    S    
C184  H150  S    
C114  H55   S    
C223  H161  S    
C130  H104  S    
C134  O2    S    
C121  H81   S    
C56   C65   A    
C18   N10   A    
C55   C103  S    
C122  H78   S    
C48   C226  A    
C196  C205  A    
C8    C208  A    
C94   H12   S    
N9    Ni2   S    
C99   H23   S    
C6    C15   A    
C8    C230  A    
C58   C66   A    
C9    C209  A    
C132  C133  S    
C156  H156  S    
C87   O12   S    
C152  C155  S    
N1    N20   A    
C11   O4    S    
C197  C215  A    
C7    C219  A    
C127  H89   S    
C9    O2    S    
C133  H109  S    
C24   C113  A    
C168  C194  A    
C123  H86   S    
C178  N28   A    
C54   C100  S    
C89   H231  S    
C202  C210  A    
C139  H122  S    
C122  H80   S    
C13   C119  S    
N18   Ni6   S    
C175  H158  S    
C200  N30   A    
C119  H76   S    
C186  C195  A    
C148  C149  S    
N1    Ni1   S    
N25   Ni7   S    
C26   H177  S    
C134  C136  S    
C110  H51   S    
N12   Ni2   S    
C91   H4    S    
C232  O10   S    
C92   O14   S    
C202  C219  A    
C153  C159  S    
C25   C51   A    
C95   H16   S    
N19   Ni5   S    
C53   C62   A    
C139  O4    S    
N9    N32   A    
C101  C153  A    
C64   C73   A    
C55   C64   A    
C117  H71   S    
C100  C102  S    
C121  C122  S    
C15   O7    S    
C174  H157  S    
C180  H113  S    
C78   H204  S    
C189  H189  S    
C200  H200  S    
C203  C212  A    
C161  C179  A    
C13   C101  A    
C51   C75   S    
C192  H35   S    
C83   O10   S    
C79   C151  A    
C65   H191  S    
C190  H13   S    
C168  C185  A    
C115  H64   S    
C46   C126  S    
C134  H111  S    
C104  H36   S    
N4    Ni5   S    
C214  C217  A    
C149  H147  S    
C20   H172  S    
N16   Ni3   S    
C80   H206  S    
C8    O16   S    
C230  O1    S    
C137  C138  S    
C87   H226  S    
C86   H223  S    
C9    C231  A    
C109  H53   S    
C171  H153  S    
C141  C142  S    
C194  C203  A    
C216  C232  A    
C52   C96   S    
C27   H179  S    
N25   N28   A    
C40   C168  S    
C136  H114  S    
N6    N15   A    
C187  H222  S    
C137  H117  S    
C148  H144  S    
N2    Ni6   S    
C67   C76   A    
C19   H171  S    
C42   C211  A    
C194  H57   S    
C82   H212  S    
