data_mof_unit_62815.cif
_audit_creation_date              2012-10-26T19:01:22-0400
_audit_creation_method            fapswitch 2.2
_symmetry_space_group_name_H-M    P1
_symmetry_Int_Tables_number       1
_space_group_crystal_system       triclinic
_cell_length_a                    15.895625
_cell_length_b                    17.735949
_cell_length_c                    16.45024
_cell_angle_alpha                 89.857287
_cell_angle_beta                  90.002827
_cell_angle_gamma                 90.188047
_cell_volume                      4637.67799978

loop_
_atom_site_label
_atom_site_type_symbol
_atom_type_description
_atom_site_fract_x
_atom_site_fract_y
_atom_site_fract_z
_atom_type_partial_charge
Br1   Br    Br    0.069177 0.351899 0.402034 -0.285704
Br2   Br    Br    0.930823 0.648101 0.597965 -0.285704
Br3   Br    Br    0.929649 0.346989 0.589552 -0.285177
Br4   Br    Br    0.070351 0.653011 0.410448 -0.285177
Br5   Br    Br    0.930157 0.504958 0.312570 -0.288858
Br6   Br    Br    0.069843 0.495042 0.687430 -0.288858
Br7   Br    Br    0.624155 0.621853 0.881537 -0.397099
Br8   Br    Br    0.375849 0.378143 0.118463 -0.397100
C1    C     C_R   0.499879 0.355233 0.500132 0.557245
C2    C     C_R   0.499962 0.153898 0.575272 0.259086
C3    C     C_R   0.500241 0.885575 0.498574 0.044373
C4    C     C_R   0.499759 0.114425 0.501426 0.044373
C5    C     C_1   0.500078 0.966202 0.499589 0.094656
C6    C     C_1   0.499922 0.033798 0.500411 0.094655
C7    C     C_R   0.551784 0.550824 0.828276 0.149089
C8    C     C_R   0.448217 0.449175 0.171724 0.149089
C9    C     C_R   0.550327 0.549384 0.742445 0.090009
C10   C     C_R   0.449674 0.450615 0.257555 0.090009
C11   C     C_R   0.450008 0.450875 0.743528 0.055849
C12   C     C_R   0.500121 0.644767 0.499867 0.557245
C13   C     C_R   0.549990 0.549126 0.256472 0.055850
C14   C     C_R   0.449457 0.450335 0.829291 -0.132117
C15   C     C_R   0.550541 0.549667 0.170709 -0.132117
C16   C     C_R   0.339560 0.499946 0.499985 0.562708
C17   C     C_R   0.660440 0.500054 0.500015 0.562708
C18   C     C_R   0.500651 0.500619 0.873066 0.033521
C19   C     C_R   0.499349 0.499381 0.126934 0.033521
C20   C     C_1   0.500155 0.500146 0.962729 0.086833
C21   C     C_1   0.499844 0.499854 0.037271 0.086833
C22   C     C_3   0.971810 0.437300 0.536688 0.155018
C23   C     C_R   0.500571 0.767811 0.572960 -0.116721
C24   C     C_3   0.028189 0.562700 0.463312 0.155018
C25   C     C_3   0.027698 0.439310 0.459861 0.154752
C26   C     C_3   0.972301 0.560690 0.540139 0.154752
C27   C     C_1   0.250085 0.499940 0.499972 0.056317
C28   C     C_1   0.749915 0.500059 0.500028 0.056317
C29   C     C_3   0.027971 0.497967 0.576803 0.155406
C30   C     C_3   0.972029 0.502033 0.423197 0.155406
C31   C     C_3   0.083222 0.499978 0.499976 -0.045836
C32   C     C_3   0.916778 0.500022 0.500024 -0.045836
C33   C     C_1   0.174717 0.499951 0.499966 0.075679
C34   C     C_R   0.499429 0.232189 0.427040 -0.116721
C35   C     C_1   0.825283 0.500049 0.500034 0.075679
C36   C     C_R   0.500547 0.846362 0.572397 -0.115774
C37   C     C_R   0.499453 0.153638 0.427602 -0.115773
C38   C     C_R   0.500260 0.727674 0.499470 -0.024541
C39   C     C_R   0.499740 0.272326 0.500530 -0.024541
C40   C     C_R   0.500061 0.767420 0.425447 -0.071307
C41   C     C_R   0.499939 0.232580 0.574553 -0.071307
C42   C     C_R   0.500038 0.846102 0.424728 0.259086
Cl1   Cl    Cl    0.499711 0.893539 0.330528 -0.506383
Cl2   Cl    Cl    0.500289 0.106460 0.669471 -0.506383
Cu1   Cu    Cu3+1 0.500000 0.499980 0.580420 1.001585
Cu2   Cu    Cu3+1 0.500000 0.500020 0.419580 1.001586
H1    H     H_    0.410141 0.411802 0.710829 0.150599
H2    H     H_    0.500114 0.262462 0.631907 0.170085
H3    H     H_    0.589845 0.588052 0.708601 0.160134
H4    H     H_    0.410158 0.411945 0.291399 0.160133
H5    H     H_    0.589856 0.588200 0.289170 0.150599
H6    H     H_    0.409160 0.410777 0.861195 0.159669
H7    H     H_    0.590837 0.589225 0.138805 0.159669
H8    H     H_    0.500738 0.876566 0.629591 0.174179
H9    H     H_    0.499262 0.123434 0.370409 0.174179
H10   H     H_    0.500810 0.738602 0.630858 0.163154
H11   H     H_    0.499190 0.261398 0.369142 0.163154
H12   H     H_    0.499886 0.737538 0.368093 0.170085
N1    N     N_R   0.499980 0.499970 0.701220 -0.249168
N2    N     N_R   0.500020 0.500030 0.298780 -0.249169
O1    O     O_R   0.499990 0.391240 0.567930 -0.506316
O2    O     O_R   0.500010 0.608760 0.432070 -0.506317
O3    O     O_R   0.500000 0.391270 0.432120 -0.505147
O4    O     O_R   0.500000 0.608730 0.567880 -0.505147
O5    O     O_R   0.379070 0.499980 0.567900 -0.490733
O6    O     O_R   0.620930 0.500020 0.432100 -0.490732
O7    O     O_R   0.379080 0.500010 0.432080 -0.489065
O8    O     O_R   0.620920 0.499990 0.567920 -0.489067

loop_
_geom_bond_atom_site_label_1
_geom_bond_atom_site_label_2
_ccdc_geom_bond_type
C19   C21   S    
C26   C29   S    
C2    Cl2   S    
Br1   C25   S    
C39   C41   A    
Cu1   Cu2   S    
C25   C31   S    
C26   C32   S    
C20   C21   T    
C1    O1    A    
C13   H5    S    
C14   H6    S    
C16   O5    A    
Cu2   N2    S    
C10   N2    A    
C17   O6    A    
C24   C31   S    
Cu2   O6    S    
C10   H4    S    
C32   C35   S    
Cu2   O3    S    
C23   C38   A    
C34   H11   S    
C11   N1    A    
C24   C30   S    
Br2   C26   S    
C8    C19   A    
Br7   C7    S    
Cu1   O1    S    
Br8   C8    S    
C5    C6    T    
C12   O2    A    
C2    C41   A    
C27   C33   T    
C38   C40   A    
C9    N1    A    
C16   C27   S    
C23   C36   A    
C11   C14   A    
C31   C33   S    
C7    C18   A    
C36   H8    S    
C37   H9    S    
C22   C29   S    
C34   C37   A    
C24   C26   S    
Br3   C22   S    
Cu2   O2    S    
C42   Cl1   S    
Br6   C29   S    
C22   C32   S    
C3    C36   A    
Br4   C24   S    
C2    C4    A    
C4    C6    S    
C1    C39   S    
C15   C19   A    
C13   C15   A    
C13   N2    A    
Cu1   O8    S    
C11   H1    S    
C7    C9    A    
C22   C25   S    
C23   H10   S    
Cu1   O5    S    
C1    O3    A    
C4    C37   A    
C16   O7    A    
C41   H2    S    
C18   C20   S    
C25   C30   S    
C17   O8    A    
C29   C31   S    
C3    C42   A    
C30   C32   S    
C3    C5    S    
C40   C42   A    
C34   C39   A    
Cu1   N1    S    
C17   C28   S    
Cu2   O7    S    
C15   H7    S    
C8    C10   A    
C14   C18   A    
C12   O4    A    
C28   C35   T    
C40   H12   S    
Br5   C30   S    
Cu1   O4    S    
C12   C38   S    
C9    H3    S    
