data_mof_unit_22926.cif
_audit_creation_date              2012-12-11T15:46:57-0500
_audit_creation_method            fapswitch 2.2
_symmetry_space_group_name_H-M    P1
_symmetry_Int_Tables_number       1
_space_group_crystal_system       triclinic
_cell_length_a                    11.548683
_cell_length_b                    11.550807
_cell_length_c                    19.573128
_cell_angle_alpha                 90.533669
_cell_angle_beta                  90.110634
_cell_angle_gamma                 59.916836
_cell_volume                      2259.17610952

loop_
_atom_site_label
_atom_site_type_symbol
_atom_type_description
_atom_site_fract_x
_atom_site_fract_y
_atom_site_fract_z
_atom_type_partial_charge
C1    C     C_R   0.640424 0.117232 0.599311 0.546975
C2    C     C_1   0.652972 0.149512 0.668691 0.005629
C3    C     C_R   0.667478 0.668433 0.192062 0.041589
C4    C     C_R   0.612425 0.746215 0.598704 0.542620
C5    C     C_R   0.540929 0.741307 0.221233 0.034814
C6    C     C_R   0.528945 0.754119 0.290493 0.026306
C7    C     C_R   0.768539 0.638313 0.304296 -0.178931
C8    C     C_R   0.781940 0.625129 0.233583 -0.162101
C9    C     C_3   0.416977 0.730984 0.214543 -0.267918
C10   C     C_3   0.406668 0.741229 0.291573 -0.251181
C11   C     C_R   0.640890 0.696858 0.333052 0.012009
C12   C     C_1   0.641250 0.704192 0.668068 0.005739
C13   C     C_R   0.144585 0.189330 0.190959 0.010153
C14   C     C_R   0.226756 0.232664 0.219015 0.022778
C15   C     C_R   0.254691 0.217282 0.287536 0.020379
C16   C     C_R   0.241266 0.145222 0.598253 0.547539
C17   C     C_R   0.132149 0.100070 0.301835 -0.069160
C18   C     C_R   0.105082 0.114199 0.231767 -0.167240
C19   C     C_3   0.218317 0.365964 0.217224 -0.265504
C20   C     C_3   0.245782 0.350793 0.293203 -0.250093
C21   C     C_R   0.202892 0.157817 0.330659 0.005485
C22   C     C_R   0.683458 0.196041 0.198189 0.020249
C23   C     C_1   0.126464 0.198858 0.859240 0.005707
C24   C     C_R   0.768463 0.072009 0.226601 -0.002682
C25   C     C_R   0.765969 0.049816 0.294847 0.031176
C26   C     C_R   0.598851 0.281719 0.312330 -0.169400
C27   C     C_R   0.603929 0.304349 0.242253 -0.164960
C28   C     C_R   0.646074 0.112932 0.403262 0.545304
C29   C     C_3   0.793067 0.936876 0.205744 -0.141829
C30   C     C_3   0.789787 0.911403 0.281719 -0.118954
C31   C     C_R   0.674342 0.151132 0.337968 0.019992
C32   C     C_R   0.081544 0.231258 0.928537 0.550358
C33   C     C_R   0.683973 0.604177 0.929443 0.552378
C34   C     C_1   0.171642 0.170355 0.727724 -0.029181
C35   C     C_R   0.708447 0.206736 0.930091 0.552510
C36   C     C_R   0.082130 0.235691 0.125271 0.552694
C37   C     C_R   0.683732 0.611146 0.125365 0.566836
C38   C     C_R   0.710200 0.213676 0.128121 0.557374
C39   C     C_R   0.617047 0.737574 0.403089 0.538235
C40   C     C_R   0.245098 0.140402 0.401220 0.548017
C41   C     C_1   0.670354 0.646211 0.860086 0.006510
C42   C     C_1   0.654744 0.683844 0.728467 -0.029592
C43   C     C_1   0.663391 0.666565 0.799695 -0.029878
C44   C     C_1   0.679622 0.944814 0.167148 0.188970
C45   C     C_1   0.150046 0.182368 0.798922 -0.029407
C46   C     C_1   0.920837 0.808741 0.307820 0.227878
C47   C     C_1   0.075237 0.039225 0.344046 0.188915
C48   C     C_1   0.195561 0.160937 0.667437 0.006001
C49   C     C_1   0.678676 0.191332 0.860736 0.005984
C50   C     C_1   0.658584 0.167096 0.729051 -0.029297
C51   C     C_1   0.665757 0.180884 0.800327 -0.029389
Cr1   Cr    Cr6+3 0.404720 0.198220 0.499960 1.033353
Cr2   Cr    Cr6+3 0.698290 0.897110 0.500380 1.056522
Cr3   Cr    Cr6+3 0.396970 0.904720 0.499610 1.051810
Cr4   Cr    Cr6+3 0.926290 0.152010 0.028150 1.032040
Cr5   Cr    Cr6+3 0.921440 0.451830 0.027490 1.031892
Cr6   Cr    Cr6+3 0.626370 0.446880 0.028730 1.029191
H1    H     H_    0.856558 0.601469 0.336192 0.141714
H2    H     H_    0.434156 0.632982 0.195360 0.153953
H3    H     H_    0.334783 0.819475 0.188718 0.149743
H4    H     H_    0.317859 0.833414 0.310347 0.171817
H5    H     H_    0.424234 0.647394 0.316246 0.142526
H6    H     H_    0.042285 0.077548 0.210845 0.148969
H7    H     H_    0.117109 0.449959 0.205044 0.151314
H8    H     H_    0.301313 0.362981 0.187097 0.147648
H9    H     H_    0.342632 0.342116 0.307130 0.155560
H10   H     H_    0.158977 0.423689 0.324582 0.161884
H11   H     H_    0.531225 0.363743 0.345300 0.123686
H12   H     H_    0.544905 0.404560 0.222686 0.126489
H13   H     H_    0.891475 0.875303 0.179917 0.126038
H14   H     H_    0.704685 0.899517 0.298805 0.132108
H15   H     H_    0.881762 0.570997 0.212252 0.139723
N1    N     N_1   0.590126 0.952841 0.136502 -0.302191
N2    N     N_1   0.023901 0.727812 0.328205 -0.313188
N3    N     N_1   0.030186 0.990773 0.378467 -0.264883
O1    O     O_R   0.267750 0.231960 0.575440 -0.503722
O2    O     O_R   0.596230 0.579400 0.952760 -0.503019
O3    O     O_R   0.639160 0.321170 0.958690 -0.492680
O4    O     O_R   0.527290 0.186640 0.570530 -0.495450
O5    O     O_R   0.821370 0.124220 0.104400 -0.519427
O6    O     O_R   0.037020 0.167050 0.097880 -0.510540
O7    O     O_R   0.056310 0.349620 0.102920 -0.522183
O8    O     O_R   0.797790 0.564880 0.097980 -0.509279
O9    O     O_R   0.596000 0.584270 0.104310 -0.526887
O10   O     O_R   0.638950 0.325690 0.099180 -0.508420
O11   O     O_3   0.824700 0.350240 0.028120 -0.261662
O12   O     O_R   0.685950 0.784660 0.430010 -0.504456
O13   O     O_R   0.728110 0.003450 0.576380 -0.498753
O14   O     O_R   0.682980 0.789190 0.570500 -0.494777
O15   O     O_R   0.499300 0.771880 0.575540 -0.503761
O16   O     O_R   0.285350 0.030870 0.569740 -0.490200
O17   O     O_R   0.270960 0.227070 0.423890 -0.519558
O18   O     O_R   0.530270 0.182120 0.430040 -0.510671
O19   O     O_R   0.731320 0.998570 0.424830 -0.491914
O20   O     O_R   0.502510 0.767000 0.423980 -0.514948
O21   O     O_R   0.288320 0.026340 0.429250 -0.490471
O22   O     O_3   0.499990 0.000020 0.499980 -0.265333
O23   O     O_R   0.821590 0.119350 0.952850 -0.502055
O24   O     O_R   0.037230 0.162540 0.957390 -0.493326
O25   O     O_R   0.056530 0.344750 0.951370 -0.502812
O26   O     O_R   0.798000 0.560370 0.957490 -0.491826

loop_
_geom_bond_atom_site_label_1
_geom_bond_atom_site_label_2
_ccdc_geom_bond_type
C25   C31   A    
C23   C45   T    
C4    O14   A    
C20   H10   S    
C19   C20   S    
C39   O12   A    
C16   C48   S    
C30   H14   S    
C7    C8    A    
C7    C11   A    
C26   C27   A    
C13   C18   A    
C33   O26   A    
C20   H9    S    
Cr5   O26   S    
Cr3   O15   S    
C5    C6    A    
C18   H6    S    
C22   C38   S    
Cr1   O22   S    
Cr6   O11   S    
C28   O19   A    
C1    C2    S    
C24   C29   S    
C12   C42   T    
C2    C50   T    
C36   O7    A    
C49   C51   T    
C35   C49   S    
C37   O9    A    
Cr4   O6    S    
Cr1   O4    S    
C9    C10   S    
C36   O6    A    
C7    H1    S    
Cr3   O21   S    
C27   H12   S    
C1    O13   A    
C26   C31   A    
C13   C14   A    
C41   C43   T    
C10   H5    S    
C40   O21   A    
C14   C19   S    
C50   C51   S    
C4    O15   A    
C15   C20   S    
C8    H15   S    
C38   O10   A    
Cr6   O2    S    
C24   C25   A    
C13   C36   S    
C3    C8    A    
C6    C11   A    
Cr2   O22   S    
C17   C21   A    
C32   O25   A    
C28   O18   A    
C9    H2    S    
C5    C9    S    
C29   C30   S    
Cr5   O11   S    
C19   H7    S    
C17   C18   A    
Cr6   O9    S    
Cr1   O18   S    
Cr2   O12   S    
C34   C45   S    
C40   O17   A    
C11   C39   S    
C39   O20   A    
Cr3   O20   S    
C22   C27   A    
C29   C44   S    
Cr2   O14   S    
C1    O4    A    
C22   C24   A    
Cr1   O17   S    
C10   H4    S    
C4    C12   S    
C42   C43   S    
Cr5   O25   S    
C35   O23   A    
C46   N2    T    
Cr5   O8    S    
C29   H13   S    
C25   C30   S    
Cr2   O19   S    
C16   O1    A    
Cr6   O3    S    
C30   C46   S    
C28   C31   S    
C17   C47   S    
C3    C5    A    
C6    C10   S    
Cr5   O7    S    
C35   O3    A    
C32   O24   A    
Cr1   O1    S    
C9    H3    S    
C26   H11   S    
C23   C32   S    
Cr4   O11   S    
C33   C41   S    
Cr3   O16   S    
Cr4   O5    S    
C33   O2    A    
C21   C40   S    
C38   O5    A    
Cr4   O23   S    
Cr6   O10   S    
C19   H8    S    
Cr2   O13   S    
C44   N1    T    
C47   N3    T    
Cr3   O22   S    
C15   C21   A    
C34   C48   T    
C3    C37   S    
C16   O16   A    
Cr4   O24   S    
C14   C15   A    
C37   O8    A    
