data_mof_unit_37281.cif
_audit_creation_date              2012-12-10T17:02:03-0500
_audit_creation_method            fapswitch 2.2
_symmetry_space_group_name_H-M    P1
_symmetry_Int_Tables_number       1
_space_group_crystal_system       triclinic
_cell_length_a                    10.819251
_cell_length_b                    10.979972
_cell_length_c                    9.876143
_cell_angle_alpha                 110.496966
_cell_angle_beta                  100.235516
_cell_angle_gamma                 91.388327
_cell_volume                      1076.70446962

loop_
_atom_site_label
_atom_site_type_symbol
_atom_type_description
_atom_site_fract_x
_atom_site_fract_y
_atom_site_fract_z
_atom_type_partial_charge
C1    C     C_R   0.489171 0.253119 0.441192 0.769689
C2    C     C_R   0.073213 0.435601 0.584462 0.085448
C3    C     C_R   0.125730 0.479069 0.486831 -0.107694
C4    C     C_R   0.048613 0.528672 0.392350 -0.148183
C5    C     C_R   0.922025 0.538025 0.398137 -0.182113
C6    C     C_R   0.876032 0.516718 0.512583 -0.118994
C7    C     C_2   0.472583 0.112097 0.411056 -0.158204
C8    C     C_2   0.464228 0.074498 0.525944 -0.274440
C9    C     C_2   0.519720 0.886173 0.590551 0.006970
C10   C     C_2   0.435728 0.939720 0.513879 0.076360
C11   C     C_2   0.510331 0.513151 0.085154 -0.043134
C12   C     C_R   0.261617 0.491747 0.496220 0.854356
C13   C     C_2   0.495621 0.485800 0.920685 0.030300
C14   C     C_R   0.508800 0.745983 0.558889 0.909880
C15   C     C_R   0.739097 0.508158 0.504106 0.782941
C16   C     C_R   0.126400 0.346364 0.647655 0.156643
C17   C     C_R   0.083676 0.334732 0.768803 -0.199749
C18   C     C_R   0.994274 0.414561 0.831194 0.187837
C19   C     C_R   0.940107 0.499921 0.763025 0.033810
C20   C     C_R   0.960258 0.484319 0.620464 -0.072894
Cu1   Cu    Cu3+1 0.521920 0.521810 0.644910 0.958288
Cu2   Cu    Cu3+1 0.478080 0.478190 0.355090 0.969728
H1    H     H_    0.086266 0.560508 0.314580 0.198572
H2    H     H_    0.432332 0.402310 0.846811 0.113172
H3    H     H_    0.578410 0.590627 0.163685 0.175945
H4    H     H_    0.381286 0.371012 0.062075 0.183575
H5    H     H_    0.121571 0.264638 0.816002 0.150629
H6    H     H_    0.861347 0.566853 0.316969 0.162748
H7    H     H_    0.479335 0.145983 0.637388 0.172683
N1    N     N_2   0.445130 0.445430 0.137370 -0.290383
N2    N     N_2   0.554930 0.554500 0.862630 -0.148144
O1    O     O_R   0.511700 0.332330 0.577400 -0.578785
O2    O     O_R   0.474680 0.295500 0.332650 -0.591124
O3    O     O_R   0.338160 0.518420 0.622400 -0.558789
O4    O     O_R   0.301140 0.481590 0.377650 -0.564490
O5    O     O_R   0.525320 0.704500 0.667350 -0.588638
O6    O     O_R   0.488300 0.667670 0.422600 -0.543957
O7    O     O_R   0.698860 0.518410 0.622350 -0.594368
O8    O     O_R   0.661840 0.481580 0.377600 -0.575511
C21   C     C_2   0.464624 0.019278 0.257136 0.335573
H8    H     H_    0.452886 0.055372 0.166891 0.091217
O9    O     O_2   0.474901 0.903062 0.229382 -0.564857
C22   C     C_3   0.628063 0.675513 0.959775 -0.473009
H9    H     H_    0.565860 0.744942 0.018984 0.225074
H10   H     H_    0.672235 0.721412 0.894681 0.212358
H11   H     H_    0.704702 0.657195 0.039230 0.185755
C23   C     C_3   0.209789 0.246678 0.574742 -0.869423
H12   H     H_    0.168757 0.147226 0.556815 0.228925
H13   H     H_    0.219381 0.247032 0.465042 0.210080
H14   H     H_    0.303336 0.264394 0.647390 0.229326
C24   C     C_3   0.955641 0.401541 0.964905 -0.780842
H15   H     H_    0.931795 0.296861 0.944616 0.209527
H16   H     H_    0.035162 0.440828 0.060615 0.236253
H17   H     H_    0.870700 0.452423 0.990896 0.251014
C25   C     C_2   0.903776 0.628629 0.852860 0.388024
H18   H     H_    0.862854 0.693488 0.799416 0.062651
O10   O     O_2   0.929281 0.669242 0.987456 -0.570336
C26   C     C_2   0.309538 0.873940 0.426304 0.413351
H19   H     H_    0.255560 0.914676 0.351467 0.097493
O11   O     O_2   0.261646 0.779228 0.441984 -0.576409
C27   C     C_3   0.635339 0.965610 0.699548 -0.907844
H20   H     H_    0.696013 0.903768 0.745957 0.227158
H21   H     H_    0.692967 0.011159 0.644282 0.258240
H22   H     H_    0.606241 0.042996 0.792470 0.240719

loop_
_geom_bond_atom_site_label_1
_geom_bond_atom_site_label_2
_ccdc_geom_bond_type
C27   H22   S    
C24   H16   S    
C9    C14   S    
C15   O7    A    
Cu1   O3    S    
C5    H6    S    
C6    C20   A    
C9    C10   D    
C19   C20   A    
C7    C21   S    
C24   H17   S    
C25   H18   S    
C21   O9    D    
C17   C18   A    
C6    C15   S    
C1    O2    A    
C7    C8    D    
C23   H13   S    
Cu1   O5    S    
Cu1   Cu2   S    
C14   O6    A    
Cu2   O4    S    
Cu1   N2    S    
C15   O8    A    
C27   H20   S    
N2    C22   S    
C26   O11   D    
C9    C27   S    
C8    H7    S    
C16   C23   S    
C21   H8    S    
Cu1   O1    S    
C18   C24   S    
H4    N1    S    
C23   H14   S    
C2    C3    A    
C25   O10   D    
C22   H9    S    
C14   O5    A    
C5    C6    A    
C22   H11   S    
C16   C17   A    
C11   H3    S    
C2    C20   A    
C24   H15   S    
C17   H5    S    
C23   H12   S    
C11   C13   S    
C2    C16   A    
C11   N1    D    
C8    C10   S    
C18   C19   A    
C19   C25   S    
C27   H21   S    
Cu2   O2    S    
Cu1   O7    S    
C3    C12   S    
Cu2   N1    S    
Cu2   O8    S    
C10   C26   S    
C26   H19   S    
C1    C7    S    
Cu2   O6    S    
C12   O3    A    
C22   H10   S    
C13   N2    D    
C4    H1    S    
C1    O1    A    
C3    C4    A    
C13   H2    S    
C4    C5    A    
C12   O4    A    
