data_mof_unit_49995.cif
_audit_creation_date              2012-12-10T18:45:03-0500
_audit_creation_method            fapswitch 2.2
_symmetry_space_group_name_H-M    P1
_symmetry_Int_Tables_number       1
_space_group_crystal_system       triclinic
_cell_length_a                    10.616048
_cell_length_b                    9.93046
_cell_length_c                    10.501317
_cell_angle_alpha                 90.940631
_cell_angle_beta                  92.048482
_cell_angle_gamma                 90.361071
_cell_volume                      1106.1894948

loop_
_atom_site_label
_atom_site_type_symbol
_atom_type_description
_atom_site_fract_x
_atom_site_fract_y
_atom_site_fract_z
_atom_type_partial_charge
C1    C     C_R   0.260558 0.499691 0.500473 0.967490
C2    C     C_R   0.739653 0.500501 0.502835 0.881102
C3    C     C_R   0.940101 0.568666 0.605561 0.223513
C4    C     C_R   0.070567 0.566295 0.606019 0.245018
C5    C     C_R   0.603716 0.069199 0.543409 0.263684
C6    C     C_R   0.399267 0.067947 0.449661 0.291059
C7    C     C_R   0.601450 0.927486 0.545651 -0.145853
C8    C     C_R   0.399520 0.925547 0.451085 -0.082018
C9    C     C_R   0.521595 0.498994 0.261945 0.881882
C10   C     C_R   0.520049 0.502875 0.740163 0.911951
C11   C     C_R   0.645543 0.736996 0.149877 -0.107146
C12   C     C_R   0.600083 0.763061 0.889451 -0.054370
C13   C     C_R   0.661251 0.861307 0.093855 -0.138064
C14   C     C_R   0.635455 0.874959 0.964415 -0.125337
C15   C     C_R   0.585833 0.633953 0.944022 0.111211
C16   C     C_R   0.600081 0.624205 0.077360 0.062856
C17   C     C_R   0.571683 0.499139 0.133354 -0.228181
C18   C     C_R   0.569082 0.511143 0.872962 -0.194835
C19   C     C_R   0.594749 0.379205 0.062058 0.150850
C20   C     C_R   0.612819 0.393001 0.931255 0.118922
C21   C     C_R   0.060118 0.434528 0.406593 -0.163604
C22   C     C_R   0.931183 0.434092 0.407777 -0.171756
C23   C     C_R   0.872320 0.501614 0.506085 -0.100316
C24   C     C_R   0.128406 0.499682 0.505259 -0.150932
H1    H     H_    0.674948 0.729023 0.249098 0.168191
H2    H     H_    0.596309 0.781228 0.789055 0.183787
H3    H     H_    0.695738 0.946414 0.150859 0.147281
H4    H     H_    0.649610 0.971101 0.920288 0.142715
H5    H     H_    0.106562 0.386487 0.327922 0.193926
H6    H     H_    0.877151 0.383779 0.331107 0.157250
H7    H     H_    0.683230 0.872846 0.580313 0.207682
H8    H     H_    0.319795 0.869395 0.410366 0.186194
N1    N     N_R   0.500000 0.857200 0.500000 -0.127925
N2    N     N_R   0.500000 0.142810 0.500000 -0.128964
O1    O     O_R   0.316770 0.614620 0.499990 -0.594416
O2    O     O_R   0.683230 0.614620 0.500010 -0.628368
O3    O     O_R   0.316800 0.385290 0.500000 -0.556733
O4    O     O_R   0.683200 0.385290 0.500000 -0.592777
O5    O     O_R   0.500010 0.614690 0.316770 -0.622308
O6    O     O_R   0.499990 0.614690 0.683230 -0.603158
O7    O     O_R   0.500040 0.385360 0.316770 -0.597603
O8    O     O_R   0.499960 0.385360 0.683230 -0.607940
Zn1   Zn    Zn3+2 0.500000 0.653120 0.500000 0.973311
Zn2   Zn    Zn3+2 0.500000 0.346880 0.500000 1.006715
C25   C     C_3   0.597869 0.238955 0.118905 -0.422256
C26   C     C_3   0.469073 0.170571 0.102682 -0.735859
H9    H     H_    0.393744 0.237262 0.137253 0.294278
H10   H     H_    0.448426 0.146257 0.000398 0.246627
H11   H     H_    0.468702 0.075551 0.156891 0.253025
H12   H     H_    0.666192 0.172991 0.072199 0.195488
H13   H     H_    0.633101 0.240100 0.219403 0.234064
C27   C     C_3   0.697857 0.298386 0.859731 -0.366659
C28   C     C_3   0.833779 0.303341 0.914177 -0.781451
H14   H     H_    0.873254 0.406453 0.905730 0.290675
H15   H     H_    0.840728 0.275279 0.015770 0.239775
H16   H     H_    0.892686 0.232681 0.859352 0.288673
H17   H     H_    0.659374 0.194427 0.857456 0.212011
H18   H     H_    0.705252 0.331110 0.760439 0.262424
Br1   Br    Br    0.856552 0.659000 0.741826 -0.514158
Br2   Br    Br    0.169013 0.648138 0.745664 -0.420230
Br3   Br    Br    0.767551 0.139763 0.587096 -0.518460
Br4   Br    Br    0.257988 0.144819 0.361227 -0.511953

loop_
_geom_bond_atom_site_label_1
_geom_bond_atom_site_label_2
_ccdc_geom_bond_type
C21   H5    S    
C15   C18   A    
O5    Zn1   S    
C19   C25   S    
O4    Zn2   S    
C13   C14   A    
C10   O8    A    
O1    Zn1   S    
C11   C16   A    
C2    O4    A    
C3    C23   A    
C19   C20   A    
C12   C15   A    
C1    O3    A    
C6    N2    A    
C5    N2    A    
C4    Br2   S    
O3    Zn2   S    
O8    Zn2   S    
C5    Br3   S    
C20   C27   S    
C21   C22   A    
C7    N1    A    
C26   H11   S    
C6    Br4   S    
C27   H18   S    
C25   H12   S    
C10   C18   S    
C9    C17   S    
C17   C19   A    
C12   C14   A    
C18   C20   A    
C8    N1    A    
C28   H15   S    
C4    C24   A    
O7    Zn2   S    
C26   H10   S    
C21   C24   A    
C7    H7    S    
C27   H17   S    
C25   H13   S    
C15   C16   A    
C8    H8    S    
C25   C26   S    
C11   C13   A    
N2    Zn2   S    
C27   C28   S    
C1    O1    A    
C1    C24   S    
C10   O6    A    
C26   H9    S    
C28   H16   S    
C2    O2    A    
C2    C23   S    
C5    C7    A    
C11   H1    S    
C22   C23   A    
C13   H3    S    
O2    Zn1   S    
C6    C8    A    
C22   H6    S    
C14   H4    S    
C28   H14   S    
C9    O7    A    
C9    O5    A    
C3    Br1   S    
C3    C4    A    
C12   H2    S    
C16   C17   A    
O6    Zn1   S    
N1    Zn1   S    
