data_mof_unit_61698.cif
_audit_creation_date              2012-12-11T15:04:12-0500
_audit_creation_method            fapswitch 2.2
_symmetry_space_group_name_H-M    P1
_symmetry_Int_Tables_number       1
_space_group_crystal_system       triclinic
_cell_length_a                    8.340824
_cell_length_b                    15.176239
_cell_length_c                    18.746009
_cell_angle_alpha                 99.811887
_cell_angle_beta                  91.264905
_cell_angle_gamma                 100.127886
_cell_volume                      2298.45443234

loop_
_atom_site_label
_atom_site_type_symbol
_atom_type_description
_atom_site_fract_x
_atom_site_fract_y
_atom_site_fract_z
_atom_type_partial_charge
Ba1   Ba    Ba6+2 0.854120 0.540280 0.465540 1.809028
Ba2   Ba    Ba6+2 0.335710 0.459790 0.534460 1.780824
C1    C     C_3   0.733206 0.860438 0.279234 0.685519
C2    C     C_R   0.889268 0.417173 0.095728 -0.013458
C3    C     C_R   0.726497 0.379145 0.074026 -0.024834
C4    C     C_3   0.158476 0.741149 0.261922 0.723913
C5    C     C_R   0.663100 0.379765 0.004437 0.379661
C6    C     C_R   0.763484 0.422273 0.954946 0.022114
C7    C     C_R   0.927355 0.462547 0.977217 0.053869
C8    C     C_R   0.704859 0.425456 0.884254 -0.052321
C9    C     C_R   0.808541 0.461037 0.833531 -0.056094
C10   C     C_R   0.970782 0.503147 0.856487 0.026092
C11   C     C_R   0.029297 0.504123 0.928592 0.089875
C12   C     C_3   0.685726 0.770290 0.306174 0.416586
C13   C     C_R   0.757159 0.452122 0.759592 -0.035039
C14   C     C_R   0.869694 0.482033 0.709777 0.136784
C15   C     C_R   0.024523 0.533028 0.733056 0.052154
C16   C     C_3   0.175473 0.791559 0.197443 0.723234
C17   C     C_R   0.075722 0.543604 0.807380 -0.120054
C18   C     C_R   0.154584 0.498357 0.069948 0.055495
C19   C     C_R   0.215473 0.497059 0.141352 0.031317
C20   C     C_R   0.109988 0.456302 0.190691 0.018416
C21   C     C_R   0.951118 0.412407 0.164930 -0.023033
C22   C     C_R   0.232443 0.589152 0.833403 -0.015456
C23   C     C_3   0.440498 0.284670 0.308876 0.685506
C24   C     C_R   0.294165 0.583167 0.901914 -0.014373
C25   C     C_R   0.193137 0.542073 0.950568 0.015751
C26   C     C_R   0.257126 0.538070 0.020499 -0.056190
C27   C     C_R   0.459516 0.613297 0.920062 -0.130308
C28   C     C_3   0.210599 0.749045 0.628658 0.686304
C29   C     C_R   0.527993 0.604441 0.986715 0.394366
C30   C     C_R   0.424648 0.571351 0.039688 0.020244
C31   C     C_R   0.380906 0.536382 0.163111 -0.028266
C32   C     C_R   0.485540 0.569707 0.110630 0.392990
C33   C     C_R   0.434298 0.541248 0.236913 -0.002211
C34   C     C_3   0.377603 0.226814 0.234739 0.169971
C35   C     C_R   0.326862 0.503185 0.284846 -0.320047
C36   C     C_R   0.165939 0.461629 0.264242 0.012701
C37   C     C_R   0.754975 0.234427 0.531457 -0.351974
C38   C     C_R   0.840287 0.179755 0.564395 -0.011858
C39   C     C_R   0.769128 0.087360 0.562998 0.262476
C40   C     C_3   0.219719 0.851434 0.651482 0.297955
C41   C     C_R   0.627186 0.046655 0.516693 0.042372
C42   C     C_R   0.531879 0.107739 0.495096 0.340597
C43   C     C_R   0.602199 0.199976 0.497042 -0.107631
C44   C     C_R   0.440380 0.904915 0.440350 0.368260
C45   C     C_3   0.011319 0.251385 0.738226 0.639392
C46   C     C_R   0.368475 0.811964 0.432673 -0.172531
C47   C     C_R   0.596400 0.785426 0.502857 0.130850
C48   C     C_R   0.664919 0.878286 0.512972 0.221982
C49   C     C_R   0.575946 0.942620 0.491099 -0.040075
C50   C     C_R   0.455545 0.751803 0.458241 0.087806
C51   C     C_3   0.912186 0.252538 0.365753 0.596565
C52   C     C_3   0.833928 0.154384 0.331227 0.703923
C53   C     C_3   0.725193 0.712446 0.701467 0.933231
C54   C     C_3   0.720272 0.770150 0.777583 0.683519
C55   C     C_3   0.106907 0.281827 0.811797 0.217992
C56   C     C_3   0.516437 0.227604 0.689923 0.334708
C57   C     C_3   0.473537 0.134611 0.711833 -0.314527
C58   C     C_R   0.990200 0.460037 0.047823 0.045363
H1    H     H_    0.553090 0.758955 0.314676 -0.086480
H2    H     H_    0.239935 0.884512 0.602937 0.011846
H3    H     H_    0.086241 0.936391 0.693405 0.303557
H4    H     H_    0.813939 0.290135 0.384231 -0.044225
H5    H     H_    0.026878 0.306762 0.457686 0.312088
H6    H     H_    0.803721 0.173916 0.231640 0.288652
H7    H     H_    0.755666 0.125056 0.371571 0.060854
H8    H     H_    0.017478 0.122517 0.275913 0.292680
H9    H     H_    0.877107 0.651732 0.647473 0.252982
H10   H     H_    0.642772 0.600438 0.735435 0.270578
H11   H     H_    0.810885 0.942512 0.368887 0.275181
H12   H     H_    0.292342 0.164304 0.242439 0.044646
H13   H     H_    0.792469 0.839955 0.778816 0.019249
H14   H     H_    0.907626 0.747982 0.830950 0.302364
H15   H     H_    0.526211 0.821666 0.765878 0.289680
H16   H     H_    0.674523 0.916680 0.199788 0.341657
H17   H     H_    0.338033 0.313775 0.334715 -0.009149
H18   H     H_    0.532978 0.386426 0.262787 0.281721
H19   H     H_    0.184695 0.267783 0.203289 0.300721
H20   H     H_    0.481787 0.204556 0.205391 0.147498
H21   H     H_    0.862346 0.868190 0.263332 0.000269
H22   H     H_    0.245167 0.771426 0.099165 0.315006
H23   H     H_    0.194601 0.345612 0.810696 0.096343
H24   H     H_    0.966134 0.311591 0.724595 -0.019993
H25   H     H_    0.920340 0.130669 0.756401 0.303156
H26   H     H_    0.961371 0.239513 0.883133 0.320797
H27   H     H_    0.178663 0.229523 0.822393 0.052177
H28   H     H_    0.649494 0.242088 0.682139 0.022907
H29   H     H_    0.447887 0.225364 0.637981 0.080744
H30   H     H_    0.507115 0.081821 0.669123 0.104271
H31   H     H_    0.067417 0.620023 0.276166 0.293951
H32   H     H_    0.340536 0.117754 0.719008 0.116930
H33   H     H_    0.647760 0.346835 0.111060 0.111198
H34   H     H_    0.540781 0.134339 0.763558 0.153949
H35   H     H_    0.494087 0.305496 0.936585 0.303679
H36   H     H_    0.770140 0.504425 0.624293 0.313627
H37   H     H_    0.872109 0.374833 0.198524 0.094838
H38   H     H_    0.312552 0.625653 0.799672 0.155594
H39   H     H_    0.748000 0.644722 0.956151 0.326019
H40   H     H_    0.672274 0.663722 0.123426 0.365067
H41   H     H_    0.282716 0.731762 0.278317 -0.117541
H42   H     H_    0.371777 0.502720 0.339294 0.101980
H43   H     H_    0.316830 0.917727 0.354261 0.335252
H44   H     H_    0.933700 0.066185 0.630085 0.328090
H45   H     H_    0.578490 0.399208 0.868132 0.091199
H46   H     H_    0.878845 0.944354 0.503480 0.321569
H47   H     H_    0.325317 0.111945 0.447268 0.356785
H48   H     H_    0.363291 0.647187 0.389240 0.261847
H49   H     H_    0.050954 0.795739 0.176450 -0.004954
H50   H     H_    0.192948 0.920317 0.235495 0.283873
H51   H     H_    0.326725 0.672377 0.566755 0.313922
H52   H     H_    0.104785 0.722713 0.590087 0.044067
H53   H     H_    0.537574 0.640194 0.880562 0.155252
H54   H     H_    0.808695 0.304717 0.531793 0.122468
H55   H     H_    0.755083 0.774257 0.358306 -0.025081
H56   H     H_    0.324000 0.879835 0.691665 0.026251
O1    O     O_2   0.871030 0.438240 0.324420 -0.426807
O2    O     O_2   0.170698 0.184106 0.550164 -0.425359
O3    O     O_3   0.116180 0.218000 0.686484 -0.648554
O4    O     O_3   0.120590 0.445310 0.413740 -0.481072
O5    O     O_3   0.582100 0.611510 0.537680 -0.424072
O6    O     O_2   0.334040 0.276520 0.462890 -0.431405
O7    O     O_3   0.500088 0.227301 0.350232 -0.637890
O8    O     O_2   0.422496 0.459942 0.756340 -0.502143
O9    O     O_3   0.472213 0.293457 0.744230 -0.614155
O10   O     O_3   0.663040 0.605930 0.370050 -0.470420
O11   O     O_2   0.764340 0.534057 0.246083 -0.404956
O12   O     O_3   0.682850 0.763457 0.650612 -0.607127
O13   O     O_3   0.002228 0.293044 0.314009 -0.690118
O14   O     O_3   0.725340 0.700426 0.254316 -0.569820
O15   O     O_2   0.855660 0.723510 0.537160 -0.458231
O16   O     O_3   0.086340 0.654970 0.406630 -0.474026
O17   O     O_2   0.045156 0.820107 0.457431 -0.443512
O18   O     O_3   0.074275 0.869191 0.681771 -0.691085
O19   O     O_3   0.016388 0.248207 0.423951 -0.733848
O20   O     O_3   0.733631 0.151623 0.269287 -0.716962
O21   O     O_3   0.952653 0.099673 0.314841 -0.705432
O22   O     O_3   0.883018 0.697059 0.692249 -0.779384
O23   O     O_3   0.084706 0.791156 0.318493 -0.673450
O24   O     O_3   0.615790 0.629951 0.694696 -0.715196
O25   O     O_3   0.715579 0.932948 0.333957 -0.694984
O26   O     O_3   0.787188 0.730302 0.830825 -0.758372
O27   O     O_3   0.558684 0.776710 0.793450 -0.704323
O28   O     O_3   0.631700 0.860307 0.218636 -0.650609
O29   O     O_3   0.568660 0.354536 0.300386 -0.714929
O30   O     O_3   0.301567 0.276910 0.192272 -0.765303
O31   O     O_3   0.252529 0.742447 0.142470 -0.712484
O32   O     O_3   0.876986 0.183001 0.743226 -0.757742
O33   O     O_3   0.001337 0.298498 0.867620 -0.748896
O34   O     O_2   0.318670 0.561790 0.675630 -0.406040
O35   O     O_3   0.058360 0.656603 0.238016 -0.698657
O36   O     O_3   0.503168 0.337530 0.987470 -0.718224
O37   O     O_3   0.830461 0.458064 0.636864 -0.726078
O38   O     O_3   0.695527 0.625779 0.999434 -0.715769
O39   O     O_3   0.648823 0.598512 0.127807 -0.654149
O40   O     O_3   0.400878 0.955059 0.389848 -0.639552
O41   O     O_3   0.818570 0.041244 0.614319 -0.680374
O42   O     O_3   0.827902 0.900234 0.533501 -0.627783
O43   O     O_3   0.365935 0.079185 0.483061 -0.664403
O44   O     O_3   0.404069 0.659504 0.440471 -0.699950
O45   O     O_3   0.069120 0.554770 0.586270 -0.496313
O46   O     O_3   0.269468 0.878920 0.218412 -0.693239
O47   O     O_3   0.351757 0.734726 0.595369 -0.815700
O48   O     O_3   0.526680 0.394150 0.629950 -0.442190
O49   O     O_3   0.199194 0.707164 0.689708 -0.591785
O50   O     O_3   0.607620 0.388570 0.462320 -0.441556
O51   O     O_3   0.103380 0.345110 0.593380 -0.458160
P1    P     P_3+3 0.038110 0.412300 0.335300 0.987363
P2    P     P_3+3 0.679950 0.711710 0.558590 1.182046
P3    P     P_3+3 0.149279 0.770178 0.402932 0.959256
P4    P     P_3+3 0.151600 0.587780 0.664700 1.055714
P5    P     P_3+3 0.052910 0.230316 0.599529 1.008244
P6    P     P_3+3 0.643077 0.594772 0.276534 1.065159
P7    P     P_3+3 0.514278 0.272912 0.443091 1.003627
P8    P     P_3+3 0.545261 0.401074 0.723632 0.980148

loop_
_geom_bond_atom_site_label_1
_geom_bond_atom_site_label_2
_ccdc_geom_bond_type
O49   P4    S    
O5    P2    S    
C53   C54   S    
H10   O24   S    
C37   C43   A    
C53   O12   S    
C22   H38   S    
C1    O25   S    
C16   H49   S    
H44   O41   S    
O17   P3    D    
Ba1   O16   S    
O7    P7    S    
H22   O31   S    
H50   O46   S    
C5    C6    A    
O8    P8    D    
C51   C52   S    
C48   O42   S    
C36   P1    S    
C24   C25   A    
C53   O22   S    
Ba2   O34   S    
O48   P8    S    
C23   H17   S    
C33   C35   A    
C22   C24   A    
C12   O14   S    
C35   H42   S    
C51   H4    S    
O10   P6    S    
C52   O21   S    
C19   C31   A    
O1    P1    D    
C13   C14   A    
C20   C36   A    
H39   O38   S    
O23   P3    S    
Ba1   Ba2   S    
C4    H41   S    
C4    O23   S    
C7    C11   A    
C27   H53   S    
H18   O29   S    
C15   C17   A    
C54   O27   S    
C9    C13   A    
H36   O37   S    
C14   C15   A    
C51   O19   S    
C1    H21   S    
H25   O32   S    
C57   H34   S    
C18   C58   A    
C40   H2    S    
O11   P6    D    
O3    P5    S    
H11   O25   S    
C54   O26   S    
C37   H54   S    
C45   O3    S    
H14   O26   S    
Ba1   O45   S    
O12   P2    S    
C19   C20   A    
C39   C41   A    
H8    O21   S    
O16   P3    S    
C28   O47   S    
Ba2   O45   S    
H46   O42   S    
C47   P2    S    
C48   C49   A    
H19   O30   S    
Ba2   O6    S    
O14   P6    S    
C4    C16   S    
C44   C46   A    
O50   P7    S    
C33   P6    S    
H3    O18   S    
C26   C30   A    
H51   O47   S    
Ba1   O10   S    
C16   O31   S    
C34   H20   S    
H26   O33   S    
Ba2   O48   S    
C37   C38   A    
C3    C5    A    
C2    C21   A    
Ba2   O4    S    
C6    C7    A    
C52   H7    S    
C18   C26   A    
Ba1   P1    S    
C56   C57   S    
C32   O39   S    
C12   H1    S    
C44   C49   A    
C53   O24   S    
C55   H27   S    
C55   O33   S    
C57   H30   S    
C30   C32   A    
C41   C42   A    
C35   C36   A    
C45   C55   S    
C3    H33   S    
O34   P4    D    
O2    P5    D    
C47   C50   A    
C52   O20   S    
C2    C58   A    
C55   H23   S    
C31   C32   A    
Ba1   O1    S    
C45   H24   S    
C10   C11   A    
C23   O7    S    
H5    O19   S    
C1    C12   S    
H15   O27   S    
C24   C27   A    
C39   O41   S    
C4    O35   S    
H16   O28   S    
H40   O39   S    
C40   H56   S    
C38   C39   A    
C21   H37   S    
H6    O20   S    
C51   O13   S    
O9    P8    S    
C38   P5    S    
C29   O38   S    
C42   C43   A    
O4    P1    S    
C46   P3    S    
Ba2   O5    S    
C34   O30   S    
H9    O22   S    
Ba2   O50   S    
C45   O32   S    
O15   P2    D    
C54   H13   S    
O13   P1    S    
C29   C30   A    
C28   C40   S    
C1    O28   S    
C28   O49   S    
C2    C3    A    
Ba1   O15   S    
C56   H28   S    
H47   O43   S    
C9    C10   A    
C15   P4    S    
O51   P5    S    
H48   O44   S    
C44   O40   S    
Ba2   P4    S    
C13   P8    S    
C40   O18   S    
C7    C58   A    
C17   C22   A    
C27   C29   A    
O6    P7    D    
C43   P7    S    
H31   O35   S    
C16   O46   S    
C41   C49   S    
Ba1   O50   S    
Ba2   O51   S    
C10   C17   A    
Ba1   P2    S    
C31   C33   A    
C57   H32   S    
C56   H29   S    
Ba1   O5    S    
C8    C9    A    
C23   C34   S    
C5    O36   S    
O45   P4    S    
C34   H12   S    
H43   O40   S    
C46   C50   A    
C18   C19   A    
C56   O9    S    
C6    C8    A    
C47   C48   A    
C28   H52   S    
C14   O37   S    
C42   O43   S    
C20   C21   A    
C11   C25   A    
C8    H45   S    
C23   O29   S    
H35   O36   S    
C50   O44   S    
Ba1   O4    S    
C12   H55   S    
C25   C26   A    
