data_mof_unit_55924.cif
_audit_creation_date              2012-12-11T15:18:31-0500
_audit_creation_method            fapswitch 2.2
_symmetry_space_group_name_H-M    P1
_symmetry_Int_Tables_number       1
_space_group_crystal_system       triclinic
_cell_length_a                    6.945045
_cell_length_b                    19.9195
_cell_length_c                    23.790348
_cell_angle_alpha                 93.601647
_cell_angle_beta                  91.307341
_cell_angle_gamma                 88.557044
_cell_volume                      3282.91442479

loop_
_atom_site_label
_atom_site_type_symbol
_atom_type_description
_atom_site_fract_x
_atom_site_fract_y
_atom_site_fract_z
_atom_type_partial_charge
O1    O     O_R   0.620100 0.812200 0.810870 -0.540209
O2    O     O_R   0.379900 0.187800 0.189130 -0.540209
O3    O     O_R   0.296960 0.671650 0.794750 -0.538378
O4    O     O_R   0.703040 0.328350 0.205250 -0.538378
O5    O     O_R   0.120160 0.687800 0.689130 -0.540091
O6    O     O_R   0.879840 0.312200 0.310870 -0.540091
C1    C     C_R   0.468770 0.647054 0.804609 0.696973
C2    C     C_R   0.531230 0.352945 0.195390 0.696973
O7    O     O_R   0.290810 0.810670 0.817290 -0.543662
O8    O     O_R   0.709190 0.189330 0.182710 -0.543662
O9    O     O_R   0.113980 0.827820 0.711840 -0.535900
O10   O     O_R   0.886020 0.172180 0.288160 -0.535900
C3    C     C_R   0.459510 0.832014 0.834165 0.708838
C4    C     C_R   0.540490 0.167986 0.165834 0.708838
O11   O     O_R   0.626290 0.672180 0.788160 -0.535923
O12   O     O_R   0.373710 0.327820 0.211840 -0.535923
O13   O     O_3   0.451520 0.755460 0.715370 -0.368868
O14   O     O_3   0.548480 0.244540 0.284630 -0.368868
V1    V     V_3+5 0.179200 0.748980 0.756420 1.411208
V2    V     V_3+5 0.820800 0.251020 0.243580 1.411208
O15   O     O_R   0.783880 0.828350 0.705250 -0.538317
O16   O     O_R   0.216120 0.171650 0.294750 -0.538317
C5    C     C_R   0.949752 0.852637 0.694803 0.693690
C6    C     C_R   0.050248 0.147363 0.305197 0.693689
O17   O     O_R   0.790030 0.689320 0.682700 -0.543571
O18   O     O_R   0.209970 0.310680 0.317300 -0.543571
C7    C     C_R   0.958972 0.668206 0.665655 0.707140
C8    C     C_R   0.041028 0.331793 0.334345 0.707139
V3    V     V_3+5 0.678400 0.751010 0.743570 1.412846
V4    V     V_3+5 0.321600 0.248990 0.256430 1.412846
O19   O     O_3   0.955950 0.744540 0.784620 -0.367404
O20   O     O_3   0.044050 0.255460 0.215380 -0.367404
C9    C     C_R   0.181313 0.425835 0.396408 -0.222525
C10   C     C_R   0.818686 0.574165 0.603591 -0.222525
C11   C     C_R   0.030883 0.380816 0.383968 -0.082703
C12   C     C_R   0.969117 0.619184 0.616032 -0.082703
C13   C     C_R   0.868483 0.383721 0.418535 -0.223594
C14   C     C_R   0.131516 0.616279 0.581465 -0.223594
C15   C     C_R   0.856322 0.430429 0.465182 0.089791
C16   C     C_R   0.143678 0.569571 0.534817 0.089791
C17   C     C_R   0.006350 0.476060 0.476816 0.052769
C18   C     C_R   0.993649 0.523940 0.523184 0.052769
C19   C     C_R   0.168906 0.473963 0.442112 0.090917
C20   C     C_R   0.831094 0.526037 0.557888 0.090917
C21   C     C_R   0.696640 0.432379 0.500434 -0.192555
C22   C     C_R   0.303359 0.567621 0.499566 -0.192555
C23   C     C_R   0.684323 0.479654 0.546404 -0.184637
C24   C     C_R   0.315677 0.520346 0.453596 -0.184637
H1    H     H_    0.306248 0.424346 0.369800 0.121188
H2    H     H_    0.693752 0.575654 0.630200 0.121188
H3    H     H_    0.752263 0.349072 0.409473 0.126249
H4    H     H_    0.247737 0.650928 0.590527 0.126249
H5    H     H_    0.580386 0.397581 0.492244 0.133381
H6    H     H_    0.419614 0.602419 0.507756 0.133381
H7    H     H_    0.559055 0.480219 0.572779 0.134592
H8    H     H_    0.440945 0.519781 0.427221 0.134592
C25   C     C_R   0.947709 0.914091 0.663166 -0.043341
C26   C     C_R   0.052291 0.085909 0.336834 -0.043341
C27   C     C_R   0.862858 0.032206 0.659513 -0.161242
C28   C     C_R   0.137142 0.967794 0.340487 -0.161242
C29   C     C_R   0.881110 0.974545 0.689498 -0.166433
C30   C     C_R   0.118890 0.025455 0.310502 -0.166433
C31   C     C_R   0.995435 0.911592 0.605846 -0.215246
C32   C     C_R   0.004565 0.088407 0.394154 -0.215247
C33   C     C_R   0.974205 0.969652 0.573756 0.086239
C34   C     C_R   0.025795 0.030348 0.426244 0.086239
C35   C     C_R   0.907100 0.030267 0.602146 0.139062
C36   C     C_R   0.092900 0.969732 0.397854 0.139061
C37   C     C_R   0.014026 0.969686 0.514655 0.057960
C38   C     C_R   0.985973 0.030314 0.485345 0.057960
C39   C     C_R   0.919751 0.088868 0.516160 -0.187288
C40   C     C_R   0.080249 0.911132 0.483840 -0.187288
C41   C     C_R   0.881780 0.088661 0.573178 -0.201331
C42   C     C_R   0.118220 0.911339 0.426822 -0.201330
H9    H     H_    0.830464 0.134965 0.594860 0.123151
H10   H     H_    0.169536 0.865035 0.405140 0.123150
H11   H     H_    0.956880 0.136619 0.412485 0.094329
H12   H     H_    0.043120 0.863380 0.587515 0.094329
H13   H     H_    0.158357 0.023065 0.266598 0.104177
H14   H     H_    0.841643 0.976935 0.733402 0.104177
H15   H     H_    0.810793 0.078428 0.681120 0.113227
H16   H     H_    0.189207 0.921572 0.318880 0.113227
H17   H     H_    0.894843 0.136175 0.497399 0.123139
H18   H     H_    0.105158 0.863824 0.502601 0.123139
C43   C     C_R   0.489877 0.585655 0.835856 -0.044556
C44   C     C_R   0.510122 0.414345 0.164144 -0.044556
C45   C     C_R   0.604110 0.470223 0.838093 -0.162330
C46   C     C_R   0.395890 0.529777 0.161907 -0.162330
C47   C     C_R   0.564939 0.527109 0.808391 -0.166049
C48   C     C_R   0.435061 0.472890 0.191609 -0.166049
C49   C     C_R   0.454838 0.587104 0.893892 -0.215526
C50   C     C_R   0.545162 0.412896 0.106107 -0.215526
C51   C     C_R   0.498640 0.530116 0.925690 0.085712
C52   C     C_R   0.501359 0.469883 0.074310 0.085712
C53   C     C_R   0.573626 0.471338 0.896249 0.139459
C54   C     C_R   0.426374 0.528662 0.103751 0.139459
C55   C     C_R   0.474429 0.529640 0.985500 0.057648
C56   C     C_R   0.525571 0.470360 0.014500 0.057648
C57   C     C_R   0.598267 0.413496 0.982688 -0.187293
C58   C     C_R   0.401732 0.586503 0.017311 -0.187293
C59   C     C_R   0.621060 0.414135 0.924945 -0.201217
C60   C     C_R   0.378940 0.585865 0.075055 -0.201217
H19   H     H_    0.678367 0.369227 0.902482 0.123325
H20   H     H_    0.321633 0.630773 0.097518 0.123325
H21   H     H_    0.599806 0.365976 0.087054 0.096124
H22   H     H_    0.400194 0.634023 0.912946 0.096124
H23   H     H_    0.404973 0.474293 0.236174 0.105288
H24   H     H_    0.595027 0.525707 0.763826 0.105288
H25   H     H_    0.662317 0.425471 0.815653 0.113328
H26   H     H_    0.337683 0.574529 0.184347 0.113328
H27   H     H_    0.640152 0.367244 0.001150 0.123312
H28   H     H_    0.359848 0.632755 0.998850 0.123312
C61   C     C_R   0.367778 0.077204 0.108452 -0.216669
C62   C     C_R   0.632222 0.922796 0.891548 -0.216669
C63   C     C_R   0.529350 0.118398 0.116582 -0.084221
C64   C     C_R   0.470650 0.881602 0.883417 -0.084220
C65   C     C_R   0.679297 0.111689 0.077617 -0.227949
C66   C     C_R   0.320703 0.888311 0.922383 -0.227949
C67   C     C_R   0.667634 0.065166 0.030787 0.091228
C68   C     C_R   0.332366 0.934834 0.969213 0.091228
C69   C     C_R   0.505909 0.023709 0.023340 0.053145
C70   C     C_R   0.494091 0.976291 0.976660 0.053146
C71   C     C_R   0.355954 0.029586 0.062486 0.088244
C72   C     C_R   0.644045 0.970414 0.937514 0.088244
C73   C     C_R   0.814680 0.059406 0.991145 -0.183504
C74   C     C_R   0.185320 0.940594 0.008854 -0.183504
C75   C     C_R   0.803107 0.012421 0.944971 -0.192475
C76   C     C_R   0.196893 0.987579 0.055029 -0.192475
H29   H     H_    0.252018 0.081518 0.138386 0.123106
H30   H     H_    0.747981 0.918482 0.861614 0.123106
H31   H     H_    0.803983 0.143276 0.083306 0.127342
H32   H     H_    0.196017 0.856724 0.916694 0.127342
H33   H     H_    0.939507 0.090977 0.996035 0.134854
H34   H     H_    0.060492 0.909022 0.003965 0.134854
H35   H     H_    0.919369 0.008679 0.915235 0.132026
H36   H     H_    0.080631 0.991321 0.084765 0.132026

loop_
_geom_bond_atom_site_label_1
_geom_bond_atom_site_label_2
_ccdc_geom_bond_type
C26   C30   A    
C34   C36   A    
C46   C54   A    
C54   C60   A    
C17   C19   A    
C17   C18   A    
O4    C2    A    
V1    O19   S    
C2    C44   S    
C31   C33   A    
C55   C56   A    
C43   C49   A    
C15   C17   A    
C34   C38   A    
C16   C22   A    
O9    V1    S    
C61   H29   S    
C11   C13   A    
C75   H35   S    
C48   H23   S    
O3    C1    A    
C76   H36   S    
C13   H3    S    
C68   C74   A    
C14   H4    S    
C52   C56   A    
C29   H14   S    
C36   C42   A    
C4    C63   S    
O13   V3    S    
C28   C30   A    
C32   H11   S    
C25   C29   A    
O7    C3    A    
C27   C35   A    
O5    C7    A    
C28   H16   S    
O7    V1    S    
O6    C8    A    
C8    C11   S    
O8    V2    S    
C33   C35   A    
C45   C53   A    
O3    V1    S    
C38   C39   A    
C35   C41   A    
V4    O20   S    
C19   C24   A    
C10   C12   A    
C20   C23   A    
C15   C21   A    
C62   C72   A    
C16   C18   A    
C21   H5    S    
C2    O12   A    
O17   V3    S    
C62   H30   S    
C49   H22   S    
C22   H6    S    
C18   C20   A    
O2    C4    A    
C50   C52   A    
C68   C70   A    
C45   H25   S    
O11   V3    S    
C39   H17   S    
C21   C23   A    
C26   C32   A    
C22   C24   A    
C27   C29   A    
C10   H2    S    
C9    C19   A    
C30   H13   S    
C10   C20   A    
C40   C42   A    
C44   C48   A    
C39   C41   A    
C43   C47   A    
C1    O11   A    
C63   C65   A    
O15   V3    S    
C32   C34   A    
C37   C40   A    
C52   C54   A    
C49   C51   A    
C61   C71   A    
V3    O19   S    
C57   H27   S    
O10   V2    S    
C5    C25   S    
O1    V3    S    
C60   H20   S    
C74   H34   S    
C69   C70   A    
C40   H18   S    
C67   C69   A    
C42   H10   S    
C72   C75   A    
O14   V4    S    
C67   C73   A    
C6    C26   S    
C57   C59   A    
C46   C48   A    
O18   V4    S    
O15   C5    A    
O8    C4    A    
O16   C6    A    
O1    C3    A    
C41   H9    S    
O12   V4    S    
C70   C72   A    
C12   C14   A    
C51   C55   A    
C55   C58   A    
C23   H7    S    
C58   C60   A    
V2    O20   S    
C73   H33   S    
C24   H8    S    
C74   C76   A    
O16   V4    S    
C27   H15   S    
C25   C31   A    
C62   C64   A    
C58   H28   S    
O5    V1    S    
C7    C12   S    
O17   C7    A    
O6    V2    S    
O10   C6    A    
O18   C8    A    
C59   H19   S    
O2    V4    S    
C65   C67   A    
C46   H26   S    
C13   C15   A    
C44   C50   A    
C14   C16   A    
C9    C11   A    
C71   C76   A    
C1    C43   S    
C33   C37   A    
C47   H24   S    
O9    C5    A    
O13   V1    S    
C64   C66   A    
O14   V2    S    
C37   C38   A    
C65   H31   S    
C66   C68   A    
C69   C71   A    
C3    C64   S    
C66   H32   S    
O4    V2    S    
C50   H21   S    
C28   C36   A    
C51   C53   A    
C56   C57   A    
C73   C75   A    
C45   C47   A    
C9    H1    S    
C53   C59   A    
C61   C63   A    
C31   H12   S    
