data_mof_unit_36793.cif
_audit_creation_date              2012-12-10T17:44:55-0500
_audit_creation_method            fapswitch 2.2
_symmetry_space_group_name_H-M    P1
_symmetry_Int_Tables_number       1
_space_group_crystal_system       triclinic
_cell_length_a                    15.04487
_cell_length_b                    13.707931
_cell_length_c                    19.403174
_cell_angle_alpha                 89.917097
_cell_angle_beta                  89.524594
_cell_angle_gamma                 88.933501
_cell_volume                      4000.7606809

loop_
_atom_site_label
_atom_site_type_symbol
_atom_type_description
_atom_site_fract_x
_atom_site_fract_y
_atom_site_fract_z
_atom_type_partial_charge
C1    C     C_R   0.328635 0.500807 0.500050 0.807658
C2    C     C_R   0.671201 0.499177 0.499107 0.788254
C3    C     C_R   0.811773 0.557971 0.544199 -0.202996
C4    C     C_R   0.188013 0.440644 0.454146 -0.197851
C5    C     C_R   0.904097 0.558515 0.544466 0.092036
C6    C     C_R   0.095410 0.440788 0.452702 0.093277
C7    C     C_R   0.952959 0.498345 0.498264 0.054040
C8    C     C_R   0.046317 0.501519 0.498218 0.050950
C9    C     C_R   0.908303 0.436252 0.451745 0.038171
C10   C     C_R   0.090664 0.565444 0.543536 0.038169
C11   C     C_R   0.947641 0.619996 0.589784 -0.241553
C12   C     C_R   0.051716 0.381046 0.406092 -0.235940
C13   C     C_R   0.040192 0.625447 0.589249 -0.007179
C14   C     C_R   0.958702 0.378158 0.404413 -0.022591
C15   C     C_R   0.432668 0.794440 0.532221 0.099541
C16   C     C_R   0.570770 0.205291 0.472758 0.086929
C17   C     C_R   0.568676 0.792102 0.469768 0.075427
C18   C     C_R   0.431064 0.208119 0.530039 0.088484
C19   C     C_R   0.572077 0.895075 0.471181 -0.124949
C20   C     C_R   0.430620 0.105049 0.533284 -0.152997
C21   C     C_R   0.432162 0.897647 0.535321 -0.147164
C22   C     C_R   0.573729 0.102148 0.473743 -0.122536
C23   C     C_R   0.502071 0.948207 0.503285 -0.059273
C24   C     C_R   0.502026 0.051735 0.503307 -0.053757
C25   C     C_R   0.644304 0.945562 0.442197 0.384906
C26   C     C_R   0.361477 0.054476 0.566773 0.397688
C27   C     C_R   0.363698 0.951392 0.569510 0.437957
C28   C     C_R   0.647403 0.048538 0.447294 0.366043
C29   C     C_R   0.500284 0.500051 0.367238 0.848095
C30   C     C_R   0.501965 0.499831 0.632765 0.856043
C31   C     C_R   0.480645 0.586238 0.253833 0.436081
C32   C     C_R   0.487393 0.413354 0.746521 0.433351
C33   C     C_R   0.530989 0.584599 0.744986 0.441017
C34   C     C_R   0.528394 0.414915 0.254275 0.435330
C35   C     C_R   0.481924 0.584979 0.181684 -0.241499
C36   C     C_R   0.486963 0.414904 0.818495 -0.241478
C37   C     C_R   0.533551 0.582591 0.817533 -0.259547
C38   C     C_R   0.528502 0.415310 0.182257 -0.233768
C39   C     C_R   0.506234 0.500143 0.145609 -0.082174
C40   C     C_R   0.509819 0.499025 0.854310 -0.071926
C41   C     C_R   0.502474 0.500201 0.290946 -0.248077
C42   C     C_R   0.506455 0.499363 0.709075 -0.240163
C43   C     C_R   0.509653 0.499315 0.930128 0.467905
C44   C     C_R   0.507459 0.499861 0.069800 0.469881
C45   C     C_R   0.814805 0.437361 0.452901 -0.227550
C46   C     C_R   0.184054 0.565218 0.542870 -0.195236
C47   C     C_R   0.767548 0.497539 0.498924 -0.069214
C48   C     C_R   0.232008 0.502502 0.498965 -0.066097
Cu1   Cu    Cu3+1 0.500000 0.597420 0.500000 0.983459
Cu2   Cu    Cu3+1 0.500000 0.402580 0.500000 0.973625
H1    H     H_    0.461798 0.650266 0.153972 0.180213
H2    H     H_    0.468302 0.349670 0.846227 0.178025
H3    H     H_    0.555857 0.645669 0.845493 0.170590
H4    H     H_    0.546877 0.348782 0.155193 0.181721
H5    H     H_    0.777214 0.394661 0.417201 0.174360
H6    H     H_    0.220481 0.610720 0.577883 0.167537
H7    H     H_    0.773915 0.604371 0.579458 0.158968
H8    H     H_    0.226205 0.393257 0.419791 0.152643
H9    H     H_    0.909022 0.666451 0.624519 0.172651
H10   H     H_    0.090576 0.335684 0.370833 0.178326
H11   H     H_    0.379064 0.753905 0.555085 0.164470
H12   H     H_    0.624921 0.245251 0.449996 0.170396
H13   H     H_    0.621070 0.750129 0.444567 0.166182
H14   H     H_    0.377012 0.250429 0.552631 0.178188
N1    N     N_R   0.508940 0.414490 0.034467 -0.235063
N2    N     N_R   0.508467 0.584695 0.965456 -0.239928
N3    N     N_R   0.509771 0.414223 0.965946 -0.240299
N4    N     N_R   0.507234 0.584963 0.033984 -0.240874
N5    N     N_R   0.500000 0.743810 0.500000 -0.199491
N6    N     N_R   0.500000 0.256190 0.500000 -0.204595
O1    O     O_R   0.370260 0.582280 0.500020 -0.583343
O2    O     O_R   0.629740 0.417720 0.499980 -0.602123
O3    O     O_R   0.629740 0.582280 0.499980 -0.590121
O4    O     O_R   0.370260 0.417720 0.500020 -0.593100
O5    O     O_R   0.499990 0.582300 0.400140 -0.548445
O6    O     O_R   0.500010 0.417700 0.599860 -0.549018
O7    O     O_R   0.500010 0.582300 0.599860 -0.544138
O8    O     O_R   0.499990 0.417700 0.400140 -0.535474
O9    O     O_3   0.449389 0.668840 0.287809 -0.541389
C49   C     C_3   0.514944 0.740954 0.284637 -0.266042
H15   H     H_    0.579801 0.713299 0.304835 0.142654
H16   H     H_    0.493126 0.803088 0.317636 0.190220
H17   H     H_    0.523296 0.769246 0.231297 0.150520
O10   O     O_3   0.463904 0.328747 0.713025 -0.573643
C50   C     C_3   0.536975 0.262638 0.714418 -0.301771
H18   H     H_    0.598622 0.296117 0.693664 0.167693
H19   H     H_    0.522250 0.199490 0.681006 0.168948
H20   H     H_    0.548337 0.234323 0.767412 0.159008
O11   O     O_3   0.561573 0.664299 0.707699 -0.551705
C51   C     C_3   0.528899 0.753698 0.734704 -0.308823
H21   H     H_    0.459151 0.749148 0.754010 0.144156
H22   H     H_    0.529680 0.808893 0.692841 0.183271
H23   H     H_    0.573229 0.779849 0.775961 0.171054
O12   O     O_3   0.549243 0.328959 0.288361 -0.552371
C52   C     C_3   0.642530 0.319250 0.291972 -0.272019
H24   H     H_    0.659118 0.251933 0.321281 0.211033
H25   H     H_    0.671841 0.381782 0.319764 0.140782
H26   H     H_    0.673071 0.311545 0.239793 0.160711
C53   C     C_2   0.080351 0.697670 0.635414 0.816247
O13   O     O_2   0.057579 0.701629 0.696029 -0.587271
O14   O     O_R   0.139515 0.765455 0.608735 -0.728017
H27   H     H_    0.154640 0.816601 0.644080 0.365781
C54   C     C_2   0.918256 0.314668 0.351596 0.820097
O15   O     O_2   0.950228 0.311505 0.293447 -0.579285
O16   O     O_R   0.846725 0.255449 0.368365 -0.783203
H28   H     H_    0.827090 0.214324 0.328063 0.344745
O17   O     O_3   0.715993 0.893551 0.414854 -0.576046
C55   C     C_3   0.714195 0.901576 0.342401 -0.269041
H29   H     H_    0.732378 0.976014 0.325265 0.209362
H30   H     H_    0.648335 0.882200 0.321209 0.116269
H31   H     H_    0.764178 0.849654 0.320388 0.188433
O18   O     O_3   0.287429 0.104722 0.591952 -0.549142
C56   C     C_3   0.302680 0.132347 0.660775 -0.277128
H32   H     H_    0.365328 0.173062 0.666372 0.167102
H33   H     H_    0.303106 0.068127 0.695568 0.172044
H34   H     H_    0.247429 0.181571 0.677768 0.203259
O19   O     O_3   0.296655 0.904569 0.604820 -0.533536
C57   C     C_3   0.328516 0.872832 0.669741 -0.361812
H35   H     H_    0.274728 0.883177 0.708618 0.196052
H36   H     H_    0.387068 0.913363 0.688894 0.118845
H37   H     H_    0.345073 0.793727 0.667825 0.177741
O20   O     O_3   0.723442 0.096092 0.426849 -0.584488
C58   C     C_3   0.781272 0.098595 0.483732 -0.211751
H38   H     H_    0.797474 0.024041 0.503395 0.176435
H39   H     H_    0.752717 0.144753 0.525872 0.133342
H40   H     H_    0.844835 0.131221 0.467267 0.225622

loop_
_geom_bond_atom_site_label_1
_geom_bond_atom_site_label_2
_ccdc_geom_bond_type
C18   N6    A    
N2    N4    A    
C9    C45   A    
O14   H27   S    
C58   H38   S    
C19   C23   A    
C52   H24   S    
Cu1   O3    S    
C14   C54   S    
C52   H26   S    
C7    C8    A    
C50   H18   S    
C25   C28   A    
C17   N5    A    
C26   C27   A    
C1    O1    A    
C33   C42   A    
C32   C36   A    
C5    C11   A    
C37   C40   A    
Cu2   O6    S    
Cu2   O4    S    
C6    C12   A    
C38   C39   A    
C11   H9    S    
C58   H39   S    
C55   H29   S    
Cu2   O2    S    
C57   H35   S    
C30   O7    A    
C40   C43   S    
C29   O8    A    
C20   C24   A    
Cu1   O7    S    
N1    N3    A    
C10   C46   A    
C23   C24   A    
Cu1   O5    S    
C18   C20   A    
C36   H2    S    
C56   H34   S    
C37   H3    S    
C50   H19   S    
C21   C27   A    
Cu1   N5    S    
C44   N1    A    
C34   C41   A    
C16   H12   S    
C49   H17   S    
C2    O2    A    
Cu2   O8    S    
O18   C56   S    
C45   C47   A    
C15   N5    A    
C46   C48   A    
C36   C40   A    
C16   N6    A    
O10   C50   S    
C4    C6    A    
C5    C7    A    
C58   H40   S    
C6    C8    A    
C33   C37   A    
C57   H37   S    
C13   C53   S    
C35   C39   A    
C9    C14   A    
C43   N3    A    
C33   O11   S    
C30   O6    A    
C51   H22   S    
C53   O13   D    
C38   H4    S    
O17   C55   S    
C15   H11   S    
C54   O16   S    
C2    O3    A    
C3    H7    S    
C49   H16   S    
C53   O14   S    
C12   C14   A    
C21   C23   A    
C35   H1    S    
C22   C24   A    
C44   N4    A    
C1    O4    A    
C4    H8    S    
O11   C51   S    
C26   O18   S    
C25   O17   S    
C51   H23   S    
C56   H32   S    
C4    C48   A    
C50   H20   S    
C7    C9    A    
C16   C22   A    
C31   C41   A    
C29   C41   S    
C34   C38   A    
C34   O12   S    
C32   O10   S    
C49   H15   S    
C3    C5    A    
C10   C13   A    
C52   H25   S    
C1    C48   S    
C31   O9    S    
C39   C44   S    
C29   O5    A    
C2    C47   S    
O16   H28   S    
C55   H31   S    
Cu2   N6    S    
O19   C57   S    
C17   H13   S    
C11   C13   A    
C18   H14   S    
C51   H21   S    
C20   C26   A    
C43   N2    A    
C31   C35   A    
C3    C47   A    
C17   C19   A    
C55   H30   S    
C28   O20   S    
O12   C52   S    
C19   C25   A    
C57   H36   S    
O9    C49   S    
C12   H10   S    
C15   C21   A    
C45   H5    S    
C8    C10   A    
Cu1   Cu2   S    
Cu1   O1    S    
C46   H6    S    
C54   O15   D    
C32   C42   A    
C30   C42   S    
C22   C28   A    
C27   O19   S    
O20   C58   S    
C56   H33   S    
