data_mof_unit_38331.cif
_audit_creation_date              2013-03-05T16:11:19-0500
_audit_creation_method            fapswitch 2.2
_symmetry_space_group_name_H-M    P1
_symmetry_Int_Tables_number       1
_space_group_crystal_system       triclinic
_cell_length_a                    15.823032
_cell_length_b                    10.998195
_cell_length_c                    9.630549
_cell_angle_alpha                 88.805423
_cell_angle_beta                  88.841425
_cell_angle_gamma                 90.891648
_cell_volume                      1675.03330634

loop_
_atom_site_label
_atom_site_type_symbol
_atom_site_description
_atom_site_fract_x
_atom_site_fract_y
_atom_site_fract_z
_atom_type_partial_charge
O1    O     O_R   0.500050 0.317570 0.620260 -0.556562
O2    O     O_R   0.499980 0.317810 0.379740 -0.574879
C1    C     C_R   0.500751 0.259996 0.501283 0.863657
O3    O     O_R   0.379110 0.499870 0.620240 -0.531373
O4    O     O_R   0.379040 0.500110 0.379720 -0.602395
C2    C     C_R   0.340388 0.499797 0.501132 0.833811
Cu1   Cu    Cu3+1 0.500040 0.499860 0.642410 1.006962
Cu2   Cu    Cu3+1 0.499960 0.500140 0.357590 1.032071
O5    O     O_R   0.500020 0.682190 0.620260 -0.635823
O6    O     O_R   0.499950 0.682430 0.379740 -0.540905
O7    O     O_R   0.620960 0.499890 0.620280 -0.592565
O8    O     O_R   0.620890 0.500130 0.379760 -0.549627
C3    C     C_R   0.491736 0.738594 0.500771 0.800514
C4    C     C_R   0.659600 0.500637 0.498827 0.868935
C5    C     C_3   0.970537 0.385965 0.471593 -0.165018
C6    C     C_3   0.030519 0.465259 0.375194 -0.218585
H1    H     H_    0.056452 0.439038 0.272292 0.196200
H2    H     H_    0.945957 0.293290 0.450178 0.205667
C7    C     C_1   0.250651 0.499549 0.503334 -0.042920
C8    C     C_1   0.749328 0.500341 0.496475 -0.024511
C9    C     C_3   0.024003 0.421321 0.596469 0.365179
C10   C     C_3   0.083266 0.498560 0.502437 0.037100
C11   C     C_3   0.969077 0.532341 0.625809 -0.189857
C12   C     C_3   0.916635 0.499018 0.498382 0.053981
C13   C     C_3   0.029021 0.611447 0.529157 -0.210055
C14   C     C_3   0.975355 0.576959 0.403384 -0.004013
C15   C     C_1   0.175011 0.499144 0.503548 0.077471
C16   C     C_1   0.824935 0.499777 0.496487 0.051243
H3    H     H_    0.053753 0.703907 0.551306 0.193454
H4    H     H_    0.943289 0.557916 0.729026 0.195772
C17   C     C_3   0.500470 0.066672 0.658305 0.116914
H5    H     H_    0.561438 0.096297 0.703280 0.168626
C18   C     C_3   0.500641 0.924444 0.657908 -0.326094
H6    H     H_    0.563477 0.893953 0.693953 0.183778
H7    H     H_    0.359714 0.124106 0.481783 0.196237
C19   C     C_3   0.414702 0.076506 0.436580 -0.408686
C20   C     C_3   0.578273 0.064877 0.424509 0.507475
C21   C     C_3   0.498375 0.120959 0.504050 -0.234609
C22   C     C_3   0.487413 0.876972 0.506165 -0.181110
C23   C     C_3   0.402675 0.934035 0.446452 0.206998
C24   C     C_3   0.565167 0.924034 0.420052 -0.418694
H8    H     H_    0.622659 0.874367 0.450969 0.194435
H9    H     H_    0.556272 0.896168 0.312210 0.264571
H10   H     H_    0.411801 0.112652 0.330111 0.256745
C25   C     C_3   0.540886 0.618713 0.078109 0.210236
C26   C     C_3   0.548141 0.611086 0.911315 -0.208092
H11   H     H_    0.518660 0.692678 0.867301 0.163539
H12   H     H_    0.604918 0.381876 0.859789 0.224423
C27   C     C_3   0.552259 0.397537 0.079091 0.178828
C28   C     C_3   0.414535 0.483851 0.088317 -0.209174
N1    N     N_3   0.501840 0.500250 0.143650 -0.292279
H13   H     H_    0.370268 0.546373 0.137970 0.222287
N2    N     N_3   0.501160 0.503300 0.856280 -0.253993
C29   C     C_3   0.543537 0.394470 0.914671 -0.248052
C30   C     C_3   0.413552 0.507469 0.924707 0.225922
H14   H     H_    0.389966 0.600493 0.906243 0.157175
H15   H     H_    0.525662 0.309995 0.118428 0.189593
H16   H     H_    0.507979 0.312118 0.888252 0.223955
C31   C     C_1   0.438063 0.871809 0.759601 0.429158
N3    N     N_1   0.387052 0.833244 0.836726 -0.128225
C32   C     C_1   0.327431 0.907908 0.537811 0.313282
N4    N     N_1   0.267685 0.887333 0.606251 -0.186697
N5    N     N_R   0.591100 0.105958 0.278513 0.147635
O9    O     O_R   0.528912 0.102326 0.192681 -0.325509
O10   O     O_R   0.666639 0.094773 0.224306 -0.225754
N6    N     N_R   0.655945 0.098014 0.500036 0.111493
O11   O     O_R   0.681942 0.210836 0.499561 -0.336015
O12   O     O_R   0.698826 0.018137 0.569842 -0.346626
N7    N     N_R   0.380868 0.881839 0.312018 0.164867
O13   O     O_R   0.340280 0.777631 0.312479 -0.339367
O14   O     O_R   0.380817 0.948317 0.198539 -0.200711
C33   C     C_1   0.624844 0.644021 0.140052 0.408133
N8    N     N_1   0.690090 0.666729 0.186334 -0.223288
N9    N     N_R   0.492300 0.730328 0.105131 0.122147
O15   O     O_R   0.411780 0.732956 0.085548 -0.305876
O16   O     O_R   0.531883 0.834376 0.085741 -0.330672
C34   C     C_1   0.635866 0.624923 0.855794 0.370333
N10   N     N_1   0.704711 0.637933 0.814415 -0.219097
N11   N     N_R   0.642125 0.396449 0.118377 0.137321
O17   O     O_R   0.701881 0.432572 0.031476 -0.356097
O18   O     O_R   0.664386 0.331247 0.224807 -0.241106
C35   C     C_1   0.375325 0.365314 0.132484 0.380639
N12   N     N_1   0.343897 0.273449 0.166339 -0.182320
N13   N     N_R   0.348868 0.430536 0.862378 0.146497
O19   O     O_R   0.360805 0.316099 0.843778 -0.251985
O20   O     O_R   0.272394 0.471420 0.851938 -0.315859
C36   C     C_1   0.947237 0.663007 0.296118 0.324968
N14   N     N_1   0.924964 0.730817 0.211504 -0.184672
N15   N     N_R   0.049327 0.334598 0.703654 0.140615
O21   O     O_R   0.991888 0.275893 0.777930 -0.283309
O22   O     O_R   0.128797 0.313889 0.724475 -0.260716
N16   N     N_R   0.434927 0.111650 0.754173 0.160258
O23   O     O_R   0.451723 0.110330 0.886041 -0.275706
O24   O     O_R   0.355770 0.109482 0.720611 -0.291629

loop_
_geom_bond_atom_site_label_1
_geom_bond_atom_site_label_2
_geom_bond_distance
_ccdc_geom_bond_type
C5    H2    1.110118 S    
N6    O12   1.302469 A    
C30   H14   1.106626 S    
N5    O10   1.303196 A    
C24   H8    1.110957 S    
H7    C19   1.108588 S    
C36   N14   1.157107 T    
Cu1   Cu2   2.742935 S    
C22   C24   1.546077 S    
C9    N15   1.457179 S    
N2    C29   1.486829 S    
H12   C29   1.108297 S    
C2    C7    1.419607 S    
C18   C22   1.578861 S    
N9    O16   1.304116 A    
C12   C14   1.530758 S    
O4    C2    1.308467 A    
O7    C4    1.308623 A    
C25   N1    1.549999 S    
C27   C29   1.593240 S    
C27   H15   1.101528 S    
N7    O14   1.302178 A    
O5    C3    1.305790 A    
C1    C21   1.528700 S    
C6    H1    1.110314 S    
C27   N1    1.528531 S    
C10   C13   1.543358 S    
C28   H13   1.098751 S    
C11   C12   1.542503 S    
C17   C18   1.564379 S    
N15   O22   1.300197 A    
C7    C15   1.196755 T    
N6    O11   1.301044 A    
C31   N3    1.155441 T    
C18   C31   1.481218 S    
C9    C10   1.526378 S    
C25   C33   1.491858 S    
C13   H3    1.110291 S    
C24   H9    1.100103 S    
C32   N4    1.158128 T    
O3    Cu1   1.929643 S    
C20   N5    1.476946 S    
C18   H6    1.113999 S    
N2    C30   1.524552 S    
C6    C14   1.543530 S    
N9    O15   1.292396 A    
N5    O9    1.298529 A    
C11   H4    1.110200 S    
C4    C8    1.419547 S    
C19   C23   1.576158 S    
N13   O19   1.291227 A    
O3    C2    1.311340 A    
C23   N7    1.472315 S    
C22   C23   1.601447 S    
N11   O18   1.296419 A    
C14   C36   1.466846 S    
C8    C16   1.196458 T    
C13   C14   1.543646 S    
C34   N10   1.158081 T    
C23   C32   1.486828 S    
C27   N11   1.478972 S    
C25   N9    1.483325 S    
O1    C1    1.320572 A    
Cu1   O7    1.920859 S    
C20   C21   1.603218 S    
C26   C34   1.481829 S    
C17   H5    1.112391 S    
Cu2   O8    1.929643 S    
C20   N6    1.485138 S    
N16   O24   1.299826 A    
C28   N1    1.500289 S    
Cu2   N1    2.059948 S    
C5    C12   1.541899 S    
O8    C4    1.310969 A    
C17   N16   1.472740 S    
C10   C15   1.451847 S    
C9    C11   1.537389 S    
C19   H10   1.094065 S    
Cu1   N2    2.061252 S    
C28   C35   1.485431 S    
C29   H16   1.095977 S    
Cu1   O5    2.012195 S    
C26   H11   1.098963 S    
C6    C10   1.543682 S    
O1    Cu1   2.020596 S    
O2    Cu2   2.012192 S    
C12   C16   1.451606 S    
N13   O20   1.302490 A    
C33   N8    1.158486 T    
O6    C3    1.335461 A    
O4    Cu2   1.920861 S    
C28   C30   1.591998 S    
C17   C21   1.590625 S    
C19   C21   1.562691 S    
O2    C1    1.320749 A    
N15   O21   1.300286 A    
C26   N2    1.501174 S    
N16   O23   1.302554 A    
C11   C13   1.558156 S    
C20   C24   1.561227 S    
N7    O13   1.304896 A    
C3    C22   1.526419 S    
N11   O17   1.301802 A    
C25   C26   1.612121 S    
C5    C9    1.537411 S    
Cu2   O6    2.020598 S    
C35   N12   1.156921 T    
C30   N13   1.463850 S    
C5    C6    1.558221 S    
