data_mof_unit_56009.cif
_audit_creation_date              2012-12-10T18:20:33-0500
_audit_creation_method            fapswitch 2.2
_symmetry_space_group_name_H-M    P1
_symmetry_Int_Tables_number       1
_space_group_crystal_system       triclinic
_cell_length_a                    14.190935
_cell_length_b                    13.591539
_cell_length_c                    14.897661
_cell_angle_alpha                 88.370726
_cell_angle_beta                  90.175532
_cell_angle_gamma                 82.562588
_cell_volume                      2848.01864582

loop_
_atom_site_label
_atom_site_type_symbol
_atom_type_description
_atom_site_fract_x
_atom_site_fract_y
_atom_site_fract_z
_atom_type_partial_charge
C1    C     C_R   0.499733 0.500585 0.327422 0.912501
C2    C     C_R   0.422190 0.348605 0.956345 -0.033612
C3    C     C_R   0.809679 0.417897 0.531536 0.259235
C4    C     C_R   0.190327 0.582134 0.468509 0.257585
C5    C     C_R   0.789937 0.581483 0.468082 0.233648
C6    C     C_R   0.210065 0.418437 0.531713 0.245931
C7    C     C_R   0.888408 0.588221 0.483333 0.007514
C8    C     C_R   0.111578 0.411746 0.516477 0.006839
C9    C     C_R   0.949838 0.499762 0.500080 -0.015220
C10   C     C_R   0.050153 0.500228 0.499821 -0.016994
C11   C     C_R   0.910483 0.411044 0.517638 -0.082100
C12   C     C_R   0.500274 0.499390 0.672588 0.912315
C13   C     C_R   0.089507 0.588960 0.482325 -0.081965
C14   C     C_R   0.926933 0.679893 0.482702 0.114395
C15   C     C_R   0.073024 0.320084 0.517048 0.113469
C16   C     C_R   0.517404 0.314501 0.500250 0.896558
C17   C     C_R   0.482596 0.685499 0.499757 0.896349
C18   C     C_R   0.027195 0.680256 0.479687 -0.012910
C19   C     C_R   0.972769 0.319739 0.520211 -0.014618
C20   C     C_1   0.468621 0.789233 0.500240 -0.210186
C21   C     C_1   0.531377 0.210767 0.499804 -0.210666
C22   C     C_2   0.458234 0.981390 0.501453 0.196705
C23   C     C_R   0.500999 0.499288 0.953300 -0.048302
C24   C     C_2   0.541761 0.018608 0.498654 0.196043
C25   C     C_1   0.540107 0.122894 0.499265 0.028105
C26   C     C_1   0.459888 0.877105 0.500812 0.028615
C27   C     C_R   0.489143 0.411459 0.815927 0.115367
C28   C     C_R   0.511312 0.588189 0.184032 0.107819
C29   C     C_R   0.501181 0.499056 0.768234 -0.074020
C30   C     C_R   0.498894 0.500765 0.231799 -0.075051
C31   C     C_R   0.515733 0.585945 0.811446 0.093916
C32   C     C_R   0.484386 0.413814 0.188673 0.095551
C33   C     C_R   0.533077 0.579392 0.904339 0.102414
C34   C     C_R   0.499634 0.500166 0.046749 -0.046915
C35   C     C_R   0.467366 0.420201 0.095731 0.105290
C36   C     C_3   0.636974 0.954641 0.494078 -0.910419
C37   C     C_3   0.363022 0.045357 0.506043 -0.909104
C38   C     C_3   0.505406 0.312918 0.769107 -0.865058
C39   C     C_3   0.495358 0.686847 0.230682 -0.861380
C40   C     C_3   0.502970 0.684448 0.759231 -0.870117
C41   C     C_3   0.496865 0.315402 0.241046 -0.875520
C42   C     C_3   0.654476 0.703028 0.899629 -0.815274
C43   C     C_3   0.345580 0.297030 0.100266 -0.814062
C44   C     C_2   0.637297 0.716139 0.091677 0.919292
C45   C     C_R   0.471184 0.417855 0.908382 0.014393
C46   C     C_2   0.363883 0.283172 0.908039 0.925660
C47   C     C_3   0.770227 0.341714 0.591051 -0.781294
C48   C     C_3   0.229804 0.658361 0.409064 -0.779756
C49   C     C_3   0.736077 0.653535 0.401316 -0.760759
C50   C     C_3   0.263982 0.346144 0.598216 -0.785280
C51   C     C_3   0.863025 0.775880 0.500804 -0.838570
C52   C     C_3   0.136862 0.224121 0.498705 -0.837995
C53   C     C_2   0.065684 0.776333 0.486757 0.905825
C54   C     C_2   0.934244 0.223674 0.513213 0.906249
C55   C     C_R   0.529514 0.581559 0.091648 0.008621
C56   C     C_R   0.583126 0.647460 0.949289 0.099875
C57   C     C_R   0.417393 0.352126 0.050763 0.093161
C58   C     C_R   0.578807 0.650598 0.043703 -0.027438
H1    H     H_    0.696253 0.000687 0.493235 0.256163
H2    H     H_    0.430851 0.690189 0.273095 0.219770
H3    H     H_    0.556895 0.696038 0.274207 0.253477
H4    H     H_    0.481653 0.750493 0.182103 0.252155
H5    H     H_    0.436020 0.691472 0.719387 0.244537
H6    H     H_    0.495760 0.748698 0.803994 0.262376
H7    H     H_    0.563064 0.689008 0.712400 0.239527
H8    H     H_    0.563816 0.308257 0.280896 0.244185
H9    H     H_    0.436728 0.311127 0.287882 0.240713
H10   H     H_    0.503867 0.251049 0.196402 0.260574
H11   H     H_    0.626966 0.783085 0.892224 0.270878
H12   H     H_    0.646724 0.903075 0.553524 0.243842
H13   H     H_    0.723192 0.694883 0.936657 0.243650
H14   H     H_    0.672639 0.672329 0.832870 0.242140
H15   H     H_    0.327558 0.327593 0.167098 0.243278
H16   H     H_    0.276891 0.305869 0.063153 0.244537
H17   H     H_    0.372543 0.216809 0.107442 0.265604
H18   H     H_    0.672944 0.853804 0.105577 0.350691
H19   H     H_    0.265528 0.271860 0.812217 0.342182
H20   H     H_    0.747224 0.281446 0.551244 0.263421
H21   H     H_    0.710401 0.375942 0.631003 0.255683
H22   H     H_    0.824024 0.309230 0.641484 0.209105
H23   H     H_    0.640935 0.911060 0.431956 0.242218
H24   H     H_    0.289702 0.624187 0.369169 0.255779
H25   H     H_    0.176057 0.690819 0.358576 0.209830
H26   H     H_    0.252715 0.718639 0.448923 0.263174
H27   H     H_    0.785681 0.684286 0.353813 0.236141
H28   H     H_    0.689710 0.615245 0.358854 0.274149
H29   H     H_    0.694158 0.716422 0.434491 0.230215
H30   H     H_    0.214361 0.315356 0.645650 0.222153
H31   H     H_    0.305713 0.283290 0.564831 0.233986
H32   H     H_    0.310552 0.384197 0.640688 0.278029
H33   H     H_    0.845726 0.818853 0.437109 0.263696
H34   H     H_    0.303742 0.999313 0.506869 0.256279
H35   H     H_    0.797018 0.761671 0.535641 0.231902
H36   H     H_    0.897277 0.822452 0.547864 0.255031
H37   H     H_    0.202755 0.238387 0.463693 0.232277
H38   H     H_    0.154352 0.181058 0.562321 0.262175
H39   H     H_    0.102464 0.177610 0.451700 0.255190
H40   H     H_    0.148294 0.858429 0.555593 0.348824
H41   H     H_    0.851493 0.141601 0.444519 0.348406
H42   H     H_    0.359062 0.088914 0.568179 0.242432
H43   H     H_    0.353271 0.096945 0.446612 0.243104
H44   H     H_    0.569910 0.309912 0.726719 0.219793
H45   H     H_    0.519369 0.249181 0.817546 0.251339
H46   H     H_    0.443986 0.303586 0.725485 0.253236
N1    N     N_R   0.750030 0.500040 0.500070 -0.105684
N2    N     N_R   0.249970 0.499960 0.499930 -0.106000
O1    O     O_R   0.580280 0.500020 0.367860 -0.609969
O2    O     O_R   0.629486 0.817238 0.068355 -0.797093
O3    O     O_2   0.370233 0.194694 0.928218 -0.616389
O4    O     O_R   0.301190 0.323493 0.840040 -0.801277
O5    O     O_2   0.042392 0.843659 0.431734 -0.611630
O6    O     O_R   0.126943 0.790042 0.557701 -0.793069
O7    O     O_2   0.957629 0.156337 0.568201 -0.612660
O8    O     O_R   0.872854 0.209983 0.442369 -0.793761
O9    O     O_R   0.419720 0.499980 0.632140 -0.607787
O10   O     O_R   0.419730 0.500030 0.367840 -0.632244
O11   O     O_R   0.580270 0.499970 0.632160 -0.632836
O12   O     O_R   0.591830 0.359650 0.500030 -0.606162
O13   O     O_R   0.408170 0.640350 0.499970 -0.606194
O14   O     O_R   0.431280 0.359660 0.500010 -0.617612
O15   O     O_R   0.568720 0.640340 0.499990 -0.617938
O16   O     O_2   0.692782 0.681241 0.150809 -0.628281
Zn1   Zn    Zn3+2 0.607200 0.499990 0.500020 0.946645
Zn2   Zn    Zn3+2 0.392800 0.500010 0.499980 0.947438

loop_
_geom_bond_atom_site_label_1
_geom_bond_atom_site_label_2
_ccdc_geom_bond_type
C43   H15   S    
C37   H43   S    
C16   C21   S    
C23   C45   A    
C12   C29   S    
C27   C29   A    
C49   H29   S    
C47   H21   S    
C36   H1    S    
H41   O8    S    
C2    C57   A    
C41   H9    S    
C5    N1    A    
O13   Zn2   S    
C3    N1    A    
C15   C19   A    
C11   C19   A    
C24   C36   S    
C40   H5    S    
C13   C18   A    
C16   O14   A    
C27   C38   S    
C54   O7    D    
C52   H39   S    
C17   C20   S    
C31   C40   S    
N1    Zn1   S    
C52   H37   S    
C34   C35   A    
C44   O16   D    
C4    C13   A    
C14   C18   A    
C1    C30   S    
C38   H46   S    
C18   C53   S    
C42   C56   S    
C50   H32   S    
C7    C14   A    
C44   C58   S    
C23   C33   A    
C32   C41   S    
C31   C33   A    
C1    O10   A    
O1    Zn1   S    
C9    C10   A    
C50   H30   S    
C12   O9    A    
C51   H33   S    
C53   O5    D    
C33   C56   A    
C34   C55   A    
H18   O2    S    
C5    C49   S    
C47   H22   S    
C28   C55   A    
C36   H12   S    
C41   H10   S    
C44   O2    S    
C2    C45   A    
C43   H17   S    
C39   H3    S    
H40   O6    S    
C32   C35   A    
C49   H27   S    
C24   C25   S    
C5    C7    A    
C43   C57   S    
C6    C8    A    
C28   C39   S    
C22   C37   S    
C4    N2    A    
C42   H11   S    
C2    C46   S    
C48   H26   S    
C38   H45   S    
C16   O12   A    
C50   H31   S    
C14   C51   S    
C48   H24   S    
C36   H23   S    
C23   C34   A    
C42   H14   S    
C6    N2    A    
C15   C52   S    
C6    C50   S    
C9    C11   A    
C1    O1    A    
C19   C54   S    
C17   O15   A    
C51   H35   S    
C8    C15   A    
C40   H7    S    
C46   O4    S    
C22   C24   D    
C55   C58   A    
C53   O6    S    
C4    C48   S    
C7    C9    A    
C39   H4    S    
C21   C25   T    
O9    Zn2   S    
O10   Zn2   S    
C37   H34   S    
C49   H28   S    
C8    C10   A    
C10   C13   A    
C41   H8    S    
C40   H6    S    
C48   H25   S    
C35   C57   A    
C28   C30   A    
O11   Zn1   S    
C38   H44   S    
C30   C32   A    
C27   C45   A    
C20   C26   T    
C43   H16   S    
C39   H2    S    
C54   O8    S    
C3    C47   S    
C42   H13   S    
C56   C58   A    
C52   H38   S    
O12   Zn1   S    
H19   O4    S    
O15   Zn1   S    
C3    C11   A    
C17   O13   A    
C51   H36   S    
C12   O11   A    
C29   C31   A    
C22   C26   S    
C46   O3    D    
N2    Zn2   S    
C47   H20   S    
C37   H42   S    
O14   Zn2   S    
