data_mof_unit_38143.cif
_audit_creation_date              2012-12-10T16:52:09-0500
_audit_creation_method            fapswitch 2.2
_symmetry_space_group_name_H-M    P1
_symmetry_Int_Tables_number       1
_space_group_crystal_system       triclinic
_cell_length_a                    7.843197
_cell_length_b                    8.541235
_cell_length_c                    14.90694
_cell_angle_alpha                 92.2758
_cell_angle_beta                  84.838942
_cell_angle_gamma                 93.590518
_cell_volume                      992.040310188

loop_
_atom_site_label
_atom_site_type_symbol
_atom_type_description
_atom_site_fract_x
_atom_site_fract_y
_atom_site_fract_z
_atom_type_partial_charge
C1    C     C_R   0.545414 0.794402 0.497794 0.966962
C2    C     C_R   0.582110 0.625401 0.811577 0.409542
C3    C     C_R   0.500027 0.501735 0.232262 -0.240533
C4    C     C_R   0.499973 0.498265 0.767737 -0.240532
C5    C     C_R   0.586672 0.626372 0.185834 0.250413
C6    C     C_R   0.413328 0.373628 0.814166 0.250412
C7    C     C_R   0.588375 0.625722 0.092190 0.048834
C8    C     C_R   0.411625 0.374277 0.907810 0.048834
C9    C     C_R   0.500673 0.500293 0.046921 -0.009125
C10   C     C_R   0.499327 0.499706 0.953079 -0.009125
C11   C     C_R   0.413990 0.375503 0.095330 0.012279
C12   C     C_R   0.454586 0.205598 0.502206 0.966964
C13   C     C_R   0.586009 0.624496 0.904670 0.012277
C14   C     C_R   0.674893 0.747516 0.042769 -0.156597
C15   C     C_R   0.325107 0.252484 0.957231 -0.156596
C16   C     C_3   0.451141 0.137251 0.246336 -0.206234
C17   C     C_3   0.548856 0.862749 0.753664 -0.206232
C18   C     C_R   0.674227 0.746492 0.950006 -0.172629
C19   C     C_R   0.325772 0.253508 0.049994 -0.172630
C20   C     C_2   0.569296 0.957998 0.496351 -0.331794
C21   C     C_2   0.430704 0.042002 0.503649 -0.331800
C22   C     C_R   0.500298 0.499148 0.672460 0.986018
C23   C     C_R   0.499702 0.500851 0.327539 0.986020
C24   C     C_R   0.417889 0.374599 0.188422 0.409542
Cl1   Cl    Cl    0.688282 0.783776 0.246525 -0.649541
Cl2   Cl    Cl    0.311719 0.216224 0.753475 -0.649542
Cl3   Cl    Cl    0.038506 0.316851 0.403030 -0.420677
Cl4   Cl    Cl    0.961494 0.683148 0.596970 -0.420676
H1    H     H_    0.743938 0.844664 0.074874 0.201898
H2    H     H_    0.500251 0.912635 0.820541 0.167122
H3    H     H_    0.439606 0.816811 0.715632 0.169550
H4    H     H_    0.616493 0.959975 0.715019 0.221366
H5    H     H_    0.256061 0.155336 0.925126 0.201897
H6    H     H_    0.742884 0.842202 0.914039 0.199004
H7    H     H_    0.257115 0.157798 0.085961 0.199002
H8    H     H_    0.700352 0.008702 0.489258 0.222017
H9    H     H_    0.299648 0.991298 0.510742 0.222017
H10   H     H_    0.560407 0.183192 0.284355 0.169547
H11   H     H_    0.499720 0.087347 0.179460 0.167129
H12   H     H_    0.383510 0.040037 0.284995 0.221363
N1    N     N_2   0.950330 0.457950 0.475660 0.132677
N2    N     N_2   0.049670 0.542050 0.524340 0.132677
O1    O     O_R   0.389250 0.738570 0.505970 -0.624762
O2    O     O_3   0.665718 0.746327 0.762410 -0.578189
O3    O     O_R   0.610750 0.261430 0.494030 -0.624760
O4    O     O_R   0.678390 0.711620 0.490370 -0.563178
O5    O     O_R   0.321610 0.288380 0.509630 -0.563179
O6    O     O_R   0.355420 0.513510 0.639950 -0.592778
O7    O     O_R   0.644580 0.486490 0.360050 -0.592778
O8    O     O_R   0.644560 0.486560 0.624350 -0.569964
O9    O     O_R   0.355440 0.513440 0.375650 -0.569963
O10   O     O_3   0.334281 0.253674 0.237590 -0.578188
Zn1   Zn    Zn3+2 0.306940 0.517990 0.510420 1.128318
Zn2   Zn    Zn3+2 0.693060 0.482010 0.489580 1.128319

loop_
_geom_bond_atom_site_label_1
_geom_bond_atom_site_label_2
_ccdc_geom_bond_type
C24   O10   S    
C2    C4    A    
C18   H6    S    
C9    C10   A    
Cl3   N1    S    
C23   O9    A    
C22   O8    A    
O5    Zn1   S    
O4    Zn2   S    
O1    Zn1   S    
C17   O2    S    
C21   H9    S    
O8    Zn2   S    
C15   C19   A    
C17   H2    S    
C9    C11   A    
N1    Zn2   S    
C11   C19   A    
C3    C24   A    
C6    Cl2   S    
C13   C18   A    
C16   H12   S    
C12   O5    A    
C5    Cl1   S    
C6    C8    A    
C8    C10   A    
C11   C24   A    
C15   H5    S    
O3    Zn2   S    
C8    C15   A    
C5    C7    A    
N2    Zn1   S    
O6    Zn1   S    
C17   H3    S    
C1    O4    A    
C23   O7    A    
C17   H4    S    
C16   H11   S    
O7    Zn2   S    
C20   H8    S    
C22   O6    A    
C4    C22   S    
C20   C21   D    
C4    C6    A    
N1    N2    D    
Cl4   N2    S    
C7    C9    A    
C2    C13   A    
C14   C18   A    
C1    C20   S    
C19   H7    S    
C14   H1    S    
C3    C5    A    
C3    C23   S    
C12   C21   S    
C1    O1    A    
C7    C14   A    
C2    O2    S    
C16   O10   S    
C16   H10   S    
C12   O3    A    
O9    Zn1   S    
C10   C13   A    
