data_mof_unit_9603.cif
_audit_creation_date              2012-12-11T14:52:45-0500
_audit_creation_method            fapswitch 2.2
_symmetry_space_group_name_H-M    P1
_symmetry_Int_Tables_number       1
_space_group_crystal_system       triclinic
_cell_length_a                    20.59869
_cell_length_b                    7.257192
_cell_length_c                    20.376991
_cell_angle_alpha                 89.981134
_cell_angle_beta                  101.390353
_cell_angle_gamma                 89.982251
_cell_volume                      2986.13324913

loop_
_atom_site_label
_atom_site_type_symbol
_atom_type_description
_atom_site_fract_x
_atom_site_fract_y
_atom_site_fract_z
_atom_type_partial_charge
O1    O     O_R   0.673670 0.377510 0.185950 -0.523333
O2    O     O_R   0.326330 0.622490 0.814050 -0.523572
O3    O     O_R   0.826330 0.877510 0.314050 -0.524146
O4    O     O_R   0.173670 0.122490 0.685950 -0.523948
O5    O     O_R   0.806260 0.705340 0.185590 -0.534521
O6    O     O_R   0.193740 0.294660 0.814410 -0.534481
O7    O     O_R   0.693740 0.205340 0.314410 -0.534396
O8    O     O_R   0.306260 0.794660 0.685590 -0.534432
C1    C     C_R   0.825605 0.538591 0.170834 0.731884
C2    C     C_R   0.174395 0.461409 0.829166 0.732042
C3    C     C_R   0.674393 0.038590 0.329163 0.732291
C4    C     C_R   0.325607 0.961410 0.670837 0.732175
O9    O     O_R   0.672940 0.707120 0.178050 -0.542115
O10   O     O_R   0.327060 0.292880 0.821950 -0.542018
O11   O     O_R   0.827060 0.207120 0.321950 -0.541727
O12   O     O_R   0.172940 0.792880 0.678050 -0.541810
O13   O     O_R   0.692060 0.879040 0.306460 -0.533222
O14   O     O_R   0.307940 0.120960 0.693540 -0.533152
O15   O     O_R   0.807940 0.379040 0.193540 -0.532893
O16   O     O_R   0.192060 0.620960 0.806460 -0.532972
C5    C     C_R   0.649153 0.539095 0.161178 0.771232
C6    C     C_R   0.350844 0.460908 0.838819 0.771261
C7    C     C_R   0.850820 0.038985 0.338837 0.771232
C8    C     C_R   0.149178 0.961012 0.661161 0.771209
O17   O     O_3   0.756430 0.544390 0.292140 -0.372109
O18   O     O_3   0.243570 0.455610 0.707860 -0.371994
O19   O     O_3   0.743570 0.044390 0.207860 -0.371590
O20   O     O_3   0.256430 0.955610 0.792140 -0.371728
V1    V     V_3+5 0.748810 0.818610 0.242180 1.539213
V2    V     V_3+5 0.251190 0.181390 0.757820 1.539448
V3    V     V_3+5 0.751190 0.318610 0.257820 1.540277
V4    V     V_3+5 0.248810 0.681390 0.742180 1.539970
C9    C     C_R   0.087892 0.967404 0.608417 -0.205246
C10   C     C_R   0.912106 0.032548 0.391571 -0.205240
C11   C     C_R   0.412115 0.466972 0.891592 -0.205519
C12   C     C_R   0.587884 0.533084 0.108394 -0.205532
C13   C     C_R   0.029923 0.101207 0.426274 0.262185
C14   C     C_R   0.970136 0.898043 0.573623 0.262311
C15   C     C_R   0.470560 0.607392 0.072923 0.262653
C16   C     C_R   0.529513 0.393478 0.926951 0.262470
C17   C     C_R   0.971578 0.099221 0.376978 0.057215
C18   C     C_R   0.028468 0.900113 0.622934 0.057440
C19   C     C_R   0.528762 0.604276 0.122393 0.058656
C20   C     C_R   0.471299 0.396536 0.877493 0.058333
C21   C     C_R   0.910625 0.965966 0.456242 0.367302
C22   C     C_R   0.089349 0.034317 0.543779 0.367266
C23   C     C_R   0.589115 0.463171 0.044121 0.367236
C24   C     C_R   0.410850 0.536455 0.955911 0.367302
C25   C     C_R   0.969655 0.965240 0.507585 -0.087573
C26   C     C_R   0.030358 0.034589 0.492380 -0.087553
C27   C     C_R   0.530191 0.463409 0.992643 -0.087623
C28   C     C_R   0.469824 0.536763 0.007319 -0.087649
C29   C     C_3   0.559875 0.042476 0.534843 0.402712
C30   C     C_3   0.440128 0.957522 0.465160 0.402710
C31   C     C_3   0.940114 0.542453 0.965145 0.402595
C32   C     C_3   0.059889 0.457549 0.034858 0.402598
C33   C     C_3   0.519621 0.870167 0.545863 0.367153
C34   C     C_3   0.480382 0.129831 0.454140 0.367172
C35   C     C_3   0.980423 0.370148 0.954185 0.367205
C36   C     C_3   0.019580 0.629854 0.045818 0.367185
H1    H     H_    0.504696 0.700420 0.444327 0.232758
H2    H     H_    0.495307 0.299578 0.555676 0.232766
H3    H     H_    0.995402 0.200435 0.055778 0.232926
H4    H     H_    0.004601 0.799567 0.944225 0.232920
C37   C     C_1   0.371168 0.970344 0.625044 -0.096686
C38   C     C_1   0.628833 0.029656 0.374957 -0.096518
C39   C     C_1   0.128836 0.470340 0.874962 -0.097140
C40   C     C_1   0.871166 0.529660 0.125039 -0.097323
C41   C     C_3   0.497350 0.164396 0.530712 -0.301962
C42   C     C_3   0.502653 0.835602 0.469291 -0.301934
C43   C     C_3   0.002601 0.664391 0.969235 -0.301687
C44   C     C_3   0.997402 0.335611 0.030768 -0.301720
C45   C     C_3   0.457199 0.990089 0.541277 -0.146195
C46   C     C_3   0.542804 0.009909 0.458726 -0.146218
C47   C     C_3   0.042807 0.490089 0.958730 -0.146196
C48   C     C_3   0.957196 0.509913 0.041273 -0.146169
C49   C     C_1   0.409762 0.978857 0.587158 0.175147
C50   C     C_1   0.590240 0.021141 0.412844 0.175187
C51   C     C_1   0.090244 0.478854 0.912849 0.175124
C52   C     C_1   0.909758 0.521147 0.087153 0.175075
Cl1   Cl    Cl    0.167902 0.109423 0.530537 -0.552320
Cl2   Cl    Cl    0.831955 0.892419 0.469656 -0.552172
Cl3   Cl    Cl    0.332419 0.613305 0.968963 -0.552131
Cl4   Cl    Cl    0.667401 0.384450 0.031288 -0.552317
N1    N     N_3   0.025846 0.833814 0.688845 -0.640457
H5    H     H_    0.056998 0.719497 0.699542 0.240341
H6    H     H_    0.042633 0.937709 0.723603 0.244188
N2    N     N_3   0.974233 0.164961 0.311004 -0.640377
H7    H     H_    0.943135 0.279355 0.300199 0.240275
H8    H     H_    0.957388 0.060869 0.276347 0.244190
N3    N     N_3   0.473813 0.327821 0.811881 -0.641005
H9    H     H_    0.442364 0.214080 0.801613 0.240735
H10   H     H_    0.457390 0.431000 0.776672 0.244108
N4    N     N_3   0.526289 0.673699 0.187923 -0.641120
H11   H     H_    0.557793 0.787356 0.198058 0.240848
H12   H     H_    0.542638 0.570784 0.223262 0.244101
N5    N     N_3   0.088600 0.173448 0.407865 -0.510764
H13   H     H_    0.099332 0.095550 0.368158 0.295426
H14   H     H_    0.079725 0.309748 0.391890 0.272110
N6    N     N_3   0.911564 0.824602 0.591884 -0.510960
H15   H     H_    0.900656 0.901813 0.631671 0.295768
H16   H     H_    0.920678 0.688255 0.607702 0.271633
N7    N     N_3   0.412441 0.685953 0.090496 -0.511871
H17   H     H_    0.400848 0.611909 0.130697 0.296345
H18   H     H_    0.422505 0.822535 0.105473 0.270262
N8    N     N_3   0.587764 0.316307 0.909191 -0.511610
H19   H     H_    0.599193 0.391304 0.869127 0.295932
H20   H     H_    0.577946 0.179828 0.893949 0.270834
Cl5   Cl    Cl    0.546106 0.696262 0.606991 -0.505312
Cl6   Cl    Cl    0.453896 0.303737 0.393012 -0.505226
Cl7   Cl    Cl    0.953994 0.196221 0.893113 -0.505599
Cl8   Cl    Cl    0.046008 0.803780 0.106891 -0.505657
Cl9   Cl    Cl    0.639821 0.099190 0.581638 -0.407228
Cl10  Cl    Cl    0.360182 0.900808 0.418364 -0.407398
Cl11  Cl    Cl    0.860151 0.599132 0.918327 -0.407908
Cl12  Cl    Cl    0.139853 0.400871 0.081675 -0.407658

loop_
_geom_bond_atom_site_label_1
_geom_bond_atom_site_label_2
_ccdc_geom_bond_type
H1    C42   S    
C40   C52   T    
O1    C5    A    
C31   C35   S    
O19   V1    S    
O13   V1    S    
O3    C7    A    
C29   C46   S    
C44   C48   S    
O15   V3    S    
C13   N5    S    
N5    H13   S    
C14   C25   A    
C2    C39   S    
O7    C3    A    
C6    C11   S    
C31   Cl11  S    
C9    C18   A    
O9    V1    S    
C14   C18   A    
C30   C34   S    
O4    C8    A    
N8    H19   S    
C22   Cl1   S    
O1    V3    S    
C19   N4    S    
C12   C23   A    
O2    V4    S    
H4    C43   S    
C33   C45   S    
O3    V1    S    
C42   C46   S    
C1    O15   A    
C33   Cl5   S    
C21   Cl2   S    
C2    O16   A    
C32   C44   S    
O2    C6    A    
C35   Cl7   S    
C41   C45   S    
O14   V2    S    
C33   C42   S    
C16   C20   A    
C3    C38   S    
C35   C44   S    
O11   C7    A    
C15   C28   A    
C29   C41   S    
O12   C8    A    
C32   C47   S    
C9    C22   A    
C10   C17   A    
O10   V2    S    
C11   C24   A    
N5    H14   S    
C29   Cl9   S    
O5    V1    S    
N1    H6    S    
C38   C50   T    
O7    V3    S    
C27   C28   A    
O8    V4    S    
C37   C49   T    
C14   N6    S    
N3    H9    S    
C5    C12   S    
C29   C33   S    
O18   V4    S    
C15   C19   A    
C36   C43   S    
N1    H5    S    
O11   V3    S    
C36   C48   S    
C32   C36   S    
H2    C41   S    
O5    C1    A    
C36   Cl8   S    
N3    H10   S    
C30   C45   S    
C30   C42   S    
C21   C25   A    
O8    C4    A    
C7    C10   S    
N6    H16   S    
C32   Cl12  S    
O9    C5    A    
N7    H18   S    
C18   N1    S    
C23   Cl4   S    
N2    H7    S    
N4    H12   S    
C11   C20   A    
C20   N3    S    
C10   C21   A    
C31   C48   S    
O6    V2    S    
N2    H8    S    
C35   C47   S    
C34   C46   S    
C16   N8    S    
O16   V4    S    
C17   N2    S    
C3    O13   A    
C34   Cl6   S    
O17   V3    S    
C48   C52   S    
O6    C2    A    
C23   C27   A    
C34   C41   S    
C15   N7    S    
O12   V4    S    
C16   C27   A    
C4    C37   S    
C22   C26   A    
C8    C9    S    
C24   Cl3   S    
O10   C6    A    
O20   V2    S    
C1    C40   S    
C43   C47   S    
C13   C26   A    
N8    H20   S    
C30   Cl10  S    
N6    H15   S    
C13   C17   A    
N4    H11   S    
C31   C43   S    
C24   C28   A    
H3    C44   S    
C25   C26   A    
C46   C50   S    
C4    O14   A    
N7    H17   S    
C45   C49   S    
C12   C19   A    
C47   C51   S    
C39   C51   T    
O4    V2    S    
