data_mof_unit_18260.cif
_audit_creation_date              2012-12-10T17:08:41-0500
_audit_creation_method            fapswitch 2.2
_symmetry_space_group_name_H-M    P1
_symmetry_Int_Tables_number       1
_space_group_crystal_system       triclinic
_cell_length_a                    27.825935
_cell_length_b                    11.030309
_cell_length_c                    9.805206
_cell_angle_alpha                 111.177833
_cell_angle_beta                  97.447355
_cell_angle_gamma                 91.328145
_cell_volume                      2774.58881952

loop_
_atom_site_label
_atom_site_type_symbol
_atom_type_description
_atom_site_fract_x
_atom_site_fract_y
_atom_site_fract_z
_atom_type_partial_charge
C1    C     C_R   0.496490 0.254055 0.440569 0.883185
C2    C     C_R   0.869005 0.380680 0.451154 -0.006668
C3    C     C_R   0.354482 0.495822 0.503840 -0.176271
C4    C     C_R   0.645371 0.501208 0.495880 -0.153940
C5    C     C_R   0.970630 0.376384 0.451458 0.083316
C6    C     C_R   0.029241 0.614107 0.558525 0.083185
C7    C     C_R   0.979275 0.614552 0.575356 -0.034014
C8    C     C_R   0.021920 0.374777 0.457818 -0.034186
C9    C     C_R   0.949684 0.496432 0.515718 0.085317
C10   C     C_R   0.050806 0.493569 0.505146 0.084882
C11   C     C_R   0.939412 0.261711 0.381319 -0.190511
C12   C     C_R   0.503499 0.745946 0.559435 0.887275
C13   C     C_R   0.058368 0.730583 0.591981 -0.180849
C14   C     C_R   0.889663 0.264029 0.381647 -0.107198
C15   C     C_R   0.107662 0.728915 0.583028 -0.123553
C16   C     C_R   0.407471 0.497265 0.501448 0.862231
C17   C     C_R   0.592489 0.502218 0.498476 0.860719
C18   C     C_R   0.045293 0.257782 0.422793 -0.247200
C19   C     C_R   0.958424 0.729321 0.654455 -0.247886
C20   C     C_2   0.494601 0.114625 0.407033 -0.300779
C21   C     C_2   0.505387 0.885378 0.592978 -0.304122
C22   C     C_2   0.500797 0.069595 0.516576 -0.113131
C23   C     C_R   0.101588 0.492152 0.499379 -0.092943
C24   C     C_2   0.499193 0.930412 0.483438 -0.108943
C25   C     C_2   0.502400 0.514930 0.081942 0.006958
C26   C     C_2   0.498152 0.484057 0.918060 0.008678
C27   C     C_R   0.174531 0.377997 0.444410 0.603294
C28   C     C_R   0.826289 0.612467 0.581943 0.603200
C29   C     C_R   0.179885 0.610456 0.536076 0.566509
C30   C     C_R   0.818780 0.382240 0.450982 0.566107
C31   C     C_R   0.275789 0.544973 0.403754 -0.060930
C32   C     C_R   0.722984 0.443487 0.591710 -0.064725
C33   C     C_R   0.326036 0.544667 0.408526 -0.251720
C34   C     C_R   0.898789 0.498142 0.519532 -0.095211
C35   C     C_R   0.672802 0.445846 0.586339 -0.241368
C36   C     C_R   0.331154 0.444911 0.594465 0.421000
C37   C     C_R   0.669568 0.556087 0.410334 0.362637
C38   C     C_R   0.280758 0.448032 0.589876 -0.141730
C39   C     C_R   0.719992 0.551310 0.415744 -0.173741
C40   C     C_R   0.253000 0.496797 0.494619 0.244095
C41   C     C_R   0.746705 0.496420 0.506685 0.271495
C42   C     C_R   0.124187 0.372661 0.454654 -0.163899
C43   C     C_R   0.877679 0.616453 0.590817 -0.161415
C44   C     C_R   0.095501 0.254601 0.423930 0.445856
C45   C     C_R   0.908939 0.732088 0.666524 0.447705
C46   C     C_R   0.129798 0.611174 0.539429 -0.006717
Cu1   Cu    Cu3+1 0.508480 0.521810 0.644910 1.026813
Cu2   Cu    Cu3+1 0.491520 0.478190 0.355090 1.018428
H1    H     H_    0.511788 0.951662 0.707904 0.152942
H2    H     H_    0.342807 0.583488 0.337649 0.193337
H3    H     H_    0.743528 0.401125 0.662620 0.169469
H4    H     H_    0.254528 0.582313 0.329085 0.174859
H5    H     H_    0.867327 0.173323 0.325852 0.208690
H6    H     H_    0.128435 0.821095 0.610711 0.211916
H7    H     H_    0.952194 0.168835 0.320361 0.164699
H8    H     H_    0.043751 0.824854 0.621394 0.171478
H9    H     H_    0.025025 0.166912 0.401046 0.206233
H10   H     H_    0.980922 0.818110 0.714378 0.207494
H11   H     H_    0.492862 0.864402 0.368308 0.186057
H12   H     H_    0.488199 0.048338 0.292108 0.153761
H13   H     H_    0.507131 0.135606 0.631706 0.183795
H14   H     H_    0.342668 0.248545 0.826081 0.379260
H15   H     H_    0.691265 0.802075 0.358444 0.365157
H16   H     H_    0.093757 0.910855 0.387377 0.377011
H17   H     H_    0.924331 0.063633 0.948320 0.379337
H18   H     H_    0.474781 0.400228 0.843651 0.208028
H19   H     H_    0.526157 0.597969 0.156400 0.212180
H20   H     H_    0.542735 0.634615 0.936333 0.227255
H21   H     H_    0.456852 0.366197 0.063729 0.214470
H22   H     H_    0.262477 0.411184 0.659570 0.205713
H23   H     H_    0.739058 0.591713 0.350514 0.189704
H24   H     H_    0.655266 0.403658 0.653021 0.189467
N1    N     N_R   0.201150 0.495238 0.489843 -0.467384
N2    N     N_R   0.798567 0.496821 0.514422 -0.468792
N3    N     N_2   0.478780 0.445430 0.137360 -0.288007
N4    N     N_2   0.521220 0.554570 0.862640 -0.283358
O1    O     O_R   0.504520 0.332330 0.577400 -0.574628
O2    O     O_2   0.803557 0.722314 0.636741 -0.431111
O3    O     O_2   0.790089 0.270278 0.385566 -0.504389
O4    O     O_2   0.207336 0.724224 0.580276 -0.499688
O5    O     O_2   0.399118 0.286249 0.632854 -0.323917
O6    O     O_2   0.387001 0.478214 0.848691 -0.319571
O7    O     O_3   0.322711 0.281176 0.757227 -0.499849
O8    O     O_2   0.615628 0.534116 0.156773 -0.275313
O9    O     O_2   0.601659 0.717821 0.377221 -0.328750
O10   O     O_3   0.679459 0.731687 0.262052 -0.485807
O11   O     O_2   0.136319 0.048794 0.248173 -0.213588
O12   O     O_R   0.495480 0.667670 0.422600 -0.572990
O13   O     O_2   0.161759 0.116004 0.516164 -0.220512
O14   O     O_3   0.077225 0.992466 0.403905 -0.554788
O15   O     O_2   0.859717 0.944337 0.694088 -0.221843
O16   O     O_2   0.860685 0.856879 0.892109 -0.230059
O17   O     O_3   0.938294 0.985849 0.882827 -0.544558
O18   O     O_R   0.490210 0.295500 0.332650 -0.583227
O19   O     O_R   0.509790 0.704500 0.667350 -0.581184
O20   O     O_R   0.437420 0.518430 0.622370 -0.519386
O21   O     O_R   0.562580 0.481570 0.377630 -0.523485
O22   O     O_R   0.423110 0.481600 0.377610 -0.581234
O23   O     O_R   0.576890 0.518400 0.622390 -0.576572
O24   O     O_2   0.196974 0.268218 0.386020 -0.419739
S1    S     S_3+6 0.362189 0.372019 0.710586 -0.004894
S2    S     S_3+6 0.639516 0.635734 0.299923 0.007563
S3    S     S_3+6 0.119604 0.100706 0.397076 0.061855
S4    S     S_3+6 0.890038 0.882023 0.785328 0.057658

loop_
_geom_bond_atom_site_label_1
_geom_bond_atom_site_label_2
_ccdc_geom_bond_type
H14   O7    S    
C38   H22   S    
C1    O1    A    
C25   H19   S    
H16   O14   S    
C31   H4    S    
C28   N2    A    
C21   H1    S    
C39   C41   A    
O5    S1    D    
C40   N1    S    
Cu2   O21   S    
C23   C42   A    
Cu2   O18   S    
Cu1   N4    S    
C5    C11   A    
C37   S2    S    
C30   N2    A    
C11   C14   A    
C29   N1    A    
C3    C33   A    
Cu1   O19   S    
Cu1   O23   S    
C31   C40   A    
C41   N2    S    
C1    O18   A    
C26   N4    D    
Cu1   O20   S    
Cu2   O12   S    
C12   O19   A    
C20   H12   S    
C28   O2    S    
O15   S4    D    
O8    S2    D    
C13   H8    S    
C2    C34   A    
H17   O17   S    
C4    C35   A    
C23   C46   A    
O13   S3    D    
Cu2   N3    S    
C42   C44   A    
O17   S4    S    
C44   S3    S    
C19   H10   S    
C27   O24   S    
C16   O20   A    
C12   O12   A    
C26   H18   S    
C32   C35   A    
C33   H2    S    
C12   C21   S    
O9    S2    D    
C8    C18   A    
C36   S1    S    
C25   N3    D    
C15   H6    S    
C32   H3    S    
C5    C9    A    
C45   S4    S    
C18   C44   A    
C43   C45   A    
C18   H9    S    
Cu1   Cu2   S    
C32   C41   A    
C31   C33   A    
C17   O23   A    
O11   S3    D    
C30   O3    S    
C20   C22   D    
C35   H24   S    
C7    C19   A    
C13   C15   A    
H15   O10   S    
C9    C34   A    
C22   C24   S    
C4    C17   S    
O10   S2    S    
C11   H7    S    
C7    C9    A    
C1    C20   S    
C39   H23   S    
O7    S1    S    
C34   C43   A    
C6    C10   A    
C5    C8    A    
C19   C45   A    
C6    C7    A    
C10   C23   A    
H20   N4    S    
Cu2   O22   S    
C28   C43   A    
C29   C46   A    
C2    C30   A    
C36   C38   A    
C25   C26   S    
C37   C39   A    
C22   H13   S    
C38   C40   A    
C27   C42   A    
C16   O22   A    
C29   O4    S    
C3    C36   A    
C24   H11   S    
O6    S1    D    
H21   N3    S    
C2    C14   A    
O14   S3    S    
O16   S4    D    
C14   H5    S    
C4    C37   A    
C8    C10   A    
C21   C24   D    
Cu1   O1    S    
C15   C46   A    
C27   N1    A    
C17   O21   A    
C3    C16   S    
C6    C13   A    
