data_mof_unit_60931.cif
_audit_creation_date              2012-12-10T20:20:44-0500
_audit_creation_method            fapswitch 2.2
_symmetry_space_group_name_H-M    P1
_symmetry_Int_Tables_number       1
_space_group_crystal_system       triclinic
_cell_length_a                    41.420714
_cell_length_b                    35.538133
_cell_length_c                    21.317572
_cell_angle_alpha                 89.999878
_cell_angle_beta                  59.04904
_cell_angle_gamma                 89.999803
_cell_volume                      26911.5465472

loop_
_atom_site_label
_atom_site_type_symbol
_atom_type_description
_atom_site_fract_x
_atom_site_fract_y
_atom_site_fract_z
_atom_type_partial_charge
C1    C     C_R   0.926576 0.500003 0.073530 0.861842
C2    C     C_R   0.073424 0.500003 0.926470 0.861846
C3    C     C_R   0.426576 0.000003 0.073530 0.861840
C4    C     C_R   0.573424 0.000003 0.926470 0.861854
C5    C     C_3   0.000005 0.499689 0.188950 -0.009119
C6    C     C_3   0.999995 0.499689 0.811050 -0.009119
C7    C     C_3   0.500004 0.999689 0.188951 -0.009119
C8    C     C_3   0.499996 0.999689 0.811050 -0.009119
C9    C     C_R   0.674712 0.515602 0.277980 -0.235099
C10   C     C_R   0.325288 0.515607 0.722016 -0.235097
C11   C     C_R   0.174711 0.015606 0.277983 -0.235089
C12   C     C_R   0.825287 0.015587 0.722030 -0.235086
C13   C     C_R   0.635375 0.516153 0.314681 0.107391
C14   C     C_R   0.364625 0.516158 0.685314 0.107389
C15   C     C_R   0.135375 0.016158 0.314685 0.107384
C16   C     C_R   0.864624 0.016141 0.685329 0.107386
C17   C     C_R   0.614614 0.500680 0.385731 -0.106424
C18   C     C_R   0.385386 0.500680 0.614268 -0.106419
C19   C     C_R   0.114614 0.000680 0.385731 -0.106425
C20   C     C_R   0.885386 0.000679 0.614269 -0.106440
C21   C     C_R   0.633516 0.485507 0.418846 -0.257104
C22   C     C_R   0.366485 0.485501 0.581158 -0.257105
C23   C     C_R   0.133515 0.985502 0.418841 -0.257092
C24   C     C_R   0.866485 0.985517 0.581144 -0.257080
C25   C     C_R   0.672762 0.484967 0.382099 0.249154
C26   C     C_R   0.327238 0.484961 0.617905 0.249153
C27   C     C_R   0.172763 0.984959 0.382092 0.249164
C28   C     C_R   0.827237 0.984973 0.617892 0.249168
C29   C     C_R   0.693227 0.500293 0.311279 0.054688
C30   C     C_R   0.306773 0.500293 0.688722 0.054689
C31   C     C_R   0.193227 0.000292 0.311275 0.054675
C32   C     C_R   0.806773 0.000289 0.688723 0.054667
C33   C     C_1   0.733319 0.500054 0.271010 -0.057779
C34   C     C_1   0.266681 0.500054 0.728990 -0.057777
C35   C     C_1   0.233319 0.000052 0.271005 -0.057789
C36   C     C_1   0.766680 0.000049 0.728992 -0.057801
C37   C     C_1   0.766943 0.499959 0.236906 -0.075511
C38   C     C_1   0.233057 0.499959 0.763094 -0.075510
C39   C     C_1   0.266943 0.999958 0.236900 -0.075512
C40   C     C_1   0.733056 0.999955 0.763096 -0.075513
C41   C     C_R   0.826341 0.534097 0.175354 -0.168701
C42   C     C_R   0.173659 0.534097 0.824645 -0.168701
C43   C     C_R   0.326340 0.034096 0.175298 -0.168695
C44   C     C_R   0.673660 0.034095 0.824637 -0.168698
C45   C     C_R   0.000013 0.499961 0.121652 0.889999
C46   C     C_R   0.999987 0.499961 0.878348 0.890001
C47   C     C_R   0.500012 0.999961 0.121652 0.890001
C48   C     C_R   0.499987 0.999961 0.878348 0.890003
C49   C     C_R   0.865494 0.534162 0.135121 -0.196644
C50   C     C_R   0.134506 0.534162 0.864878 -0.196636
C51   C     C_R   0.365493 0.034161 0.135066 -0.196655
C52   C     C_R   0.634506 0.034161 0.864870 -0.196640
C53   C     C_R   0.885371 0.499987 0.115449 -0.041469
C54   C     C_R   0.114629 0.499987 0.884551 -0.041470
C55   C     C_R   0.385371 0.999987 0.115447 -0.041466
C56   C     C_R   0.614628 0.999986 0.884552 -0.041467
C57   C     C_R   0.865527 0.465794 0.136573 -0.206682
C58   C     C_R   0.134473 0.465794 0.863428 -0.206683
C59   C     C_R   0.365527 0.965794 0.136621 -0.206678
C60   C     C_R   0.634473 0.965793 0.863440 -0.206686
C61   C     C_R   0.826371 0.465826 0.176835 -0.166952
C62   C     C_R   0.173629 0.465825 0.823166 -0.166951
C63   C     C_R   0.326372 0.965826 0.176882 -0.166960
C64   C     C_R   0.673628 0.965823 0.823178 -0.166956
C65   C     C_R   0.806927 0.499955 0.196085 0.160788
C66   C     C_R   0.193073 0.499954 0.803915 0.160787
C67   C     C_R   0.306927 0.999954 0.196079 0.160792
C68   C     C_R   0.693073 0.999952 0.803917 0.160789
C69   C     C_R   1.000000 0.573414 0.500000 0.898544
C70   C     C_R   0.500000 0.073415 0.500000 0.898573
C71   C     C_R   0.999989 0.499846 0.378333 0.893994
C72   C     C_R   0.000011 0.499846 0.621667 0.893996
C73   C     C_R   0.499989 0.999846 0.378333 0.894003
C74   C     C_R   0.500011 0.999846 0.621667 0.894004
C75   C     C_R   0.000000 0.426550 0.500000 0.867883
C76   C     C_R   0.500000 0.926551 0.500000 0.867881
C77   C     C_R   0.500000 0.573260 0.500000 0.888433
C78   C     C_R   1.000000 0.073260 0.500000 0.888433
C79   C     C_R   0.573344 0.500289 0.426651 0.888470
C80   C     C_R   0.426656 0.500289 0.573349 0.888467
C81   C     C_R   0.073343 0.000289 0.426651 0.888471
C82   C     C_R   0.926656 0.000289 0.573349 0.888470
C83   C     C_3   0.969687 0.517058 0.260415 0.125179
C84   C     C_3   0.030316 0.517052 0.739581 0.125181
C85   C     C_3   0.469692 0.017068 0.260411 0.125155
C86   C     C_3   0.530316 0.017054 0.739582 0.125161
C87   C     C_R   0.500000 0.426660 0.500000 0.914786
C88   C     C_R   1.000000 0.926659 0.500000 0.914779
C89   C     C_R   0.477993 0.326348 0.565428 -0.216502
C90   C     C_R   0.522008 0.326348 0.434573 -0.216496
C91   C     C_R   0.977990 0.826346 0.565427 -0.216521
C92   C     C_R   0.022009 0.826346 0.434574 -0.216522
C93   C     C_R   0.477787 0.365634 0.565998 0.047713
C94   C     C_R   0.522213 0.365634 0.434003 0.047711
C95   C     C_R   0.977785 0.865633 0.565997 0.047733
C96   C     C_R   0.022215 0.865633 0.434004 0.047732
C97   C     C_R   0.500000 0.385493 0.500000 -0.041522
C98   C     C_R   1.000000 0.885492 0.500000 -0.041520
C99   C     C_R   0.500000 0.306997 0.500000 0.115244
C100  C     C_R   1.000000 0.806995 0.500000 0.115259
C101  C     C_1   0.500000 0.267040 0.500000 -0.045629
C102  C     C_1   1.000000 0.767037 0.500000 -0.045552
C103  C     C_1   1.000000 0.733429 0.500000 -0.071865
C104  C     C_1   0.500000 0.233432 0.500000 -0.072161
C105  C     C_R   0.965300 0.673831 0.537347 0.235520
C106  C     C_R   0.034699 0.673831 0.462654 0.235519
C107  C     C_R   0.465274 0.173833 0.536275 0.235548
C108  C     C_R   0.534724 0.173833 0.463724 0.235550
C109  C     C_R   0.965928 0.634357 0.537241 -0.229186
C110  C     C_R   0.034072 0.634357 0.462759 -0.229184
C111  C     C_R   0.465898 0.134360 0.536220 -0.229108
C112  C     C_R   0.534101 0.134360 0.463779 -0.229122
C113  C     C_R   1.000000 0.614687 0.500000 -0.147761
C114  C     C_R   0.500000 0.114689 0.500000 -0.147893
C115  C     C_3   0.999785 0.536019 0.271345 -0.165407
C116  C     C_3   0.000222 0.536019 0.728648 -0.165406
C117  C     C_3   0.499796 0.036019 0.271334 -0.165405
C118  C     C_3   0.500220 0.036019 0.728649 -0.165405
C119  C     C_R   1.000000 0.693224 0.500000 -0.010482
C120  C     C_R   0.499999 0.193227 0.500000 -0.010544
C121  C     C_R   0.500517 0.673515 0.442013 0.221507
C122  C     C_R   0.499487 0.673515 0.557983 0.221511
C123  C     C_R   0.000470 0.173515 0.442057 0.221513
C124  C     C_R   0.999530 0.173515 0.557940 0.221502
C125  C     C_R   0.500565 0.634262 0.442591 -0.223825
C126  C     C_R   0.499436 0.634262 0.557407 -0.223812
C127  C     C_R   0.000521 0.134262 0.442633 -0.223808
C128  C     C_R   0.999479 0.134263 0.557365 -0.223824
C129  C     C_R   0.500000 0.614489 0.499999 -0.146267
C130  C     C_R   1.000000 0.114489 0.499999 -0.146274
C131  C     C_R   0.500002 0.693193 0.499997 0.004256
C132  C     C_R   0.999999 0.193193 0.499999 0.004256
C133  C     C_1   0.500002 0.733358 0.499997 -0.072198
C134  C     C_1   0.999999 0.233358 0.500000 -0.072190
C135  C     C_1   1.000000 0.266969 0.500000 -0.077473
C136  C     C_1   0.500002 0.766969 0.499996 -0.077474
C137  C     C_R   0.965847 0.326354 0.533767 -0.168157
C138  C     C_R   0.034152 0.326353 0.466235 -0.168158
C139  C     C_R   0.465848 0.826353 0.533757 -0.168161
C140  C     C_R   0.534153 0.826354 0.466238 -0.168160
C141  C     C_R   0.965799 0.365497 0.533822 -0.203147
C142  C     C_R   0.034201 0.365497 0.466179 -0.203147
C143  C     C_R   0.465799 0.865497 0.533813 -0.203144
C144  C     C_R   0.534202 0.865497 0.466183 -0.203146
C145  C     C_R   0.000000 0.385355 0.500000 -0.037116
C146  C     C_R   0.500000 0.885355 0.499999 -0.037117
C147  C     C_3   0.999980 0.499880 0.311077 -0.032686
C148  C     C_3   0.000020 0.499880 0.688924 -0.032685
C149  C     C_3   0.499980 0.999879 0.311077 -0.032683
C150  C     C_3   0.500020 0.999880 0.688923 -0.032685
C151  C     C_R   1.000000 0.306932 0.500001 0.163467
C152  C     C_R   0.500001 0.806932 0.499997 0.163471
C153  C     C_3   0.968909 0.481541 0.302143 -0.209243
C154  C     C_3   0.031087 0.481534 0.697861 -0.209240
C155  C     C_3   0.468902 0.981550 0.302149 -0.209262
C156  C     C_3   0.531089 0.981536 0.697860 -0.209255
C157  C     C_3   0.000195 0.463846 0.229441 -0.218258
C158  C     C_3   0.999797 0.463846 0.770567 -0.218257
C159  C     C_3   0.500184 0.963846 0.229453 -0.218260
C160  C     C_3   0.499799 0.963846 0.770564 -0.218256
C161  C     C_3   0.031269 0.481890 0.239852 -0.209292
C162  C     C_3   0.968727 0.481896 0.760152 -0.209294
C163  C     C_3   0.531263 0.981880 0.239858 -0.209273
C164  C     C_3   0.468729 0.981895 0.760150 -0.209278
C165  C     C_3   0.030110 0.517395 0.200066 0.125158
C166  C     C_3   0.969893 0.517402 0.799931 0.125155
C167  C     C_3   0.530115 0.017386 0.200061 0.125178
C168  C     C_3   0.469893 0.017400 0.799931 0.125175
H1    H     H_    0.999618 0.565314 0.289598 0.132338
H2    H     H_    0.000395 0.565314 0.710389 0.132338
H3    H     H_    0.499638 0.065314 0.289578 0.132327
H4    H     H_    0.500392 0.065314 0.710392 0.132326
H5    H     H_    0.811230 0.560589 0.190259 0.134842
H6    H     H_    0.188770 0.560589 0.809739 0.134842
H7    H     H_    0.311229 0.060588 0.190161 0.134840
H8    H     H_    0.688771 0.060587 0.809723 0.134842
H9    H     H_    0.880135 0.560884 0.119517 0.161356
H10   H     H_    0.119865 0.560884 0.880481 0.161357
H11   H     H_    0.380134 0.060883 0.119422 0.161352
H12   H     H_    0.619865 0.060883 0.880464 0.161353
H13   H     H_    0.880197 0.439081 0.122137 0.157652
H14   H     H_    0.119804 0.439081 0.877865 0.157652
H15   H     H_    0.380197 0.939082 0.122227 0.157650
H16   H     H_    0.619802 0.939080 0.877884 0.157652
H17   H     H_    0.811286 0.439325 0.192910 0.134126
H18   H     H_    0.188714 0.439325 0.807092 0.134126
H19   H     H_    0.311287 0.939326 0.192997 0.134125
H20   H     H_    0.688713 0.939323 0.807113 0.134128
H21   H     H_    0.460840 0.310998 0.615971 0.143080
H22   H     H_    0.539160 0.310998 0.384029 0.143084
H23   H     H_    0.960836 0.810997 0.615970 0.143078
H24   H     H_    0.039163 0.810997 0.384031 0.143077
H25   H     H_    0.939975 0.618567 0.565508 0.176733
H26   H     H_    0.060024 0.618567 0.434492 0.176734
H27   H     H_    0.439924 0.118570 0.563690 0.176784
H28   H     H_    0.560075 0.118570 0.436310 0.176786
H29   H     H_    0.501343 0.619277 0.397571 0.177033
H30   H     H_    0.498657 0.619277 0.602428 0.177027
H31   H     H_    0.001266 0.119277 0.397645 0.177034
H32   H     H_    0.998737 0.119278 0.602351 0.177041
H33   H     H_    0.939339 0.311259 0.559970 0.133095
H34   H     H_    0.060661 0.311258 0.440032 0.133093
H35   H     H_    0.439340 0.811258 0.559954 0.133092
H36   H     H_    0.560662 0.811259 0.440040 0.133092
H37   H     H_    0.939067 0.380147 0.560248 0.156384
H38   H     H_    0.060933 0.380147 0.439753 0.156383
H39   H     H_    0.439067 0.880146 0.560234 0.156383
H40   H     H_    0.560933 0.880147 0.439763 0.156383
H41   H     H_    0.943384 0.467244 0.345953 0.148184
H42   H     H_    0.056609 0.467232 0.654054 0.148180
H43   H     H_    0.443373 0.967261 0.345964 0.148186
H44   H     H_    0.556611 0.967235 0.654052 0.148179
H45   H     H_    0.000364 0.434570 0.211109 0.161838
H46   H     H_    0.999622 0.434570 0.788905 0.161838
H47   H     H_    0.500343 0.934570 0.211129 0.161836
H48   H     H_    0.499626 0.934570 0.788901 0.161838
H49   H     H_    0.056946 0.467875 0.232511 0.148487
H50   H     H_    0.943047 0.467887 0.767497 0.148490
H51   H     H_    0.556936 0.967857 0.232521 0.148484
H52   H     H_    0.443049 0.967884 0.767495 0.148494
H53   H     H_    0.691010 0.527380 0.223417 0.144547
H54   H     H_    0.308991 0.527389 0.776575 0.144547
H55   H     H_    0.191009 0.027388 0.223424 0.144550
H56   H     H_    0.808989 0.027356 0.776600 0.144553
H57   H     H_    0.617723 0.473864 0.473556 0.175121
H58   H     H_    0.382278 0.473854 0.526452 0.175118
H59   H     H_    0.117722 0.973856 0.473548 0.175112
H60   H     H_    0.882279 0.973886 0.526425 0.175120
O1    O     O_R   0.944560 0.468710 0.055440 -0.628389
O2    O     O_R   0.055440 0.468710 0.944560 -0.628390
O3    O     O_R   0.444560 0.968710 0.055440 -0.628389
O4    O     O_R   0.555440 0.968710 0.944560 -0.628392
O5    O     O_R   0.555450 0.499900 0.497080 -0.631988
O6    O     O_R   0.444550 0.499900 0.502920 -0.631987
O7    O     O_R   0.055450 0.999900 0.497080 -0.631990
O8    O     O_R   0.944550 0.999900 0.502920 -0.631996
O9    O     O_R   0.555440 0.499880 0.392050 -0.589930
O10   O     O_R   0.444560 0.499880 0.607950 -0.589929
O11   O     O_R   0.055440 0.999880 0.392050 -0.589925
O12   O     O_R   0.944560 0.999880 0.607950 -0.589927
O13   O     O_R   0.500000 0.444470 0.552540 -0.605465
O14   O     O_R   0.500000 0.444470 0.447460 -0.605465
O15   O     O_R   0.000000 0.944470 0.552540 -0.605461
O16   O     O_R   1.000000 0.944470 0.447460 -0.605463
O17   O     O_R   0.944560 0.531300 0.055450 -0.620701
O18   O     O_R   0.055440 0.531300 0.944550 -0.620699
O19   O     O_R   0.444560 0.031300 0.055450 -0.620704
O20   O     O_R   0.555440 0.031300 0.944550 -0.620701
O21   O     O_R   0.000010 0.468710 0.093020 -0.637784
O22   O     O_R   0.999990 0.468710 0.906980 -0.637784
O23   O     O_R   0.500010 0.968710 0.093020 -0.637787
O24   O     O_R   0.499990 0.968710 0.906980 -0.637780
O25   O     O_R   0.000010 0.531300 0.093030 -0.598294
O26   O     O_R   0.999990 0.531300 0.906970 -0.598295
O27   O     O_R   0.500010 0.031300 0.093030 -0.598295
O28   O     O_R   0.499990 0.031300 0.906970 -0.598304
O29   O     O_R   0.031280 0.555400 0.468730 -0.627300
O30   O     O_R   0.968720 0.555400 0.531270 -0.627301
O31   O     O_R   0.531280 0.055400 0.468730 -0.627322
O32   O     O_R   0.468720 0.055400 0.531270 -0.627323
O33   O     O_R   0.031290 0.499960 0.375690 -0.627687
O34   O     O_R   0.968710 0.499960 0.624310 -0.627689
O35   O     O_R   0.531290 0.999960 0.375690 -0.627614
O36   O     O_R   0.468710 0.999960 0.624310 -0.627615
O37   O     O_R   0.968700 0.499940 0.438280 -0.627407
O38   O     O_R   0.031300 0.499940 0.561720 -0.627406
O39   O     O_R   0.468700 0.999940 0.438280 -0.627473
O40   O     O_R   0.531300 0.999940 0.561720 -0.627472
O41   O     O_R   0.031310 0.444530 0.468680 -0.626978
O42   O     O_R   0.968690 0.444530 0.531320 -0.626978
O43   O     O_R   0.531310 0.944530 0.468680 -0.626979
O44   O     O_R   0.468690 0.944530 0.531320 -0.626978
O45   O     O_R   0.500010 0.555340 0.552490 -0.626995
O46   O     O_R   0.499990 0.555340 0.447510 -0.626996
O47   O     O_R   0.000010 0.055340 0.552490 -0.626997
O48   O     O_R   0.999990 0.055340 0.447510 -0.626995
Zn1   Zn    Zn3+2 0.000000 0.458210 0.000000 0.933874
Zn2   Zn    Zn3+2 0.500000 0.958210 0.000000 0.933870
Zn3   Zn    Zn3+2 0.000000 0.541790 0.000000 0.980889
Zn4   Zn    Zn3+2 0.500000 0.041790 0.000000 0.980866
Zn5   Zn    Zn3+2 0.041800 0.499960 0.458210 0.936143
Zn6   Zn    Zn3+2 0.958200 0.499960 0.541790 0.936141
Zn7   Zn    Zn3+2 0.541800 0.999960 0.458210 0.936141
Zn8   Zn    Zn3+2 0.458200 0.999960 0.541790 0.936140
Zn9   Zn    Zn3+2 0.500010 0.499910 0.570130 0.966996
Zn10  Zn    Zn3+2 0.499990 0.499910 0.429870 0.966995
Zn11  Zn    Zn3+2 0.000010 0.999910 0.570130 0.967001
Zn12  Zn    Zn3+2 0.999990 0.999910 0.429870 0.966999
N1    N     N_2   0.691012 0.469599 0.417646 -0.308410
H61   H     H_    0.717559 0.479985 0.400173 0.230576
C169  C     C_3   0.689093 0.429046 0.424282 -0.795476
H62   H     H_    0.702637 0.419786 0.455082 0.239557
H63   H     H_    0.704122 0.415865 0.369151 0.239792
H64   H     H_    0.659352 0.419400 0.454549 0.246469
N2    N     N_2   0.308988 0.469587 0.582364 -0.308409
H65   H     H_    0.282442 0.479973 0.599832 0.230576
C170  C     C_3   0.310904 0.429033 0.575749 -0.795474
H66   H     H_    0.297360 0.419767 0.544953 0.239556
H67   H     H_    0.295874 0.415860 0.630886 0.239791
H68   H     H_    0.340645 0.419385 0.545488 0.246471
N3    N     N_2   0.191013 0.969584 0.417632 -0.308407
H69   H     H_    0.217566 0.979957 0.400143 0.230576
C171  C     C_3   0.189075 0.929032 0.424293 -0.795486
H70   H     H_    0.202630 0.919766 0.455071 0.239555
H71   H     H_    0.204083 0.915842 0.369171 0.239791
H72   H     H_    0.159329 0.919401 0.454595 0.246467
N4    N     N_2   0.808988 0.969617 0.582336 -0.308407
H73   H     H_    0.782430 0.979982 0.599850 0.230580
C172  C     C_3   0.810945 0.929068 0.575594 -0.795485
H74   H     H_    0.797386 0.919819 0.544815 0.239555
H75   H     H_    0.795952 0.915849 0.630691 0.239797
H76   H     H_    0.840696 0.919452 0.545256 0.246458
N5    N     N_3   0.454269 0.385278 0.633218 -0.440681
H77   H     H_    0.462048 0.377080 0.670731 0.190887
H78   H     H_    0.426458 0.376705 0.653663 0.180892
N6    N     N_3   0.545731 0.385278 0.366782 -0.440680
H79   H     H_    0.537952 0.377080 0.329269 0.190887
H80   H     H_    0.573543 0.376705 0.346337 0.180893
N7    N     N_3   0.954265 0.885277 0.633216 -0.440682
H81   H     H_    0.962043 0.877079 0.670732 0.190904
H82   H     H_    0.926454 0.876705 0.653659 0.180877
N8    N     N_3   0.045735 0.885277 0.366785 -0.440685
H83   H     H_    0.037958 0.877078 0.329268 0.190904
H84   H     H_    0.073545 0.876704 0.346343 0.180875
N9    N     N_2   0.930592 0.694563 0.574946 -0.298043
H85   H     H_    0.930056 0.719565 0.550961 0.232836
C173  C     C_3   0.894850 0.674973 0.611351 -0.811606
H86   H     H_    0.871589 0.695723 0.638504 0.240995
H87   H     H_    0.893150 0.656014 0.654368 0.247667
H88   H     H_    0.891070 0.658814 0.570962 0.239285
N10   N     N_2   0.069407 0.694563 0.425055 -0.298044
H89   H     H_    0.069943 0.719566 0.449038 0.232837
C174  C     C_3   0.105150 0.674972 0.388655 -0.811607
H90   H     H_    0.128411 0.695722 0.361503 0.240996
H91   H     H_    0.106852 0.656013 0.345637 0.247667
H92   H     H_    0.108928 0.658814 0.429047 0.239287
N11   N     N_2   0.430535 0.194561 0.572791 -0.298012
H93   H     H_    0.430306 0.219613 0.548627 0.232939
C175  C     C_3   0.394794 0.174967 0.607777 -0.811624
H94   H     H_    0.371482 0.195710 0.634151 0.240995
H95   H     H_    0.392528 0.155969 0.651233 0.247661
H96   H     H_    0.391624 0.158851 0.566601 0.239304
N12   N     N_2   0.569463 0.194562 0.427208 -0.298010
H97   H     H_    0.569694 0.219607 0.451387 0.232935
C176  C     C_3   0.605204 0.174968 0.392188 -0.811620
H98   H     H_    0.628515 0.195712 0.365806 0.240999
H99   H     H_    0.607460 0.155976 0.348734 0.247667
H100  H     H_    0.608387 0.158846 0.433344 0.239296
N13   N     N_2   0.501745 0.692603 0.381985 -0.307115
H101  H     H_    0.514212 0.718793 0.370155 0.233568
C177  C     C_3   0.466701 0.692076 0.382494 -0.790629
H102  H     H_    0.470710 0.706047 0.332376 0.238600
H103  H     H_    0.444562 0.707415 0.431153 0.240703
H104  H     H_    0.457402 0.662681 0.383177 0.246170
N14   N     N_2   0.498259 0.692603 0.618010 -0.307113
H105  H     H_    0.485801 0.718798 0.629829 0.233570
C178  C     C_3   0.533298 0.692063 0.617519 -0.790635
H106  H     H_    0.529290 0.706041 0.667629 0.238599
H107  H     H_    0.555449 0.707387 0.568852 0.240705
H108  H     H_    0.542581 0.662664 0.616865 0.246166
N15   N     N_2   0.001653 0.192603 0.382071 -0.307107
H109  H     H_    0.014111 0.218798 0.370226 0.233573
C179  C     C_3   0.966591 0.192059 0.382653 -0.790641
H110  H     H_    0.970566 0.206034 0.332566 0.238602
H111  H     H_    0.944457 0.207383 0.431343 0.240701
H112  H     H_    0.957304 0.162659 0.383333 0.246162
N16   N     N_2   0.998353 0.192603 0.617919 -0.307109
H113  H     H_    0.985881 0.218791 0.629785 0.233570
C180  C     C_3   0.033428 0.192081 0.617290 -0.790628
H114  H     H_    0.029460 0.206051 0.667375 0.238603
H115  H     H_    0.055542 0.207420 0.568599 0.240698
H116  H     H_    0.042737 0.162686 0.616574 0.246170
N17   N     N_3   0.936431 0.536054 0.269332 -0.449703
H117  H     H_    0.919930 0.543740 0.324323 0.184028
H118  H     H_    0.920961 0.516252 0.259304 0.173019
N18   N     N_3   0.063576 0.536041 0.730661 -0.449708
H119  H     H_    0.080078 0.543723 0.675667 0.184030
H120  H     H_    0.079042 0.516236 0.740694 0.173017
N19   N     N_3   0.436441 0.036074 0.269323 -0.449715
H121  H     H_    0.419944 0.043765 0.324312 0.183974
H122  H     H_    0.420964 0.016277 0.259302 0.173027
N20   N     N_3   0.563575 0.036045 0.730662 -0.449734
H123  H     H_    0.580076 0.043728 0.675669 0.183978
H124  H     H_    0.579042 0.016241 0.740693 0.173025
N21   N     N_3   0.063162 0.536762 0.142765 -0.449495
H125  H     H_    0.079550 0.544645 0.164915 0.183903
H126  H     H_    0.078874 0.517131 0.101620 0.172829
N22   N     N_3   0.936845 0.536776 0.857227 -0.449491
H127  H     H_    0.920459 0.544662 0.835075 0.183901
H128  H     H_    0.921129 0.517147 0.898376 0.172829
N23   N     N_3   0.563173 0.036743 0.142753 -0.449491
H129  H     H_    0.579563 0.044620 0.164900 0.183963
H130  H     H_    0.578877 0.017106 0.101613 0.172823
N24   N     N_3   0.436843 0.036772 0.857229 -0.449487
H131  H     H_    0.420457 0.044658 0.835078 0.183959
H132  H     H_    0.421129 0.017143 0.898378 0.172824
N25   N     N_3   0.616576 0.533139 0.280869 -0.425213
H133  H     H_    0.603980 0.557953 0.309409 0.179113
H134  H     H_    0.635999 0.541008 0.227011 0.173663
N26   N     N_3   0.383424 0.533149 0.719121 -0.425216
H135  H     H_    0.396021 0.557960 0.690573 0.179110
H136  H     H_    0.364002 0.541022 0.772977 0.173665
N27   N     N_3   0.116575 0.033150 0.280879 -0.425212
H137  H     H_    0.103978 0.057961 0.309427 0.179114
H138  H     H_    0.135997 0.041022 0.227023 0.173669
N28   N     N_3   0.883421 0.033116 0.719153 -0.425206
H139  H     H_    0.896015 0.057935 0.690631 0.179125
H140  H     H_    0.863998 0.040975 0.773017 0.173664

loop_
_geom_bond_atom_site_label_1
_geom_bond_atom_site_label_2
_ccdc_geom_bond_type
C60   H16   S    
N8    H84   S    
C178  H106  S    
C161  H49   S    
O45   Zn9   S    
C108  C120  A    
C169  H62   S    
C95   N7    S    
C84   N18   S    
O47   Zn11  S    
C6    C166  S    
N11   H93   S    
C171  H71   S    
N3    H69   S    
C89   C99   A    
C4    O4    A    
N27   H138  S    
C154  C158  S    
C55   C59   A    
N25   H134  S    
O27   Zn4   S    
C87   O13   A    
C7    C159  S    
C29   C33   S    
C139  C152  A    
C85   C155  S    
O4    Zn2   S    
O19   Zn4   S    
C9    C13   A    
C46   O22   A    
C8    C168  S    
C45   O25   A    
C43   H7    S    
C12   C16   A    
C91   C100  A    
C115  C165  S    
C140  C152  A    
C141  C145  A    
C180  H116  S    
C76   C146  S    
C4    C56   S    
C116  C166  S    
O9    Zn10  S    
C41   C49   A    
C136  C152  S    
C49   H9    S    
C25   C29   A    
C27   C31   A    
O22   Zn1   S    
C77   O45   A    
C164  C168  S    
C11   H55   S    
C62   C66   A    
C126  C129  A    
C106  N10   S    
C174  H90   S    
C91   H23   S    
C75   C145  S    
C17   C21   A    
N6    H79   S    
C48   O24   A    
C19   C23   A    
C8    C48   S    
C107  N11   S    
O26   Zn3   S    
C10   C30   A    
C171  H70   S    
C16   C20   A    
C72   O38   A    
C77   C129  S    
C176  H100  S    
C85   C117  S    
C167  N23   S    
N26   H136  S    
C70   O31   A    
C99   C101  S    
C178  H108  S    
C10   C14   A    
N28   H140  S    
C107  C120  A    
C174  H92   S    
C50   H10   S    
C41   C65   A    
C57   C61   A    
C13   N25   S    
C138  C151  A    
C59   C63   A    
C60   C64   A    
C148  C162  S    
C149  C155  S    
O23   Zn2   S    
C154  H42   S    
C1    O17   A    
C138  H34   S    
O39   Zn8   S    
C49   C53   A    
O1    Zn1   S    
O21   Zn1   S    
C8    C86   S    
C5    C165  S    
C142  H38   S    
O18   Zn3   S    
C147  C153  S    
N24   H131  S    
C10   H54   S    
C61   C65   A    
C132  C134  S    
C25   N1    S    
C117  C149  S    
O13   Zn9   S    
C123  N15   S    
C20   C24   A    
C161  C165  S    
N21   H126  S    
C163  H51   S    
O44   Zn8   S    
C71   C147  S    
N7    H82   S    
N13   H101  S    
C20   C82   S    
C123  C132  A    
C177  H102  S    
C78   O48   A    
C88   O15   A    
C112  C114  A    
C177  H104  S    
N2    C170  S    
O34   Zn6   S    
C69   C113  S    
C21   C25   A    
C64   C68   A    
C169  H63   S    
C140  H36   S    
N5    H78   S    
C76   O43   A    
C92   C96   A    
C124  C132  A    
C7    C167  S    
N9    C173  S    
C1    C53   S    
C86   C156  S    
C45   O21   A    
C3    C55   S    
O14   Zn10  S    
N22   H127  S    
C37   C65   S    
C81   O7    A    
C109  H25   S    
O46   Zn10  S    
C47   O23   A    
O43   Zn7   S    
C62   H18   S    
C44   C52   A    
C84   C116  S    
O29   Zn5   S    
C170  H67   S    
C11   C15   A    
C51   H11   S    
C96   N8    S    
C6    C158  S    
N18   H120  S    
C174  H91   S    
C172  H75   S    
C143  H39   S    
C159  H47   S    
C30   C34   S    
O40   Zn7   S    
C155  C159  S    
C83   C115  S    
C156  C160  S    
C42   H6    S    
C3    O3    A    
C173  H87   S    
C72   C148  S    
C63   C67   A    
C121  C125  A    
C125  C129  A    
C123  C127  A    
C61   H17   S    
N1    H61   S    
C116  H2    S    
O42   Zn6   S    
C59   H15   S    
C64   H20   S    
O10   Zn9   S    
C42   C50   A    
O33   Zn5   S    
N14   C178  S    
C165  N21   S    
O16   Zn12  S    
C63   H19   S    
N12   C176  S    
C22   C26   A    
C179  H112  S    
C93   C97   A    
C90   C99   A    
C69   O29   A    
C90   H22   S    
N23   H130  S    
C41   H5    S    
C18   C22   A    
C107  C111  A    
C24   C28   A    
N26   H135  S    
C127  H31   S    
C32   C36   S    
C26   C30   A    
C134  C135  T    
C83   C153  S    
C75   O42   A    
C158  H46   S    
C150  C164  S    
C72   O34   A    
C13   C17   A    
C78   C130  S    
N25   H133  S    
C137  H33   S    
C28   N4    S    
C94   N6    S    
C89   C93   A    
C102  C103  T    
C141  H37   S    
O20   Zn4   S    
C2    O2    A    
C91   C95   A    
C175  H96   S    
C56   C60   A    
C43   C67   A    
C15   N27   S    
C104  C120  S    
C19   C81   S    
C88   C98   S    
C73   O35   A    
O15   Zn11  S    
C180  H115  S    
C74   O36   A    
C126  H30   S    
C58   C62   A    
C143  C146  A    
C162  H50   S    
N20   H123  S    
C82   O8    A    
C106  C119  A    
C122  C131  A    
O31   Zn7   S    
N12   H97   S    
O41   Zn5   S    
N19   H121  S    
C15   C19   A    
N15   C179  S    
C50   C54   A    
C3    O19   A    
C160  C164  S    
N17   H118  S    
C106  C110  A    
C137  C151  A    
C160  H48   S    
C115  C147  S    
N6    H80   S    
C118  C150  S    
C124  N16   S    
O24   Zn2   S    
C12   H56   S    
C105  C109  A    
O25   Zn3   S    
O32   Zn8   S    
C162  C166  S    
O5    Zn9   S    
N27   H137  S    
C166  N22   S    
C179  H110  S    
C85   N19   S    
C176  H99   S    
C124  C128  A    
C70   O32   A    
N8    H83   S    
C178  H107  S    
C142  C145  A    
C148  C154  S    
N11   C175  S    
O37   Zn6   S    
C90   C94   A    
C171  H72   S    
N3    C171  S    
C6    C84   S    
N4    H73   S    
C44   H8    S    
C79   O5    A    
C144  C146  A    
C2    C54   S    
N2    H65   S    
C116  C148  S    
C53   C57   A    
C87   O14   A    
C51   C55   A    
C5    C45   S    
C33   C37   T    
C81   O11   A    
C7    C47   S    
C35   C39   T    
N10   H89   S    
C128  H32   S    
C47   O27   A    
C80   O6    A    
C86   N20   S    
C117  H3    S    
C175  H94   S    
C28   C32   A    
O30   Zn6   S    
N24   H132  S    
C22   H58   S    
C101  C104  T    
C5    C157  S    
C147  C161  S    
O36   Zn8   S    
C31   C35   S    
C108  N12   S    
C8    C160  S    
C157  C161  S    
N21   H125  S    
O48   Zn12  S    
C137  C141  A    
C73   C149  S    
C77   O46   A    
C140  C144  A    
C128  C130  A    
C88   O16   A    
C177  H103  S    
C94   C97   A    
C58   H14   S    
C105  N9    S    
C2    O18   A    
C173  H86   S    
C139  H35   S    
C153  H41   S    
C43   C51   A    
N5    H77   S    
C7    C85   S    
C117  C167  S    
C135  C151  S    
C76   O44   A    
C118  C168  S    
C111  C114  A    
C153  C157  S    
N9    H85   S    
C14   N26   S    
N7    H81   S    
C108  C112  A    
N22   H128  S    
C40   C68   S    
C89   H21   S    
N28   H139  S    
C105  C119  A    
C46   O26   A    
C92   H24   S    
C144  H40   S    
C168  N24   S    
C71   O33   A    
O11   Zn12  S    
O12   Zn11  S    
C156  H44   S    
C170  H66   S    
C14   C18   A    
N16   H113  S    
C115  H1    S    
C57   H13   S    
C95   C98   A    
N23   H129  S    
C172  H74   S    
C70   C114  S    
C122  N14   S    
C5    C83   S    
N19   H122  S    
C17   C79   S    
O35   Zn7   S    
C80   O10   A    
C9    H53   S    
C4    O20   A    
C73   O39   A    
C74   O40   A    
N14   H105  S    
C96   C98   A    
C82   O12   A    
C110  H26   S    
C133  C136  T    
O7    Zn11  S    
O8    Zn12  S    
C118  H4    S    
C48   O28   A    
C109  C113  A    
C83   N17   S    
C125  H29   S    
C71   O37   A    
C150  C156  S    
C12   C32   A    
C179  H111  S    
C139  C143  A    
C78   O47   A    
C121  C131  A    
C138  C142  A    
O2    Zn1   S    
C38   C66   S    
C36   C40   T    
C169  H64   S    
O17   Zn3   S    
C16   N28   S    
C75   O41   A    
O6    Zn10  S    
C93   N5    S    
N4    C172  S    
C122  C126  A    
C163  C167  S    
C52   H12   S    
C100  C102  S    
C84   C154  S    
N10   C174  S    
C110  C113  A    
C149  C163  S    
O38   Zn5   S    
C18   C80   S    
C175  H95   S    
C23   C27   A    
C86   C118  S    
C170  H68   S    
C159  C163  S    
C26   N2    S    
C44   C68   A    
C79   O9    A    
N18   H119  S    
C92   C100  A    
C180  H114  S    
C54   C58   A    
C172  H76   S    
N20   H124  S    
C6    C46   S    
O3    Zn2   S    
C34   C38   T    
C39   C67   S    
O28   Zn4   S    
C103  C119  S    
C131  C133  S    
C173  H88   S    
C23   H59   S    
C9    C29   A    
C21   H57   S    
N15   H109  S    
C157  H45   S    
C27   N3    S    
C155  H43   S    
C127  C130  A    
N17   H117  S    
C164  H52   S    
C112  H28   S    
N1    C169  S    
N16   C180  S    
C158  C162  S    
C11   C31   A    
C1    O1    A    
N13   C177  S    
C111  H27   S    
C42   C66   A    
C74   C150  S    
C176  H98   S    
C24   H60   S    
C52   C56   A    
C121  N13   S    
C69   O30   A    
C87   C97   S    
