data_mof_unit_35741.cif
_audit_creation_date              2012-12-11T14:13:17-0500
_audit_creation_method            fapswitch 2.2
_symmetry_space_group_name_H-M    P1
_symmetry_Int_Tables_number       1
_space_group_crystal_system       triclinic
_cell_length_a                    17.224475
_cell_length_b                    17.705487
_cell_length_c                    17.099668
_cell_angle_alpha                 89.998324
_cell_angle_beta                  90.000385
_cell_angle_gamma                 89.999985
_cell_volume                      5214.84672949

loop_
_atom_site_label
_atom_site_type_symbol
_atom_type_description
_atom_site_fract_x
_atom_site_fract_y
_atom_site_fract_z
_atom_type_partial_charge
C1    C     C_R   0.584422 0.324193 0.137892 -0.238846
C2    C     C_R   0.198867 0.105097 0.594843 -0.127218
C3    C     C_3   0.781489 0.937885 0.793312 -0.909186
C4    C     C_3   0.928191 0.719324 0.695062 0.188616
C5    C     C_3   0.963780 0.641351 0.705816 -0.873390
C6    C     C_3   0.164843 0.012842 0.744264 0.242948
C7    C     C_3   0.218521 0.062123 0.793295 -0.909192
C8    C     C_3   0.071805 0.719318 0.304965 0.188585
C9    C     C_3   0.036225 0.641341 0.294228 -0.873379
C10   C     C_3   0.835012 0.012818 0.255737 0.242877
C11   C     C_3   0.781265 0.062048 0.206726 -0.909065
C12   C     C_3   0.928190 0.280731 0.304991 0.188566
C13   C     C_R   0.915554 0.175833 0.637864 -0.238836
C14   C     C_3   0.963812 0.358694 0.294292 -0.873373
C15   C     C_3   0.164858 0.987147 0.255732 0.242920
C16   C     C_3   0.218550 0.937870 0.206712 -0.909140
C17   C     C_R   0.801136 0.894905 0.594858 -0.127167
C18   C     C_R   0.084426 0.175817 0.362117 -0.238914
C19   C     C_R   0.198865 0.894901 0.405158 -0.127201
C20   C     C_R   0.915546 0.824169 0.362135 -0.238833
C21   C     C_R   0.801138 0.105099 0.405144 -0.127328
C22   C     C_R   0.608984 0.693199 0.104857 0.547724
C23   C     C_R   0.335433 0.578300 0.148322 0.539722
C24   C     C_R   0.391041 0.306803 0.104898 0.547541
C25   C     C_R   0.698878 0.605103 0.094797 -0.127336
C26   C     C_R   0.664542 0.421728 0.148337 0.539761
C27   C     C_R   0.608958 0.306802 0.895108 0.547513
C28   C     C_R   0.335443 0.421714 0.851672 0.539746
C29   C     C_R   0.391042 0.693200 0.895106 0.547470
C30   C     C_R   0.664548 0.578283 0.851667 0.539751
C31   C     C_R   0.108966 0.193196 0.604883 0.547611
C32   C     C_R   0.835445 0.078290 0.648329 0.539726
C33   C     C_R   0.891040 0.806803 0.604899 0.547528
C34   C     C_R   0.164551 0.921713 0.648333 0.539728
C35   C     C_R   0.108960 0.806801 0.395114 0.547534
C36   C     C_R   0.415533 0.675852 0.137846 -0.238795
C37   C     C_R   0.835419 0.921703 0.351690 0.539753
C38   C     C_R   0.891043 0.193199 0.395101 0.547492
C39   C     C_R   0.164540 0.078279 0.351662 0.539747
C40   C     C_R   0.638224 0.356768 0.186290 -0.059515
C41   C     C_R   0.688060 0.679162 0.112729 -0.086477
C42   C     C_R   0.361723 0.643285 0.186244 -0.059481
C43   C     C_R   0.311969 0.320852 0.112829 -0.086401
C44   C     C_R   0.638235 0.643249 0.813724 -0.059386
C45   C     C_R   0.688032 0.320847 0.887189 -0.086375
C46   C     C_R   0.361748 0.356745 0.813734 -0.059477
C47   C     C_R   0.301138 0.394906 0.094863 -0.127189
C48   C     C_R   0.311967 0.679153 0.887186 -0.086348
C49   C     C_R   0.138245 0.856739 0.686270 -0.059463
C50   C     C_R   0.188038 0.179152 0.612798 -0.086430
C51   C     C_R   0.861746 0.143266 0.686261 -0.059485
C52   C     C_R   0.811968 0.820852 0.612823 -0.086402
C53   C     C_R   0.138226 0.143245 0.313718 -0.059456
C54   C     C_R   0.188035 0.820845 0.387203 -0.086394
C55   C     C_R   0.861714 0.856730 0.313756 -0.059460
C56   C     C_R   0.811970 0.179153 0.387175 -0.086346
C57   C     C_2   0.721027 0.651430 0.696639 -0.155703
C58   C     C_R   0.584429 0.675818 0.862118 -0.239020
C59   C     C_2   0.253974 0.803794 0.867282 -0.127882
C60   C     C_2   0.278950 0.348568 0.696653 -0.155669
C61   C     C_2   0.746012 0.196204 0.867267 -0.127885
C62   C     C_2   0.721008 0.348588 0.303388 -0.155723
C63   C     C_2   0.253976 0.196213 0.132736 -0.127863
C64   C     C_2   0.278968 0.651438 0.303361 -0.155693
C65   C     C_2   0.745897 0.803822 0.132800 -0.127705
C66   C     C_2   0.220998 0.151421 0.196615 -0.155712
C67   C     C_2   0.753984 0.303797 0.367270 -0.127879
C68   C     C_2   0.778851 0.848542 0.196737 -0.155617
C69   C     C_R   0.698863 0.394901 0.905151 -0.127230
C70   C     C_2   0.246000 0.696203 0.367263 -0.127864
C71   C     C_2   0.221002 0.848577 0.803390 -0.155713
C72   C     C_2   0.753996 0.696212 0.632750 -0.127830
C73   C     C_2   0.778986 0.151427 0.803377 -0.155693
C74   C     C_2   0.245978 0.303799 0.632758 -0.127802
C75   C     C_2   0.657936 0.673350 0.736506 -0.181788
C76   C     C_2   0.248612 0.728640 0.864153 -0.175238
C77   C     C_2   0.342038 0.326640 0.736522 -0.181763
C78   C     C_2   0.751383 0.271359 0.864152 -0.175216
C79   C     C_2   0.657922 0.326667 0.263512 -0.181748
C80   C     C_R   0.415561 0.324177 0.862127 -0.238850
C81   C     C_2   0.248620 0.271368 0.135880 -0.175275
C82   C     C_2   0.342028 0.673390 0.263460 -0.181753
C83   C     C_2   0.751395 0.728672 0.135757 -0.175249
C84   C     C_2   0.157919 0.173348 0.236497 -0.181765
C85   C     C_2   0.748620 0.228642 0.364131 -0.175216
C86   C     C_2   0.841977 0.826629 0.236554 -0.181797
C87   C     C_2   0.251386 0.771357 0.364171 -0.175229
C88   C     C_2   0.157935 0.826637 0.763493 -0.181746
C89   C     C_2   0.748623 0.771366 0.635876 -0.175287
C90   C     C_2   0.842051 0.173372 0.763479 -0.181737
C91   C     C_R   0.301137 0.605098 0.905148 -0.127235
C92   C     C_2   0.251379 0.228643 0.635847 -0.175286
C93   C     C_3   0.571831 0.780334 0.195358 0.188624
C94   C     C_3   0.536346 0.858313 0.206440 -0.873588
C95   C     C_3   0.335165 0.487180 0.244266 0.242949
C96   C     C_3   0.281500 0.437899 0.293314 -0.909174
C97   C     C_3   0.428186 0.219279 0.195015 0.188518
C98   C     C_3   0.463815 0.141322 0.205721 -0.873317
C99   C     C_3   0.664919 0.512874 0.244253 0.242923
C100  C     C_3   0.718639 0.562159 0.293234 -0.909189
C101  C     C_3   0.571804 0.219283 0.804993 0.188561
C102  C     C_R   0.084440 0.824171 0.637871 -0.238868
C103  C     C_3   0.536199 0.141314 0.794290 -0.873360
C104  C     C_3   0.335097 0.512841 0.755732 0.242907
C105  C     C_3   0.281387 0.562104 0.706712 -0.909131
C106  C     C_3   0.428183 0.780746 0.805006 0.188604
C107  C     C_3   0.463795 0.858715 0.794315 -0.873397
C108  C     C_3   0.664899 0.487155 0.755731 0.242918
C109  C     C_3   0.718613 0.437899 0.706713 -0.909126
C110  C     C_3   0.071819 0.280580 0.695130 0.188522
C111  C     C_3   0.036247 0.358546 0.705962 -0.873433
C112  C     C_3   0.835163 0.987164 0.744269 0.242949
H1    H     H_    0.558100 0.270238 0.145412 0.196167
H2    H     H_    0.254406 0.077702 0.586293 0.166002
H3    H     H_    0.962526 0.761095 0.729230 0.078388
H4    H     H_    0.023768 0.640219 0.682080 0.254095
H5    H     H_    0.965739 0.626924 0.768987 0.213207
H6    H     H_    0.928137 0.598471 0.674847 0.257629
H7    H     H_    0.136820 0.971949 0.784466 0.099095
H8    H     H_    0.117494 0.048619 0.720563 0.091019
H9    H     H_    0.247422 0.105000 0.756198 0.258154
H10   H     H_    0.184498 0.091532 0.839290 0.212804
H11   H     H_    0.263685 0.026869 0.821794 0.250657
H12   H     H_    0.130279 0.718509 0.278146 0.123358
H13   H     H_    0.941869 0.229795 0.645369 0.196237
H14   H     H_    0.037466 0.761082 0.270791 0.078389
H15   H     H_    0.976214 0.640223 0.317907 0.254057
H16   H     H_    0.034327 0.626877 0.231066 0.213213
H17   H     H_    0.071840 0.598479 0.325261 0.257667
H18   H     H_    0.863034 0.971929 0.215531 0.099119
H19   H     H_    0.882353 0.048632 0.279391 0.091060
H20   H     H_    0.752333 0.104892 0.243837 0.258139
H21   H     H_    0.815239 0.091493 0.160718 0.212825
H22   H     H_    0.736127 0.026751 0.178246 0.250616
H23   H     H_    0.869714 0.281586 0.278183 0.123376
H24   H     H_    0.745596 0.922299 0.586309 0.166011
H25   H     H_    0.962499 0.238967 0.270788 0.078368
H26   H     H_    0.023836 0.359761 0.317939 0.254024
H27   H     H_    0.965682 0.373205 0.231140 0.213232
H28   H     H_    0.928237 0.401551 0.325379 0.257697
H29   H     H_    0.136838 0.028035 0.215523 0.099103
H30   H     H_    0.117509 0.951365 0.279425 0.091025
H31   H     H_    0.247446 0.894994 0.243815 0.258149
H32   H     H_    0.184539 0.908459 0.160709 0.212805
H33   H     H_    0.263718 0.973127 0.178225 0.250657
H34   H     H_    0.058106 0.229774 0.354604 0.196172
H35   H     H_    0.254405 0.922294 0.413712 0.165996
H36   H     H_    0.941863 0.770209 0.354623 0.196173
H37   H     H_    0.745595 0.077711 0.413701 0.166067
H38   H     H_    0.757498 0.606118 0.717699 0.185693
H39   H     H_    0.299949 0.829999 0.901115 0.180827
H40   H     H_    0.242486 0.393886 0.717710 0.185695
H41   H     H_    0.754411 0.577701 0.086235 0.166017
H42   H     H_    0.700032 0.169997 0.901093 0.180842
H43   H     H_    0.757471 0.393911 0.282340 0.185677
H44   H     H_    0.299946 0.170011 0.098894 0.180825
H45   H     H_    0.242516 0.606103 0.282324 0.185698
H46   H     H_    0.699850 0.830027 0.099066 0.180952
H47   H     H_    0.257458 0.106092 0.217658 0.185688
H48   H     H_    0.799958 0.329997 0.401108 0.180835
H49   H     H_    0.742363 0.893814 0.217853 0.185715
H50   H     H_    0.200016 0.669994 0.401080 0.180847
H51   H     H_    0.257458 0.893909 0.782353 0.185691
H52   H     H_    0.441832 0.729827 0.145339 0.196352
H53   H     H_    0.799971 0.670010 0.598915 0.180855
H54   H     H_    0.742535 0.106090 0.782343 0.185687
H55   H     H_    0.199986 0.330000 0.598946 0.180864
H56   H     H_    0.621381 0.718572 0.714649 0.138855
H57   H     H_    0.202369 0.701012 0.832149 0.138671
H58   H     H_    0.378589 0.281414 0.714671 0.138840
H59   H     H_    0.797633 0.298989 0.832158 0.138661
H60   H     H_    0.621373 0.281437 0.285360 0.138855
H61   H     H_    0.202388 0.298993 0.167904 0.138694
H62   H     H_    0.378573 0.718627 0.285293 0.138875
H63   H     H_    0.245597 0.422299 0.086316 0.166010
H64   H     H_    0.797715 0.701042 0.167651 0.138644
H65   H     H_    0.121373 0.218583 0.214654 0.138858
H66   H     H_    0.702380 0.201020 0.332116 0.138662
H67   H     H_    0.878554 0.781446 0.214657 0.138821
H68   H     H_    0.297642 0.798991 0.332190 0.138668
H69   H     H_    0.121389 0.781400 0.785330 0.138849
H70   H     H_    0.702386 0.798989 0.667895 0.138693
H71   H     H_    0.878594 0.218612 0.785311 0.138852
H72   H     H_    0.297637 0.201018 0.667835 0.138679
H73   H     H_    0.630319 0.780971 0.222171 0.123364
H74   H     H_    0.558105 0.729773 0.854602 0.196161
H75   H     H_    0.537438 0.738476 0.229354 0.078552
H76   H     H_    0.476418 0.859669 0.182562 0.254198
H77   H     H_    0.534255 0.872421 0.269684 0.213197
H78   H     H_    0.572138 0.901297 0.175799 0.257483
H79   H     H_    0.363188 0.528082 0.284458 0.099093
H80   H     H_    0.382514 0.451405 0.220565 0.091036
H81   H     H_    0.252594 0.395018 0.256227 0.258149
H82   H     H_    0.315533 0.408495 0.339306 0.212810
H83   H     H_    0.236339 0.473151 0.321817 0.250647
H84   H     H_    0.369708 0.218418 0.221819 0.123391
H85   H     H_    0.754405 0.422292 0.913706 0.166019
H86   H     H_    0.462488 0.261050 0.229217 0.078375
H87   H     H_    0.523846 0.140265 0.182092 0.254018
H88   H     H_    0.465669 0.126809 0.268872 0.213229
H89   H     H_    0.428254 0.098463 0.174620 0.257717
H90   H     H_    0.636911 0.471998 0.284484 0.099098
H91   H     H_    0.617563 0.548654 0.220570 0.091005
H92   H     H_    0.747511 0.605031 0.256108 0.258159
H93   H     H_    0.684655 0.591575 0.339253 0.212795
H94   H     H_    0.763824 0.526906 0.321700 0.250673
H95   H     H_    0.630278 0.218445 0.778178 0.123365
H96   H     H_    0.441879 0.270219 0.854616 0.196166
H97   H     H_    0.537481 0.261045 0.770799 0.078374
H98   H     H_    0.476179 0.140229 0.817947 0.254036
H99   H     H_    0.534320 0.126813 0.731137 0.213220
H100  H     H_    0.571789 0.098459 0.825365 0.257691
H101  H     H_    0.363118 0.471953 0.715526 0.099103
H102  H     H_    0.382443 0.548633 0.779413 0.091047
H103  H     H_    0.252487 0.604975 0.743813 0.258138
H104  H     H_    0.315385 0.591518 0.660701 0.212819
H105  H     H_    0.236223 0.526836 0.678234 0.250642
H106  H     H_    0.369706 0.781597 0.778197 0.123368
H107  H     H_    0.245596 0.577707 0.913703 0.166018
H108  H     H_    0.462496 0.738990 0.770796 0.078373
H109  H     H_    0.523831 0.859776 0.817934 0.254001
H110  H     H_    0.465637 0.873244 0.731166 0.213232
H111  H     H_    0.428236 0.901563 0.825430 0.257720
H112  H     H_    0.636873 0.528041 0.715524 0.099103
H113  H     H_    0.617557 0.451359 0.779413 0.091036
H114  H     H_    0.747527 0.395037 0.743819 0.258144
H115  H     H_    0.684615 0.408472 0.660711 0.212814
H116  H     H_    0.763765 0.473173 0.678224 0.250635
H117  H     H_    0.130300 0.281360 0.721938 0.123399
H118  H     H_    0.058123 0.770210 0.645379 0.196188
H119  H     H_    0.037481 0.238781 0.729259 0.078455
H120  H     H_    0.976244 0.359703 0.682265 0.254064
H121  H     H_    0.034332 0.372926 0.769145 0.213220
H122  H     H_    0.071881 0.401442 0.675002 0.257656
H123  H     H_    0.863187 0.028061 0.784464 0.099093
H124  H     H_    0.882511 0.951386 0.720570 0.091023
H125  H     H_    0.752605 0.894991 0.756226 0.258132
H126  H     H_    0.815512 0.908498 0.839323 0.212810
H127  H     H_    0.736313 0.973137 0.821790 0.250665
H128  H     H_    0.869717 0.718511 0.721880 0.123359
N1    N     N_R   0.574080 0.369570 0.076720 -0.065074
N2    N     N_R   0.130430 0.074080 0.576720 -0.086059
N3    N     N_R   0.925920 0.130430 0.576720 -0.065091
N4    N     N_R   0.869570 0.925920 0.576720 -0.086062
N5    N     N_R   0.074080 0.130430 0.423280 -0.065097
N6    N     N_R   0.130430 0.925920 0.423280 -0.086052
N7    N     N_R   0.925920 0.869570 0.423280 -0.065096
N8    N     N_R   0.869570 0.074080 0.423280 -0.086061
N9    N     N_R   0.574050 0.630410 0.076720 -0.101335
N10   N     N_R   0.369590 0.574050 0.076720 -0.101704
N11   N     N_R   0.425950 0.369590 0.076720 -0.101245
N12   N     N_R   0.630430 0.574080 0.076720 -0.086051
N13   N     N_R   0.630410 0.425950 0.076720 -0.101688
N14   N     N_R   0.574050 0.369590 0.923280 -0.101247
N15   N     N_R   0.369590 0.425950 0.923280 -0.101700
N16   N     N_R   0.425950 0.630410 0.923280 -0.101239
N17   N     N_R   0.630410 0.574050 0.923280 -0.101696
N18   N     N_R   0.074050 0.130410 0.576720 -0.101280
N19   N     N_R   0.869590 0.074050 0.576720 -0.101700
N20   N     N_R   0.925950 0.869590 0.576720 -0.101260
N21   N     N_R   0.130410 0.925950 0.576720 -0.101704
N22   N     N_R   0.074050 0.869590 0.423280 -0.101259
N23   N     N_R   0.425920 0.630430 0.076720 -0.065117
N24   N     N_R   0.869590 0.925950 0.423280 -0.101695
N25   N     N_R   0.925950 0.130410 0.423280 -0.101235
N26   N     N_R   0.130410 0.074050 0.423280 -0.101701
N27   N     N_R   0.369570 0.425920 0.076720 -0.086061
N28   N     N_R   0.574080 0.630430 0.923280 -0.065134
N29   N     N_R   0.630430 0.425920 0.923280 -0.086057
N30   N     N_R   0.425920 0.369570 0.923280 -0.065082
N31   N     N_R   0.369570 0.574080 0.923280 -0.086050
N32   N     N_R   0.074080 0.869570 0.576720 -0.065093
Ni1   Ni    Ni4+2 0.500000 0.370760 0.000000 0.244117
Ni2   Ni    Ni4+2 0.629240 0.500000 0.000000 0.191670
Ni3   Ni    Ni4+2 0.500000 0.629240 0.000000 0.243951
Ni4   Ni    Ni4+2 0.370760 0.500000 0.000000 0.191669
Ni5   Ni    Ni4+2 0.000000 0.870760 0.500000 0.244063
Ni6   Ni    Ni4+2 0.129240 1.000000 0.500000 0.191658
Ni7   Ni    Ni4+2 0.000000 0.129240 0.500000 0.244055
Ni8   Ni    Ni4+2 0.870760 1.000000 0.500000 0.191679
O1    O     O_3   0.572856 0.762182 0.114357 -0.636451
O2    O     O_3   0.791978 0.021634 0.682754 -0.655906
O3    O     O_3   0.927125 0.737766 0.614133 -0.636290
O4    O     O_3   0.208022 0.978366 0.682751 -0.655901
O5    O     O_3   0.072871 0.737766 0.385890 -0.636284
O6    O     O_3   0.791900 0.978338 0.317296 -0.655935
O7    O     O_3   0.927125 0.262241 0.385908 -0.636277
O8    O     O_3   0.208023 0.021629 0.317252 -0.655902
O9    O     O_3   0.291973 0.521643 0.182753 -0.655912
O10   O     O_3   0.427123 0.237761 0.114097 -0.636256
O11   O     O_3   0.708053 0.478370 0.182726 -0.655883
O12   O     O_3   0.572874 0.237761 0.885911 -0.636256
O13   O     O_3   0.291948 0.478360 0.817265 -0.655912
O14   O     O_3   0.427122 0.762245 0.885920 -0.636306
O15   O     O_3   0.708045 0.521639 0.817263 -0.655918
O16   O     O_3   0.072868 0.262216 0.614184 -0.636323

loop_
_geom_bond_atom_site_label_1
_geom_bond_atom_site_label_2
_ccdc_geom_bond_type
C106  H108  S    
C33   O3    S    
N32   Ni5   S    
C105  H103  S    
C34   O4    S    
C58   H74   S    
C30   N17   A    
C68   C86   D    
C72   H53   S    
C48   C76   S    
C98   H89   S    
C36   C42   A    
C95   C96   S    
C42   C82   S    
C28   N15   A    
C37   C55   A    
C26   C40   A    
C11   H20   S    
C4    O3    S    
C93   O1    S    
C97   C98   S    
C109  H115  S    
C39   N26   A    
C94   H78   S    
C13   N3    A    
C68   H49   S    
N26   Ni6   S    
C33   C52   A    
C28   C46   A    
N17   Ni2   S    
C93   C94   S    
C23   C42   A    
C71   H51   S    
N29   Ni2   S    
C63   C81   D    
C53   C84   S    
C97   H84   S    
C16   H32   S    
C38   N25   A    
C94   H76   S    
C73   C90   D    
C23   N10   A    
C91   N31   A    
N13   Ni2   S    
C11   H21   S    
C51   C90   S    
C54   C87   S    
C108  H112  S    
C25   N12   A    
C32   O2    S    
C65   C83   D    
N5    N26   A    
C106  C107  S    
N1    Ni1   S    
C15   C16   S    
C41   C83   S    
C106  O14   S    
N4    Ni8   S    
C111  H122  S    
C108  C109  S    
C103  H98   S    
C3    H127  S    
C97   O10   S    
C60   H40   S    
C29   N16   A    
C74   C92   D    
N6    Ni6   S    
C10   O6    S    
C110  C111  S    
C74   H55   S    
N21   N32   A    
C78   H59   S    
C2    C50   A    
C1    C40   A    
C59   C71   S    
C87   H68   S    
C10   H19   S    
C108  O15   S    
C96   H83   S    
N21   Ni6   S    
C14   H26   S    
C17   N4    A    
C44   C58   A    
C8    C9    S    
N9    N12   A    
C48   C91   A    
N4    N20   A    
C64   H45   S    
C30   O15   S    
C20   H36   S    
N16   Ni3   S    
C45   C78   S    
C64   C70   S    
C27   O12   S    
C31   N18   A    
C101  H95   S    
C61   C78   D    
N7    N24   A    
N6    N22   A    
C95   H79   S    
C107  H110  S    
C13   H13   S    
C27   C45   A    
C96   H82   S    
C63   C66   S    
C101  C103  S    
C105  H104  S    
C13   C51   A    
C83   H64   S    
C61   H42   S    
C35   C54   A    
C69   H85   S    
C111  H120  S    
N2    N18   A    
N30   Ni1   S    
C30   C44   A    
C52   C89   S    
C76   H57   S    
N17   N28   A    
C1    H1    S    
C28   O13   S    
C7    H9    S    
C20   C55   A    
C99   O11   S    
C70   C87   D    
C70   H50   S    
C17   C52   A    
C6    H8    S    
C66   H47   S    
C109  H116  S    
C38   O7    S    
C21   N8    A    
C107  H111  S    
C110  H119  S    
C20   N7    A    
C61   C73   S    
N31   Ni4   S    
C60   C77   D    
N16   N31   A    
C6    O4    S    
N27   Ni4   S    
C67   C85   D    
C9    H16   S    
N8    Ni8   S    
C29   C48   A    
C45   C69   A    
N10   Ni4   S    
C58   N28   A    
C36   N23   A    
C82   H62   S    
C26   O11   S    
C2    H2    S    
C16   H31   S    
C22   N9    A    
C92   H72   S    
C11   H22   S    
N3    Ni7   S    
C49   C102  A    
C100  H94   S    
C77   H58   S    
N3    N19   A    
N8    N25   A    
N14   Ni1   S    
C104  O13   S    
C112  H124  S    
N22   Ni5   S    
C25   H41   S    
C12   H23   S    
C19   H35   S    
C18   C53   A    
C8    H12   S    
C5    H5    S    
C16   H33   S    
C66   C84   D    
C81   H61   S    
C79   H60   S    
N7    Ni5   S    
C44   C75   S    
C10   H18   S    
C32   C51   A    
C110  H117  S    
C46   C77   S    
C15   H30   S    
C62   C79   D    
C99   C100  S    
C3    C112  S    
C109  H114  S    
C65   C68   S    
N19   Ni8   S    
C57   H38   S    
C17   H24   S    
C35   O5    S    
C4    H128  S    
C40   C79   S    
C15   O8    S    
N5    Ni7   S    
C112  O2    S    
C14   H27   S    
C2    N2    A    
C64   C82   D    
C67   H48   S    
C1    N1    A    
C95   H80   S    
C3    H125  S    
C8    O5    S    
C62   C67   S    
C19   C54   A    
C50   C92   S    
C96   H81   S    
C106  H106  S    
C12   C14   S    
C43   C47   A    
N23   Ni3   S    
C22   O1    S    
C5    H4    S    
C43   C81   S    
C9    H17   S    
N1    N13   A    
N2    Ni6   S    
C7    H10   S    
C103  H99   S    
C93   H75   S    
C6    H7    S    
C31   O16   S    
C35   N22   A    
C36   H52   S    
N9    Ni3   S    
C47   N27   A    
C9    H15   S    
C62   H43   S    
C34   C49   A    
C34   N21   A    
C80   H96   S    
C37   O6    S    
C97   H86   S    
C32   N19   A    
C24   N11   A    
N25   Ni7   S    
N11   Ni1   S    
C14   H28   S    
C65   H46   S    
C23   O9    S    
C26   N13   A    
C103  H100  S    
C63   H44   S    
C21   C56   A    
C100  H93   S    
C4    H3    S    
C108  H113  S    
C6    C7    S    
C59   H39   S    
C39   O8    S    
C112  H123  S    
C49   C88   S    
N15   Ni4   S    
N14   N29   A    
C105  H105  S    
C98   H88   S    
C5    H6    S    
C75   H56   S    
C101  H97   S    
C89   H70   S    
C57   C75   D    
C55   C86   S    
C102  N32   A    
C94   H77   S    
C104  H102  S    
C99   H90   S    
C104  H101  S    
N24   Ni8   S    
C46   C80   A    
N20   Ni5   S    
C100  H92   S    
C18   N5    A    
C98   H87   S    
C56   C85   S    
C39   C53   A    
C110  O16   S    
N28   Ni3   S    
C60   C74   S    
C86   H67   S    
C111  H121  S    
C85   H66   S    
N11   N27   A    
C29   O14   S    
C80   N30   A    
C95   O9    S    
C57   C72   S    
C91   H107  S    
C84   H65   S    
C73   H54   S    
C27   N14   A    
C24   O10   S    
N10   N23   A    
C37   N24   A    
C21   H37   S    
C10   C11   S    
C3    H126  S    
C69   N29   A    
C71   C88   D    
C22   C41   A    
C12   O7    S    
C4    C5    S    
C38   C56   A    
C90   H71   S    
C19   N6    A    
C18   H34   S    
C25   C41   A    
C33   N20   A    
C99   H91   S    
N18   Ni7   S    
C102  H118  S    
C24   C43   A    
C15   H29   S    
C12   H25   S    
C72   C89   D    
C31   C50   A    
C88   H69   S    
N12   Ni2   S    
C59   C76   D    
C101  O12   S    
C47   H63   S    
C8    H14   S    
C104  C105  S    
C7    H11   S    
C107  H109  S    
N15   N30   A    
C93   H73   S    
