data_mof_unit_45160.cif
_audit_creation_date              2012-10-26T19:04:40-0400
_audit_creation_method            fapswitch 2.2
_symmetry_space_group_name_H-M    P1
_symmetry_Int_Tables_number       1
_space_group_crystal_system       triclinic
_cell_length_a                    9.60945
_cell_length_b                    10.816142
_cell_length_c                    13.415879
_cell_angle_alpha                 92.708986
_cell_angle_beta                  72.196699
_cell_angle_gamma                 88.624933
_cell_volume                      1325.06503936

loop_
_atom_site_label
_atom_site_type_symbol
_atom_type_description
_atom_site_fract_x
_atom_site_fract_y
_atom_site_fract_z
_atom_type_partial_charge
C1    C     C_R   0.496148 0.737316 0.504921 0.548933
C2    C     C_R   0.373966 0.483330 0.814446 -0.006473
C3    C     C_R   0.271141 0.886891 0.667928 -0.102970
C4    C     C_R   0.421705 0.492862 0.699705 0.520171
C5    C     C_R   0.169907 0.959363 0.747162 -0.128198
C6    C     C_R   0.175812 0.087791 0.749501 -0.127292
C7    C     C_R   0.281139 0.144797 0.671449 -0.110433
C8    C     C_R   0.384885 0.073447 0.590004 -0.023339
C9    C     C_R   0.380449 0.942473 0.588855 0.010265
C10   C     C_R   0.490486 0.871303 0.511612 -0.047553
C11   C     C_R   0.608514 0.927760 0.444835 -0.140410
C12   C     C_R   0.433159 0.472008 0.978993 0.033653
C13   C     C_R   0.621047 0.054892 0.452703 0.242392
C14   C     C_R   0.500554 0.128873 0.515025 0.000005
C15   C     C_R   0.924096 0.350231 0.348886 -0.079140
C16   C     C_R   0.500172 0.262621 0.504234 0.553415
C17   C     C_R   0.031013 0.283231 0.269989 -0.177494
C18   C     C_R   0.173580 0.278850 0.272116 -0.191874
C19   C     C_R   0.210331 0.344208 0.351421 -0.092653
C20   C     C_R   0.107903 0.424653 0.426391 0.156287
C21   C     C_R   0.958859 0.426278 0.425620 0.132550
C22   C     C_R   0.894114 0.571079 0.570565 -0.006967
C23   C     C_R   0.472582 0.446732 0.868965 0.028363
C24   C     C_R   0.042053 0.571397 0.570300 -0.009996
C25   C     C_R   0.578738 0.497405 0.299797 0.543156
C26   C     C_R   0.792357 0.395272 0.021666 -0.137593
C27   C     C_R   0.623263 0.479548 0.185214 -0.003158
C28   C     C_R   0.229860 0.521782 0.871435 -0.143508
C29   C     C_R   0.185569 0.530841 0.980180 -0.146879
C30   C     C_R   0.285969 0.508920 0.033759 -0.120961
C31   C     C_3   0.864088 0.066856 0.440215 0.008396
C32   C     C_3   0.848066 0.130794 0.548112 -0.273779
C33   C     C_3   0.981222 0.103532 0.583318 -0.472563
C34   C     C_R   0.542371 0.458618 0.029783 0.027934
C35   C     C_R   0.683118 0.407170 0.972762 0.050573
C36   C     C_R   0.712524 0.366460 0.868068 -0.146871
C37   C     C_R   0.608365 0.384417 0.817198 -0.126372
C38   C     C_R   0.516931 0.497533 0.135178 -0.135517
C39   C     C_R   0.762452 0.431040 0.127523 -0.142952
Cu1   Cu    Cu3+1 0.359340 0.500010 0.500010 0.903759
Cu2   Cu    Cu3+1 0.640660 0.499990 0.499990 0.912361
H1    H     H_    0.846394 0.417120 0.164676 0.122409
H2    H     H_    0.319819 0.326531 0.350836 0.188811
H3    H     H_    0.817079 0.321453 0.824906 0.099282
H4    H     H_    0.071090 0.630052 0.627844 0.102898
H5    H     H_    0.900093 0.356210 0.978445 0.105439
H6    H     H_    0.414422 0.542372 0.180650 0.126297
H7    H     H_    0.151483 0.547365 0.831882 0.124112
H8    H     H_    0.243916 0.518687 0.118088 0.113646
H9    H     H_    0.073608 0.559107 0.023299 0.122598
H10   H     H_    0.635066 0.345766 0.737592 0.143429
H11   H     H_    0.695380 0.872016 0.388636 0.133897
H12   H     H_    0.265412 0.787489 0.671677 0.128554
H13   H     H_    0.970363 0.089969 0.384781 0.162610
H14   H     H_    0.871664 0.964565 0.444587 0.121185
H15   H     H_    0.835262 0.232349 0.545106 0.199677
H16   H     H_    0.749419 0.098374 0.607373 0.151452
H17   H     H_    0.996057 0.002356 0.589703 0.160482
H18   H     H_    0.964280 0.151528 0.661273 0.148779
H19   H     H_    0.081177 0.138383 0.527072 0.169900
H20   H     H_    0.087805 0.915586 0.807894 0.108849
H21   H     H_    0.098279 0.143641 0.812056 0.105521
H22   H     H_    0.283692 0.244567 0.678384 0.140189
H23   H     H_    0.812896 0.629498 0.628394 0.123714
H24   H     H_    0.815208 0.334966 0.349336 0.218264
H25   H     H_    0.001105 0.227749 0.210945 0.136331
H26   H     H_    0.255406 0.220905 0.214108 0.129001
N1    N     N_R   0.852480 0.498790 0.499000 -0.255240
N2    N     N_R   0.148360 0.498710 0.498970 -0.240849
O1    O     O_R   0.381190 0.680360 0.500010 -0.495338
O2    O     O_R   0.618760 0.680340 0.500000 -0.496591
O3    O     O_R   0.323240 0.499990 0.650990 -0.518154
O4    O     O_R   0.560820 0.499960 0.650980 -0.510820
O5    O     O_R   0.381240 0.319660 0.500000 -0.535412
O6    O     O_R   0.618810 0.319640 0.499990 -0.497933
O7    O     O_R   0.439180 0.500040 0.349020 -0.517871
O8    O     O_R   0.676760 0.500010 0.349010 -0.518101
O9    O     O_3   0.751201 0.107100 0.399451 -0.578285

loop_
_geom_bond_atom_site_label_1
_geom_bond_atom_site_label_2
_ccdc_geom_bond_type
C33   H17   S    
C16   O6    A    
C11   C13   A    
C19   C20   A    
C7    C8    A    
C12   C23   A    
C17   H25   S    
C1    O2    A    
Cu1   O1    S    
C25   O8    A    
C24   H4    S    
C28   C29   A    
C18   C19   A    
Cu2   O8    S    
C5    C6    A    
C37   H10   S    
C26   C39   A    
C27   C38   A    
C15   H24   S    
C34   C35   A    
C11   H11   S    
C28   H7    S    
C35   C36   A    
C27   C39   A    
C8    C9    A    
C39   H1    S    
C9    C10   A    
Cu2   O2    S    
C33   H18   S    
C13   C14   A    
C32   H16   S    
C19   H2    S    
C24   N2    A    
Cu2   N1    S    
C29   H9    S    
Cu1   N2    S    
C18   H26   S    
C23   C37   A    
C22   H23   S    
Cu1   O7    S    
C2    C4    S    
C29   C30   A    
C3    C9    A    
Cu2   O6    S    
C31   C32   S    
C22   N1    A    
C17   C18   A    
C38   H6    S    
C5    H20   S    
C7    H22   S    
C4    O4    A    
Cu1   Cu2   S    
C30   H8    S    
C33   H19   S    
C21   N1    A    
C14   C16   S    
C20   N2    A    
C36   H3    S    
C12   C34   A    
C4    O3    A    
C31   O9    S    
C15   C17   A    
C13   O9    S    
C36   C37   A    
C8    C14   A    
Cu1   O3    S    
C12   C30   A    
C34   C38   A    
C1    C10   S    
C3    C5    A    
C6    C7    A    
C16   O5    A    
C25   C27   S    
C1    O1    A    
C25   O7    A    
C32   C33   S    
C6    H21   S    
C3    H12   S    
Cu1   O5    S    
C22   C24   A    
C31   H13   S    
C10   C11   A    
C26   H5    S    
Cu2   O4    S    
C26   C35   A    
C15   C21   A    
C20   C21   A    
C2    C23   A    
C2    C28   A    
C31   H14   S    
C32   H15   S    
