data_mof_unit_9808.cif
_audit_creation_date              2012-12-10T18:59:16-0500
_audit_creation_method            fapswitch 2.2
_symmetry_space_group_name_H-M    P1
_symmetry_Int_Tables_number       1
_space_group_crystal_system       triclinic
_cell_length_a                    10.840935
_cell_length_b                    10.818408
_cell_length_c                    9.529609
_cell_angle_alpha                 89.971667
_cell_angle_beta                  89.737408
_cell_angle_gamma                 89.75936
_cell_volume                      1117.62662144

loop_
_atom_site_label
_atom_site_type_symbol
_atom_type_description
_atom_site_fract_x
_atom_site_fract_y
_atom_site_fract_z
_atom_type_partial_charge
C1    C     C_R   0.500754 0.262221 0.499961 0.872461
C2    C     C_R   0.059365 0.504534 0.632341 -0.033233
C3    C     C_R   0.126687 0.513040 0.504560 -0.087349
C4    C     C_R   0.063640 0.506981 0.376951 -0.130125
C5    C     C_R   0.936880 0.493579 0.375483 -0.179157
C6    C     C_R   0.872169 0.472661 0.500728 -0.056544
C7    C     C_R   0.514612 0.063378 0.625664 0.246226
C8    C     C_R   0.512269 0.129031 0.499588 -0.091343
C9    C     C_R   0.528698 0.064349 0.372860 -0.165118
C10   C     C_R   0.529647 0.935531 0.372858 -0.203759
C11   C     C_R   0.514267 0.870684 0.499607 -0.103520
C12   C     C_R   0.261906 0.508196 0.501093 0.796870
C13   C     C_R   0.515645 0.936222 0.625670 0.114658
C14   C     C_3   0.430890 0.929204 0.749447 -0.471687
C15   C     C_3   0.429764 0.069586 0.749456 -0.444620
C16   C     C_R   0.548401 0.597305 0.073196 0.149165
C17   C     C_R   0.436848 0.413087 0.074529 0.680080
C18   C     C_R   0.436791 0.413306 0.925563 -0.092671
C19   C     C_R   0.547550 0.597772 0.925957 0.216940
C20   C     C_3   0.675415 0.646947 0.918016 -0.452441
C21   C     C_3   0.677322 0.644429 0.077422 -0.462355
C22   C     C_R   0.502319 0.737685 0.499912 0.794769
C23   C     C_R   0.737559 0.488259 0.500050 0.845168
C24   C     C_R   0.107353 0.538379 0.764495 -0.240739
C25   C     C_R   0.047996 0.502200 0.887579 0.612352
C26   C     C_R   0.945233 0.426019 0.880416 -0.325555
C27   C     C_R   0.891921 0.399114 0.750359 0.328614
C28   C     C_R   0.938612 0.457645 0.627624 -0.012601
Cu1   Cu    Cu3+1 0.499990 0.499980 0.640670 0.997238
Cu2   Cu    Cu3+1 0.500010 0.500020 0.359330 1.016860
H1    H     H_    0.112070 0.515220 0.277977 0.239726
H2    H     H_    0.477007 0.888915 0.842968 0.207468
H3    H     H_    0.338266 0.110184 0.723354 0.197604
H4    H     H_    0.475206 0.109933 0.843081 0.237695
H5    H     H_    0.387955 0.341756 0.869697 0.165934
H6    H     H_    0.741213 0.581037 0.869404 0.215217
H7    H     H_    0.677926 0.742009 0.873812 0.202341
H8    H     H_    0.743289 0.575345 0.119670 0.207578
H9    H     H_    0.682851 0.737932 0.125155 0.202909
H10   H     H_    0.188440 0.595345 0.774477 0.188290
H11   H     H_    0.909348 0.384906 0.975787 0.176986
H12   H     H_    0.889907 0.499585 0.275907 0.166618
H13   H     H_    0.534995 0.112527 0.273432 0.193966
H14   H     H_    0.536276 0.887467 0.273420 0.167629
H15   H     H_    0.340028 0.887988 0.723303 0.208368
N1    N     N_R   0.500790 0.500930 0.147930 -0.245656
N2    N     N_R   0.500790 0.500890 0.852020 -0.204813
O1    O     O_R   0.500000 0.319640 0.618810 -0.534578
O2    O     O_R   0.500010 0.319680 0.381230 -0.540496
O3    O     O_R   0.319640 0.499980 0.618820 -0.603050
O4    O     O_R   0.319650 0.500020 0.381230 -0.536566
O5    O     O_R   0.499990 0.680320 0.618770 -0.587762
O6    O     O_R   0.500000 0.680360 0.381190 -0.586869
O7    O     O_R   0.680350 0.499980 0.618770 -0.556226
O8    O     O_R   0.680360 0.500020 0.381180 -0.604850
F1    F     F_    0.373695 0.323947 0.143731 -0.646779
F2    F     F_    0.096472 0.532441 0.013642 -0.683215
S1    S     S_3+6 0.800898 0.264046 0.742300 0.012388
O9    O     O_2   0.771641 0.230142 0.593382 -0.302242
O10   O     O_2   0.871597 0.158997 0.807370 -0.275203
O11   O     O_3   0.670030 0.284704 0.834074 -0.525532
H16   H     H_    0.696261 0.292925 0.933039 0.324535

loop_
_geom_bond_atom_site_label_1
_geom_bond_atom_site_label_2
_ccdc_geom_bond_type
C12   O3    A    
C5    H12   S    
C1    O1    A    
C23   O8    A    
Cu1   Cu2   S    
C22   O6    A    
C1    C8    S    
C9    C10   A    
C11   C22   S    
C19   C20   S    
C21   H9    S    
C10   H14   S    
Cu2   O4    S    
Cu1   O7    S    
C18   N2    A    
C20   C21   S    
S1    O11   S    
C7    C15   S    
C17   C18   A    
S1    O9    D    
C7    C8    A    
C13   C14   S    
C24   C25   A    
C20   H7    S    
C11   C13   A    
C17   F1    S    
C26   C27   A    
C16   C21   S    
C25   F2    S    
Cu1   N2    S    
C16   C19   A    
C5    C6    A    
C6    C23   S    
C24   H10   S    
Cu2   O2    S    
C15   H3    S    
C2    C3    A    
C14   H15   S    
Cu1   O3    S    
C2    C24   A    
O11   H16   S    
Cu1   O5    S    
Cu2   O6    S    
C19   N2    A    
C9    H13   S    
C4    H1    S    
C10   C11   A    
Cu1   O1    S    
S1    O10   D    
C3    C4    A    
C20   H6    S    
C7    C13   A    
C12   O4    A    
C17   N1    A    
C23   O7    A    
C22   O5    A    
C18   H5    S    
C16   N1    A    
C27   C28   A    
C14   C15   S    
C4    C5    A    
C2    C28   A    
C3    C12   S    
C15   H4    S    
C25   C26   A    
C1    O2    A    
Cu2   O8    S    
Cu2   N1    S    
C6    C28   A    
C21   H8    S    
C26   H11   S    
C14   H2    S    
C8    C9    A    
C27   S1    S    
