data_mof_unit_16026.cif
_audit_creation_date              2012-12-10T17:39:50-0500
_audit_creation_method            fapswitch 2.2
_symmetry_space_group_name_H-M    P1
_symmetry_Int_Tables_number       1
_space_group_crystal_system       triclinic
_cell_length_a                    21.283919
_cell_length_b                    21.279492
_cell_length_c                    13.699749
_cell_angle_alpha                 89.965367
_cell_angle_beta                  90.000059
_cell_angle_gamma                 89.999941
_cell_volume                      6204.76566783

loop_
_atom_site_label
_atom_site_type_symbol
_atom_type_description
_atom_site_fract_x
_atom_site_fract_y
_atom_site_fract_z
_atom_type_partial_charge
C1    C     C_R   0.087110 0.416028 0.500040 0.810505
C2    C     C_R   0.912890 0.583972 0.499959 0.810508
C3    C     C_R   0.912890 0.416028 0.500040 0.810503
C4    C     C_R   0.087110 0.583971 0.499959 0.810504
C5    C     C_R   0.587110 0.916028 0.500040 0.810508
C6    C     C_R   0.412890 0.083972 0.499959 0.810506
C7    C     C_R   0.412890 0.916029 0.500040 0.810505
C8    C     C_R   0.587110 0.083972 0.499960 0.810504
C9    C     C_R   0.055805 0.500001 0.793333 0.018204
C10   C     C_R   0.944195 0.499998 0.206667 0.018205
C11   C     C_R   0.944195 0.500004 0.793332 0.018206
C12   C     C_R   0.055805 0.499996 0.206668 0.018204
C13   C     C_R   0.555805 0.000002 0.793333 0.018205
C14   C     C_R   0.444195 0.999998 0.206667 0.018204
C15   C     C_R   0.444195 0.000004 0.793332 0.018203
C16   C     C_R   0.555805 0.999996 0.206668 0.018206
C17   C     C_R   0.942861 0.500012 0.896391 -0.006311
C18   C     C_R   0.057139 0.499988 0.103609 -0.006311
C19   C     C_R   0.057139 0.500009 0.896391 -0.006310
C20   C     C_R   0.942861 0.499991 0.103609 -0.006311
C21   C     C_R   0.442861 0.000011 0.896391 -0.006311
C22   C     C_R   0.557139 0.999988 0.103609 -0.006311
C23   C     C_R   0.557139 0.000009 0.896391 -0.006311
C24   C     C_R   0.442861 0.999991 0.103609 -0.006310
C25   C     C_R   0.000000 0.500005 0.948183 0.087374
C26   C     C_R   1.000000 0.499995 0.051817 0.087374
C27   C     C_R   0.500000 0.000005 0.948183 0.087374
C28   C     C_R   0.500000 0.999994 0.051817 0.087374
C29   C     C_R   0.886005 0.500015 0.948676 -0.198507
C30   C     C_R   0.113995 0.499985 0.051324 -0.198507
C31   C     C_R   0.113995 0.500009 0.948676 -0.198510
C32   C     C_R   0.886005 0.499991 0.051324 -0.198507
C33   C     C_R   0.386005 0.000014 0.948676 -0.198507
C34   C     C_R   0.613995 0.999985 0.051324 -0.198507
C35   C     C_R   0.613995 0.000009 0.948676 -0.198507
C36   C     C_R   0.386005 0.999991 0.051324 -0.198509
C37   C     C_R   0.128636 0.683732 0.442995 -0.293452
C38   C     C_R   0.871375 0.316257 0.556980 -0.293446
C39   C     C_R   0.871372 0.683740 0.443014 -0.293449
C40   C     C_R   0.128624 0.316256 0.556978 -0.293446
C41   C     C_R   0.628626 0.183742 0.443018 -0.293447
C42   C     C_R   0.371364 0.816267 0.557005 -0.293452
C43   C     C_R   0.371376 0.183744 0.443022 -0.293446
C44   C     C_R   0.628628 0.816260 0.556987 -0.293449
C45   C     C_R   0.137554 0.629960 0.499601 -0.063358
C46   C     C_R   0.862448 0.370038 0.500397 -0.063344
C47   C     C_R   0.862448 0.629961 0.499602 -0.063346
C48   C     C_R   0.137552 0.370038 0.500398 -0.063343
C49   C     C_R   0.637552 0.129961 0.499602 -0.063343
C50   C     C_R   0.362446 0.870040 0.500398 -0.063357
C51   C     C_R   0.362448 0.129962 0.499602 -0.063342
C52   C     C_R   0.637553 0.870039 0.500398 -0.063346
C53   C     C_R   0.193129 0.621454 0.554893 0.124410
C54   C     C_R   0.806865 0.378552 0.445128 0.124401
C55   C     C_R   0.806866 0.621449 0.554876 0.124404
C56   C     C_R   0.193137 0.378554 0.445132 0.124397
C57   C     C_R   0.693136 0.121447 0.554871 0.124403
C58   C     C_R   0.306870 0.878546 0.445108 0.124410
C59   C     C_R   0.306863 0.121446 0.554868 0.124397
C60   C     C_R   0.693134 0.878551 0.445124 0.124403
C61   C     C_R   0.237939 0.670623 0.556887 0.104686
C62   C     C_R   0.762053 0.329385 0.443136 0.104688
C63   C     C_R   0.762054 0.670616 0.556868 0.104688
C64   C     C_R   0.237949 0.329387 0.443141 0.104688
C65   C     C_R   0.737948 0.170614 0.556862 0.104689
C66   C     C_R   0.262060 0.829377 0.443113 0.104686
C67   C     C_R   0.262051 0.170613 0.556860 0.104689
C68   C     C_R   0.737946 0.829384 0.443132 0.104688
C69   C     C_R   0.227735 0.725465 0.499950 0.028673
C70   C     C_R   0.772266 0.274534 0.500049 0.028670
C71   C     C_R   0.772266 0.725466 0.499950 0.028672
C72   C     C_R   0.227734 0.274534 0.500050 0.028669
C73   C     C_R   0.727735 0.225465 0.499948 0.028670
C74   C     C_R   0.272265 0.774534 0.500051 0.028673
C75   C     C_R   0.272266 0.225466 0.499950 0.028669
C76   C     C_R   0.727735 0.774534 0.500051 0.028672
C77   C     C_R   0.173173 0.731337 0.442517 0.110641
C78   C     C_R   0.826838 0.268652 0.557456 0.110645
C79   C     C_R   0.826835 0.731345 0.442537 0.110643
C80   C     C_R   0.173161 0.268651 0.557455 0.110645
C81   C     C_R   0.673163 0.231347 0.442541 0.110645
C82   C     C_R   0.326827 0.768663 0.557482 0.110642
C83   C     C_R   0.326839 0.231349 0.442545 0.110645
C84   C     C_R   0.673165 0.768655 0.557463 0.110643
C85   C     C_R   0.292856 0.666514 0.614032 -0.208327
C86   C     C_R   0.707125 0.333505 0.386017 -0.208325
C87   C     C_R   0.707130 0.666499 0.613992 -0.208328
C88   C     C_R   0.292877 0.333508 0.386025 -0.208324
C89   C     C_R   0.792876 0.166494 0.613979 -0.208327
C90   C     C_R   0.207144 0.833486 0.385969 -0.208327
C91   C     C_R   0.207123 0.166492 0.613975 -0.208325
C92   C     C_R   0.792870 0.833501 0.386008 -0.208328
C93   C     C_R   0.836691 0.214902 0.614029 -0.205605
C94   C     C_R   0.163330 0.785077 0.385918 -0.205606
C95   C     C_R   0.163308 0.214900 0.614026 -0.205603
C96   C     C_R   0.836685 0.785092 0.385958 -0.205605
C97   C     C_R   0.336670 0.714923 0.614082 -0.205606
C98   C     C_R   0.663311 0.285096 0.385966 -0.205603
C99   C     C_R   0.663315 0.714908 0.614043 -0.205605
C100  C     C_R   0.336692 0.285100 0.385974 -0.205603
Cu1   Cu    Cu3+1 0.000000 0.500000 0.597420 0.939605
Cu2   Cu    Cu3+1 0.000000 0.500000 0.402580 0.939603
Cu3   Cu    Cu3+1 0.500000 1.000000 0.597420 0.939603
Cu4   Cu    Cu3+1 0.500000 1.000000 0.402580 0.939605
H1    H     H_    0.085949 0.688924 0.400345 0.150709
H2    H     H_    0.914068 0.311059 0.599612 0.150693
H3    H     H_    0.914064 0.688936 0.400379 0.150699
H4    H     H_    0.085929 0.311057 0.599607 0.150692
H5    H     H_    0.585932 0.188940 0.400386 0.150694
H6    H     H_    0.414051 0.811076 0.599654 0.150708
H7    H     H_    0.414070 0.188943 0.400393 0.150692
H8    H     H_    0.585936 0.811064 0.599622 0.150699
H9    H     H_    0.302575 0.626232 0.659731 0.157043
H10   H     H_    0.697398 0.373794 0.340338 0.157042
H11   H     H_    0.697405 0.626211 0.659675 0.157044
H12   H     H_    0.302606 0.373799 0.340349 0.157042
H13   H     H_    0.802603 0.126204 0.659657 0.157044
H14   H     H_    0.197425 0.873768 0.340270 0.157043
H15   H     H_    0.197395 0.126201 0.659651 0.157043
H16   H     H_    0.802596 0.873789 0.340325 0.157044
H17   H     H_    0.878544 0.210214 0.658538 0.142099
H18   H     H_    0.121485 0.789757 0.341389 0.142099
H19   H     H_    0.121454 0.210211 0.658533 0.142098
H20   H     H_    0.878536 0.789778 0.341444 0.142100
H21   H     H_    0.378515 0.710243 0.658612 0.142100
H22   H     H_    0.621457 0.289784 0.341457 0.142098
H23   H     H_    0.621464 0.710222 0.658557 0.142100
H24   H     H_    0.378546 0.289789 0.341467 0.142098
H25   H     H_    0.099329 0.499973 0.752457 0.131862
H26   H     H_    0.900670 0.500026 0.247543 0.131863
H27   H     H_    0.900670 0.499978 0.752456 0.131864
H28   H     H_    0.099330 0.500022 0.247543 0.131864
H29   H     H_    0.599329 0.999974 0.752457 0.131863
H30   H     H_    0.400670 0.000027 0.247543 0.131862
H31   H     H_    0.400670 0.999978 0.752456 0.131864
H32   H     H_    0.599330 0.000022 0.247543 0.131864
H33   H     H_    0.841535 0.500035 0.910200 0.137297
H34   H     H_    0.158465 0.499965 0.089799 0.137297
H35   H     H_    0.158465 0.500027 0.910201 0.137296
H36   H     H_    0.841535 0.499973 0.089799 0.137297
H37   H     H_    0.341535 0.000034 0.910200 0.137297
H38   H     H_    0.658465 0.999965 0.089799 0.137297
H39   H     H_    0.658465 0.000027 0.910201 0.137297
H40   H     H_    0.341535 0.999973 0.089799 0.137296
N1    N     N_R   0.000000 0.500000 0.743810 -0.184528
N2    N     N_R   0.000000 0.500000 0.256190 -0.184529
N3    N     N_R   0.500000 1.000000 0.743810 -0.184529
N4    N     N_R   0.500000 1.000000 0.256190 -0.184528
O1    O     O_R   0.064880 0.435140 0.582280 -0.592764
O2    O     O_R   0.935120 0.564860 0.417720 -0.592766
O3    O     O_R   0.935120 0.564860 0.582280 -0.572858
O4    O     O_R   0.064880 0.435140 0.417720 -0.572860
O5    O     O_R   0.935120 0.435140 0.417720 -0.572859
O6    O     O_R   0.064880 0.564860 0.582280 -0.572855
O7    O     O_R   0.064880 0.564860 0.417720 -0.592768
O8    O     O_R   0.935120 0.435140 0.582280 -0.592763
O9    O     O_R   0.564880 0.935140 0.582280 -0.592766
O10   O     O_R   0.435120 0.064860 0.417720 -0.592764
O11   O     O_R   0.435120 0.064860 0.582280 -0.572860
O12   O     O_R   0.564880 0.935140 0.417720 -0.572858
O13   O     O_R   0.435120 0.935140 0.417720 -0.572855
O14   O     O_R   0.564880 0.064860 0.582280 -0.572859
O15   O     O_R   0.564880 0.064860 0.417720 -0.592764
O16   O     O_R   0.435120 0.935140 0.582280 -0.592768
C101  C     C_3   0.206263 0.559984 0.607539 -0.890785
H41   H     H_    0.206073 0.567831 0.687650 0.230093
H42   H     H_    0.172183 0.522284 0.590642 0.236331
H43   H     H_    0.252739 0.541388 0.584726 0.228195
C102  C     C_3   0.793726 0.440028 0.392501 -0.890793
H44   H     H_    0.793895 0.432188 0.312388 0.230093
H45   H     H_    0.747257 0.458628 0.415347 0.228201
H46   H     H_    0.827815 0.477722 0.409383 0.236330
C103  C     C_3   0.793728 0.559974 0.607506 -0.890804
H47   H     H_    0.747259 0.541375 0.584666 0.228201
H48   H     H_    0.793902 0.567815 0.687617 0.230095
H49   H     H_    0.827816 0.522279 0.590621 0.236331
C104  C     C_3   0.206277 0.440032 0.392511 -0.890791
H50   H     H_    0.206112 0.432193 0.312398 0.230091
H51   H     H_    0.252744 0.458632 0.415364 0.228204
H52   H     H_    0.172185 0.477724 0.409391 0.236325
C105  C     C_3   0.706275 0.059971 0.607498 -0.890808
H53   H     H_    0.752741 0.041370 0.584649 0.228203
H54   H     H_    0.706108 0.067811 0.687610 0.230095
H55   H     H_    0.672184 0.022278 0.590620 0.236332
C106  C     C_3   0.293736 0.940016 0.392463 -0.890790
H56   H     H_    0.293924 0.932170 0.312352 0.230093
H57   H     H_    0.247261 0.958613 0.415280 0.228197
H58   H     H_    0.327817 0.977715 0.409359 0.236332
C107  C     C_3   0.293723 0.059969 0.607490 -0.890792
H59   H     H_    0.247256 0.041369 0.584638 0.228204
H60   H     H_    0.293889 0.067807 0.687603 0.230092
H61   H     H_    0.327815 0.022276 0.590609 0.236326
C108  C     C_3   0.706272 0.940026 0.392495 -0.890803
H62   H     H_    0.706100 0.932185 0.312383 0.230094
H63   H     H_    0.752741 0.958625 0.415336 0.228202
H64   H     H_    0.672184 0.977721 0.409379 0.236332

loop_
_geom_bond_atom_site_label_1
_geom_bond_atom_site_label_2
_ccdc_geom_bond_type
C2    O2    A    
C4    O6    A    
C38   H2    S    
Cu1   Cu2   S    
C30   H34   S    
C70   C78   A    
C17   C29   A    
C102  H44   S    
Cu4   N4    S    
C69   C77   A    
C42   C82   A    
C3    O5    A    
C19   C31   A    
C76   C84   A    
Cu4   O15   S    
C57   C105  S    
C6    O11   A    
Cu3   N3    S    
C66   C90   A    
C103  H47   S    
C35   H39   S    
C39   H3    S    
C62   C86   A    
Cu1   N1    S    
Cu3   O16   S    
C101  H41   S    
C9    N1    A    
C90   H14   S    
C47   C55   A    
C93   H17   S    
C32   H36   S    
C29   C32   A    
C30   C31   A    
C106  H57   S    
C15   H31   S    
C81   C98   A    
C78   C93   A    
C14   C24   A    
C66   C74   A    
C14   N4    A    
C43   C83   A    
C92   C96   A    
C33   C36   A    
C49   C57   A    
C62   C70   A    
C1    O4    A    
C40   C48   A    
C34   C35   A    
C12   N2    A    
C107  H60   S    
C55   C103  S    
C5    O12   A    
C52   C60   A    
C59   C67   A    
C53   C61   A    
C58   C66   A    
C11   C17   A    
C68   C92   A    
C10   C20   A    
C104  H51   S    
C55   C63   A    
C40   C80   A    
C5    C52   S    
C1    O1    A    
C18   C30   A    
C21   C33   A    
C23   C27   A    
C6    C51   S    
Cu3   Cu4   S    
C87   H11   S    
C40   H4    S    
C44   C52   A    
C105  H54   S    
C21   C27   A    
C45   C53   A    
C101  H42   S    
C41   H5    S    
C58   C106  S    
C102  H45   S    
C54   C102  S    
C43   H7    S    
C8    C49   S    
Cu4   O12   S    
C72   C75   A    
C19   C25   A    
C95   H19   S    
C71   C79   A    
C6    O10   A    
C13   C23   A    
C9    C19   A    
C60   C108  S    
C90   C94   A    
C87   C99   A    
C56   C104  S    
C103  H48   S    
C22   C34   A    
C5    O9    A    
C67   C91   A    
C96   H20   S    
C4    C45   S    
C50   C58   A    
C97   H21   S    
C65   C73   A    
C57   C65   A    
Cu4   O13   S    
C108  H63   S    
Cu3   O9    S    
C106  H58   S    
C99   H23   S    
C14   H30   S    
Cu1   O8    S    
C33   H37   S    
C25   C26   A    
C105  H53   S    
C37   C77   A    
Cu1   O3    S    
C39   C79   A    
C88   H12   S    
C107  H61   S    
C65   C89   A    
C10   H26   S    
C37   H1    S    
C7    O13   A    
C98   H22   S    
C104  H52   S    
C41   C81   A    
C18   C26   A    
C46   C54   A    
C70   C73   A    
C56   C64   A    
C69   C74   A    
Cu2   O2    S    
C24   C36   A    
C80   C95   A    
Cu2   O5    S    
C88   C100  A    
C61   C85   A    
C73   C81   A    
C94   H18   S    
C53   C101  S    
C42   C50   A    
C89   H13   S    
C101  H43   S    
C23   C35   A    
C83   C100  A    
C102  H46   S    
C91   H15   S    
C59   C107  S    
C51   C59   A    
C13   N3    A    
C31   H35   S    
C10   N2    A    
C44   H8    S    
C75   C83   A    
C29   H33   S    
C39   C47   A    
C20   C32   A    
C105  H55   S    
C61   C69   A    
C2    O3    A    
C48   C56   A    
C34   H38   S    
Cu3   O14   S    
C16   C22   A    
C12   H28   S    
C63   C87   A    
C100  H24   S    
C84   C99   A    
C13   H29   S    
C11   N1    A    
C24   C28   A    
C7    C50   S    
Cu4   O10   S    
C44   C84   A    
C8    O15   A    
C11   H27   S    
C103  H49   S    
C1    C48   S    
C9    H25   S    
C2    C47   S    
C68   C76   A    
C41   C49   A    
C54   C62   A    
C7    O16   A    
C3    C46   S    
C38   C78   A    
C86   H10   S    
C16   N4    A    
C17   C25   A    
C85   H9    S    
C42   H6    S    
C79   C96   A    
C72   C80   A    
C8    O14   A    
Cu2   N2    S    
C108  H64   S    
C15   N3    A    
Cu3   O11   S    
C106  H56   S    
C71   C76   A    
C20   C26   A    
Cu1   O6    S    
C43   C51   A    
Cu2   O7    S    
Cu1   O1    S    
C3    O8    A    
C82   C97   A    
C92   H16   S    
C64   C72   A    
C89   C93   A    
C107  H59   S    
C86   C98   A    
C38   C46   A    
C85   C97   A    
C104  H50   S    
C91   C95   A    
C15   C21   A    
C4    O7    A    
C67   C75   A    
C60   C68   A    
C108  H62   S    
C12   C18   A    
C27   C28   A    
C77   C94   A    
C22   C28   A    
C36   H40   S    
C37   C45   A    
C63   C71   A    
C64   C88   A    
C74   C82   A    
Cu2   O4    S    
C16   H32   S    
