data_mof_unit_10059.cif
_audit_creation_date              2012-12-11T15:35:24-0500
_audit_creation_method            fapswitch 2.2
_symmetry_space_group_name_H-M    P1
_symmetry_Int_Tables_number       1
_space_group_crystal_system       triclinic
_cell_length_a                    17.288999
_cell_length_b                    24.217666
_cell_length_c                    14.8399
_cell_angle_alpha                 90.000111
_cell_angle_beta                  125.066368
_cell_angle_gamma                 89.999783
_cell_volume                      5085.63218558

loop_
_atom_site_label
_atom_site_type_symbol
_atom_type_description
_atom_site_fract_x
_atom_site_fract_y
_atom_site_fract_z
_atom_type_partial_charge
C1    C     C_R   0.350538 0.152146 0.907892 -0.134833
C2    C     C_R   0.350538 0.847854 0.907892 -0.134832
C3    C     C_R   0.850538 0.652146 0.907892 -0.134832
C4    C     C_R   0.850538 0.347854 0.907892 -0.134832
C5    C     C_R   0.690407 0.122142 0.092696 -0.137712
C6    C     C_R   0.690407 0.877857 0.092696 -0.137710
C7    C     C_R   0.190407 0.622142 0.092696 -0.137713
C8    C     C_R   0.190407 0.377857 0.092695 -0.137710
C9    C     C_R   0.599509 0.875259 0.909172 -0.118432
C10   C     C_R   0.599509 0.124741 0.909172 -0.118431
C11   C     C_R   0.099508 0.375259 0.909171 -0.118432
C12   C     C_R   0.099509 0.624741 0.909172 -0.118430
C13   C     C_R   0.434600 0.000000 0.631659 0.046342
C14   C     C_R   0.934600 0.500000 0.631659 0.046342
C15   C     C_R   0.798716 1.000000 0.370125 -0.001335
C16   C     C_R   0.298716 0.500000 0.370125 -0.001335
C17   C     C_R   0.690082 0.135821 0.001715 0.063296
C18   C     C_R   0.690082 0.864179 0.001714 0.063295
C19   C     C_R   0.190082 0.635821 0.001715 0.063296
C20   C     C_R   0.190082 0.364179 0.001713 0.063295
C21   C     C_3   0.021626 0.948200 0.641516 -0.398221
C22   C     C_3   0.021626 0.051801 0.641516 -0.398222
C23   C     C_3   0.521626 0.448200 0.641516 -0.398221
C24   C     C_3   0.521626 0.551801 0.641515 -0.398220
C25   C     C_3   0.917222 0.948118 0.542595 -0.407230
C26   C     C_3   0.917222 0.051882 0.542594 -0.407228
C27   C     C_3   0.417222 0.448118 0.542595 -0.407230
C28   C     C_3   0.417222 0.551882 0.542594 -0.407230
C29   C     C_3   0.063807 1.000000 0.526912 -0.393184
C30   C     C_3   0.563806 0.500000 0.526911 -0.393184
C31   C     C_3   0.072289 0.000000 0.636744 0.392972
C32   C     C_3   0.572290 0.500000 0.636744 0.392971
C33   C     C_3   0.895828 0.000000 0.470073 0.399928
C34   C     C_3   0.395828 0.500000 0.470073 0.399928
C35   C     C_R   0.445453 0.846783 0.090939 -0.154795
C36   C     C_R   0.445452 0.153217 0.090938 -0.154792
C37   C     C_R   0.945452 0.346783 0.090939 -0.154794
C38   C     C_R   0.945452 0.653217 0.090938 -0.154791
C39   C     C_3   0.960617 1.000000 0.429504 -0.390290
C40   C     C_3   0.460617 0.500000 0.429504 -0.390290
C41   C     C_R   0.312598 0.722473 0.910057 -0.014535
C42   C     C_R   0.312594 0.277527 0.910051 -0.014534
C43   C     C_R   0.812597 0.222473 0.910056 -0.014536
C44   C     C_R   0.812594 0.777527 0.910051 -0.014533
C45   C     C_R   0.763813 0.176049 0.911196 -0.015770
C46   C     C_R   0.763810 0.823951 0.911192 -0.015770
C47   C     C_R   0.263813 0.676049 0.911197 -0.015771
C48   C     C_R   0.263810 0.323951 0.911191 -0.015768
C49   C     C_R   0.766105 0.165528 0.006147 0.114737
C50   C     C_R   0.766107 0.834474 0.006145 0.114735
C51   C     C_R   0.266104 0.665528 0.006147 0.114738
C52   C     C_R   0.266106 0.334474 0.006143 0.114736
C53   C     C_R   0.833777 0.192071 0.104760 -0.203040
C54   C     C_R   0.833786 0.807934 0.104760 -0.203039
C55   C     C_R   0.333775 0.692073 0.104760 -0.203041
C56   C     C_R   0.333784 0.307934 0.104758 -0.203041
C57   C     C_R   0.380065 0.737643 0.103381 -0.204984
C58   C     C_R   0.380074 0.262363 0.103380 -0.204982
C59   C     C_R   0.880066 0.237642 0.103382 -0.204983
C60   C     C_R   0.880076 0.762364 0.103382 -0.204979
C61   C     C_R   0.361584 0.756858 0.003894 0.112440
C62   C     C_R   0.361585 0.243144 0.003891 0.112438
C63   C     C_R   0.861583 0.256858 0.003894 0.112439
C64   C     C_R   0.861586 0.743144 0.003892 0.112437
C65   C     C_R   0.389629 0.949994 0.462350 -0.177206
C66   C     C_R   0.389630 0.050007 0.462351 -0.177206
C67   C     C_R   0.889629 0.449993 0.462350 -0.177206
C68   C     C_R   0.889630 0.550007 0.462351 -0.177206
C69   C     C_R   0.389645 0.950026 0.369132 -0.172098
C70   C     C_R   0.389645 0.049975 0.369132 -0.172098
C71   C     C_R   0.889645 0.450026 0.369132 -0.172098
C72   C     C_R   0.889645 0.549975 0.369132 -0.172098
C73   C     C_R   0.401107 0.000000 0.330475 0.145962
C74   C     C_R   0.901107 0.500000 0.330475 0.145962
C75   C     C_R   0.478188 0.045977 0.246930 -0.127887
C76   C     C_R   0.478188 0.954024 0.246930 -0.127886
C77   C     C_R   0.978188 0.545976 0.246930 -0.127887
C78   C     C_R   0.978188 0.454024 0.246930 -0.127885
C79   C     C_R   0.399683 0.000000 0.515715 0.143120
C80   C     C_R   0.899683 0.500000 0.515715 0.143120
C81   C     C_R   0.230865 0.953583 0.751204 -0.137887
C82   C     C_R   0.230865 0.046417 0.751204 -0.137886
C83   C     C_R   0.730865 0.453583 0.751204 -0.137886
C84   C     C_R   0.730865 0.546417 0.751204 -0.137886
C85   C     C_R   0.383917 0.185158 0.999725 0.072589
C86   C     C_R   0.383917 0.814843 0.999726 0.072590
C87   C     C_R   0.883917 0.685158 0.999725 0.072588
C88   C     C_R   0.883916 0.314843 0.999726 0.072590
C89   C     C_R   0.445822 0.000000 0.271740 0.037462
C90   C     C_R   0.945822 0.500000 0.271740 0.037462
C91   C     C_R   0.174234 0.000000 0.724566 -0.004677
C92   C     C_R   0.674234 0.500000 0.724566 -0.004677
C93   C     C_R   0.450809 0.045641 0.695987 -0.138186
C94   C     C_R   0.450809 0.954359 0.695986 -0.138187
C95   C     C_R   0.950809 0.545641 0.695987 -0.138186
C96   C     C_R   0.950809 0.454359 0.695986 -0.138186
C97   C     C_R   0.753104 0.954098 0.306232 -0.152275
C98   C     C_R   0.753104 0.045902 0.306232 -0.152276
C99   C     C_R   0.253104 0.454098 0.306232 -0.152276
C100  C     C_R   0.253104 0.545902 0.306232 -0.152275
H1    H     H_    0.946506 0.962940 0.377638 0.156717
H2    H     H_    0.946506 0.037059 0.377637 0.156718
H3    H     H_    0.446506 0.462940 0.377638 0.156717
H4    H     H_    0.446506 0.537059 0.377637 0.156718
H5    H     H_    0.843631 0.182782 0.181834 0.115615
H6    H     H_    0.843647 0.817226 0.181837 0.115614
H7    H     H_    0.343627 0.682785 0.181833 0.115616
H8    H     H_    0.343643 0.317225 0.181834 0.115615
H9    H     H_    0.421861 0.760725 0.179206 0.116965
H10   H     H_    0.421878 0.239283 0.179208 0.116963
H11   H     H_    0.921864 0.260724 0.179208 0.116964
H12   H     H_    0.921882 0.739284 0.179211 0.116962
H13   H     H_    0.391226 0.910576 0.497473 0.104631
H14   H     H_    0.391226 0.089425 0.497474 0.104631
H15   H     H_    0.891226 0.410576 0.497473 0.104631
H16   H     H_    0.891226 0.589425 0.497474 0.104631
H17   H     H_    0.391432 0.910663 0.336052 0.106355
H18   H     H_    0.391432 0.089337 0.336053 0.106356
H19   H     H_    0.891432 0.410664 0.336052 0.106355
H20   H     H_    0.891432 0.589337 0.336053 0.106356
H21   H     H_    0.467728 0.088918 0.256409 0.092576
H22   H     H_    0.467728 0.911083 0.256409 0.092575
H23   H     H_    0.967728 0.588918 0.256409 0.092576
H24   H     H_    0.967728 0.411083 0.256409 0.092575
H25   H     H_    0.209588 0.910875 0.735242 0.088968
H26   H     H_    0.209588 0.089125 0.735242 0.088967
H27   H     H_    0.709588 0.410875 0.735242 0.088968
H28   H     H_    0.709588 0.589125 0.735242 0.088968
H29   H     H_    0.765083 0.911517 0.332556 0.084297
H30   H     H_    0.765083 0.088483 0.332556 0.084297
H31   H     H_    0.265083 0.411517 0.332556 0.084297
H32   H     H_    0.265083 0.588483 0.332556 0.084297
H33   H     H_    0.748317 0.124957 0.178175 0.091874
H34   H     H_    0.748316 0.875042 0.178175 0.091873
H35   H     H_    0.248317 0.624957 0.178175 0.091874
H36   H     H_    0.248317 0.375042 0.178174 0.091873
H37   H     H_    0.054397 0.909501 0.638365 0.145465
H38   H     H_    0.054396 0.090500 0.638365 0.145464
H39   H     H_    0.554397 0.409501 0.638366 0.145464
H40   H     H_    0.554396 0.590499 0.638364 0.145464
N1    N     N_R   0.392140 0.102630 0.941800 -0.039282
N2    N     N_R   0.392140 0.897370 0.941800 -0.039282
N3    N     N_R   0.892140 0.602630 0.941800 -0.039282
N4    N     N_R   0.892140 0.397370 0.941800 -0.039282
N5    N     N_R   0.450890 0.896450 0.057150 -0.037128
N6    N     N_R   0.450890 0.103550 0.057150 -0.037129
N7    N     N_R   0.950890 0.396450 0.057150 -0.037128
N8    N     N_R   0.950890 0.603550 0.057150 -0.037129
N9    N     N_R   0.525160 0.027960 0.206160 -0.038144
N10   N     N_R   0.525160 0.972040 0.206160 -0.038144
N11   N     N_R   0.025160 0.527960 0.206160 -0.038144
N12   N     N_R   0.025160 0.472040 0.206160 -0.038144
N13   N     N_R   0.317870 0.971120 0.792790 -0.036674
N14   N     N_R   0.317870 0.028880 0.792790 -0.036674
N15   N     N_R   0.817870 0.471120 0.792790 -0.036674
N16   N     N_R   0.817870 0.528880 0.792790 -0.036674
N17   N     N_R   0.473480 0.027920 0.793480 -0.037271
N18   N     N_R   0.473480 0.972080 0.793480 -0.037271
N19   N     N_R   0.973480 0.527920 0.793480 -0.037271
N20   N     N_R   0.973480 0.472080 0.793480 -0.037271
N21   N     N_R   0.681610 0.971120 0.207570 -0.032224
N22   N     N_R   0.681610 0.028880 0.207570 -0.032224
N23   N     N_R   0.181610 0.471120 0.207570 -0.032224
N24   N     N_R   0.181610 0.528880 0.207570 -0.032224
N25   N     N_R   0.605410 0.102620 0.056870 -0.039118
N26   N     N_R   0.605410 0.897380 0.056870 -0.039118
N27   N     N_R   0.105410 0.602620 0.056870 -0.039118
N28   N     N_R   0.105410 0.397380 0.056870 -0.039118
N29   N     N_R   0.549680 0.896430 0.944180 -0.043291
N30   N     N_R   0.549680 0.103570 0.944180 -0.043291
N31   N     N_R   0.049680 0.396430 0.944180 -0.043291
N32   N     N_R   0.049680 0.603570 0.944180 -0.043291
Ni1   Ni    Ni4+2 0.433410 0.064680 0.868830 0.208486
Ni2   Ni    Ni4+2 0.433410 0.935320 0.868830 0.208486
Ni3   Ni    Ni4+2 0.933410 0.564680 0.868830 0.208486
Ni4   Ni    Ni4+2 0.933410 0.435320 0.868830 0.208486
Ni5   Ni    Ni4+2 0.565650 0.934380 0.131170 0.209011
Ni6   Ni    Ni4+2 0.565650 0.065620 0.131170 0.209011
Ni7   Ni    Ni4+2 0.065650 0.434380 0.131170 0.209011
Ni8   Ni    Ni4+2 0.065650 0.565620 0.131170 0.209011
H41   H     H_    0.309063 0.164841 0.822867 0.100699
H42   H     H_    0.309063 0.835158 0.822868 0.100697
H43   H     H_    0.809063 0.664841 0.822867 0.100699
H44   H     H_    0.809063 0.335158 0.822868 0.100698
H45   H     H_    0.026756 0.947889 0.719769 0.157260
H46   H     H_    0.026755 0.052112 0.719769 0.157260
H47   H     H_    0.526756 0.447889 0.719769 0.157260
H48   H     H_    0.526755 0.552112 0.719768 0.157260
H49   H     H_    0.870709 0.947463 0.571910 0.154532
H50   H     H_    0.870708 0.052538 0.571909 0.154531
H51   H     H_    0.370709 0.447463 0.571910 0.154532
H52   H     H_    0.370708 0.552538 0.571909 0.154531
H53   H     H_    0.903995 0.909601 0.495100 0.145391
H54   H     H_    0.903995 0.090399 0.495098 0.145390
H55   H     H_    0.403995 0.409601 0.495100 0.145391
H56   H     H_    0.403995 0.590399 0.495098 0.145391
H57   H     H_    0.099277 0.962958 0.521718 0.156375
H58   H     H_    0.099277 0.037042 0.521718 0.156375
H59   H     H_    0.599277 0.462958 0.521718 0.156375
H60   H     H_    0.599277 0.537041 0.521717 0.156376
N33   N     N_3   0.312198 0.734730 0.815300 -0.227543
H61   H     H_    0.242332 0.739986 0.747375 0.086622
H62   H     H_    0.341424 0.701303 0.800130 0.103054
N34   N     N_3   0.312188 0.265266 0.815290 -0.227545
H63   H     H_    0.341408 0.298693 0.800112 0.103054
H64   H     H_    0.242320 0.260009 0.747370 0.086622
N35   N     N_3   0.812199 0.234731 0.815300 -0.227544
H65   H     H_    0.742333 0.239982 0.747372 0.086623
H66   H     H_    0.841432 0.201305 0.800137 0.103055
N36   N     N_3   0.812188 0.765267 0.815290 -0.227544
H67   H     H_    0.841408 0.798694 0.800113 0.103053
H68   H     H_    0.742320 0.760010 0.747370 0.086622
N37   N     N_3   0.711849 0.140326 0.817372 -0.220840
H69   H     H_    0.758521 0.123605 0.801355 0.106428
H70   H     H_    0.661024 0.163627 0.749219 0.088522
N38   N     N_3   0.711845 0.859675 0.817368 -0.220840
H71   H     H_    0.661021 0.836374 0.749212 0.088522
H72   H     H_    0.758517 0.876397 0.801353 0.106428
N39   N     N_3   0.211850 0.640325 0.817374 -0.220841
H73   H     H_    0.258523 0.623604 0.801359 0.106428
H74   H     H_    0.161027 0.663626 0.749219 0.088523
N40   N     N_3   0.211841 0.359672 0.817364 -0.220840
H75   H     H_    0.161013 0.336370 0.749214 0.088521
H76   H     H_    0.258508 0.376391 0.801340 0.106427
H77   H     H_    0.494868 0.832578 0.174436 0.087146
H78   H     H_    0.494867 0.167422 0.174435 0.087145
H79   H     H_    0.994867 0.332578 0.174436 0.087146
H80   H     H_    0.994867 0.667422 0.174436 0.087144
H81   H     H_    0.432735 0.087995 0.668994 0.081962
H82   H     H_    0.432735 0.912005 0.668993 0.081963
H83   H     H_    0.932735 0.587995 0.668994 0.081963
H84   H     H_    0.932735 0.412005 0.668993 0.081962
H85   H     H_    0.571691 0.868371 0.823901 0.106443
H86   H     H_    0.571691 0.131630 0.823901 0.106442
H87   H     H_    0.071690 0.368371 0.823900 0.106443
H88   H     H_    0.071691 0.631630 0.823901 0.106442

loop_
_geom_bond_atom_site_label_1
_geom_bond_atom_site_label_2
_ccdc_geom_bond_type
N15   Ni4   S    
C68   C80   A    
C38   C87   A    
C30   H60   S    
C6    N26   A    
N16   Ni3   S    
C58   C62   A    
N17   N18   A    
C65   C79   A    
C63   C88   S    
C8    H36   S    
N33   H62   S    
N33   H61   S    
C14   C95   A    
C37   C88   A    
C9    N29   A    
N23   N24   A    
C53   H5    S    
C21   H37   S    
C75   N9    A    
C77   N11   A    
C13   C79   S    
N21   N22   A    
C26   H50   S    
C78   N12   A    
C12   N32   A    
C54   C60   A    
N37   H69   S    
C44   C64   A    
C5    H33   S    
C83   C92   A    
C21   C31   S    
C94   H82   S    
C8    C20   A    
C3    C87   A    
C95   N19   A    
C23   H39   S    
C95   H83   S    
C5    N25   A    
N38   H72   S    
C35   N5    A    
C35   C86   A    
C65   C69   A    
C83   N15   A    
C10   C17   A    
N25   N30   A    
C81   N13   A    
N6    Ni6   S    
C51   C55   A    
C2    H42   S    
C2    C86   A    
C57   C61   A    
C67   H15   S    
C56   H8    S    
C7    N27   A    
C8    N28   A    
C16   C34   S    
C42   N34   S    
N18   Ni2   S    
N28   N31   A    
C82   H26   S    
C45   N37   S    
N11   N12   A    
C69   C73   A    
C23   C27   S    
C30   C32   S    
C78   H24   S    
C42   C62   A    
C64   C87   S    
C44   N36   S    
N24   Ni8   S    
N32   Ni3   S    
C68   C72   A    
C76   C89   A    
C82   C91   A    
C11   H87   S    
N27   Ni8   S    
C28   C34   S    
C94   N18   A    
N19   Ni3   S    
N1    Ni1   S    
N25   Ni6   S    
N20   Ni4   S    
N2    N5    A    
C98   H30   S    
C27   H51   S    
C84   H28   S    
C15   C97   A    
N4    N7    A    
C47   N39   S    
C28   H52   S    
C14   C96   A    
C98   N22   A    
C44   C46   A    
C46   C50   A    
C39   H1    S    
N37   H70   S    
C27   C34   S    
C53   C59   A    
N3    N8    A    
C6    C18   A    
C62   C85   S    
C57   H9    S    
C77   C90   A    
C10   H86   S    
C35   H77   S    
C22   C31   S    
C54   H6    S    
C43   N35   S    
N35   H65   S    
C3    N3    A    
N38   H71   S    
N2    Ni2   S    
C17   C49   S    
N39   H73   S    
C1    H41   S    
C16   C100  A    
C47   C51   A    
C75   H21   S    
C9    H85   S    
C11   C20   A    
C78   C90   A    
C41   C61   A    
C13   C93   A    
C60   C64   A    
C81   C91   A    
C22   H46   S    
C42   C48   A    
N40   H76   S    
C24   C32   S    
C7    H35   S    
C66   C79   A    
C19   C51   S    
C40   H4    S    
C6    H34   S    
C26   C33   S    
C59   H11   S    
N19   N20   A    
C32   C92   S    
C45   C49   A    
N29   Ni2   S    
N4    Ni4   S    
C70   C73   A    
C41   C47   A    
C37   H79   S    
C30   C40   S    
C100  N24   A    
N26   Ni5   S    
C33   C39   S    
C37   N7    A    
C93   N17   A    
C43   C45   A    
C38   N8    A    
C22   C26   S    
N1    N6    A    
C68   H16   S    
N10   Ni5   S    
C99   N23   A    
N36   H68   S    
C72   C74   A    
C96   N20   A    
N34   H64   S    
C3    H43   S    
N36   H67   S    
C7    C19   A    
C72   H20   S    
C55   C57   A    
N23   Ni7   S    
C2    N2    A    
C34   C40   S    
C1    C85   A    
C27   H55   S    
C65   H13   S    
C15   C98   A    
C41   N33   S    
C26   H54   S    
C11   N31   A    
C50   C54   A    
C25   H53   S    
C14   C80   S    
C18   C50   S    
C39   H2    S    
C38   H80   S    
C93   H81   S    
C29   C39   S    
C12   H88   S    
C21   C25   S    
C60   H12   S    
C36   H78   S    
C66   H14   S    
N14   Ni1   S    
C81   H25   S    
C58   H10   S    
C59   C63   A    
C67   C80   A    
C24   C28   S    
C31   C91   S    
C83   H27   S    
C4    N4    A    
C71   C74   A    
C100  H32   S    
C16   C99   A    
C21   H45   S    
N27   N32   A    
C4    C88   A    
C99   H31   S    
C36   C85   A    
C10   N30   A    
N28   Ni7   S    
C20   C52   S    
N31   Ni4   S    
C22   H38   S    
C46   N38   S    
C71   H19   S    
C13   C94   A    
C24   H48   S    
C76   H22   S    
C23   C32   S    
C74   C90   S    
N12   Ni7   S    
C73   C89   S    
C29   C31   S    
C25   H49   S    
N9    N10   A    
C36   N6    A    
C40   H3    S    
C23   H47   S    
C84   N16   A    
N11   Ni8   S    
C66   C70   A    
C48   N40   S    
C76   N10   A    
C70   H18   S    
C49   C53   A    
N3    Ni3   S    
N13   Ni2   S    
C12   C19   A    
C69   H17   S    
N9    Ni6   S    
C28   H56   S    
C24   H40   S    
C56   C58   A    
C30   H59   S    
C67   C71   A    
N39   H74   S    
C96   H84   S    
N40   H75   S    
C4    H44   S    
C1    N1    A    
C61   C86   S    
C75   C89   A    
C97   H29   S    
C82   N14   A    
N7    Ni7   S    
C9    C18   A    
C48   C52   A    
C29   H57   S    
C5    C17   A    
N34   H63   S    
N22   Ni6   S    
N26   N29   A    
N8    Ni8   S    
C29   H58   S    
C43   C63   A    
N5    Ni5   S    
N15   N16   A    
N35   H66   S    
C84   C92   A    
N13   N14   A    
N21   Ni5   S    
C25   C33   S    
C15   C33   S    
C55   H7    S    
C52   C56   A    
C97   N21   A    
N17   Ni1   S    
C77   H23   S    
N30   Ni1   S    
