data_mof_unit_9183.cif
_audit_creation_date              2012-12-10T17:24:27-0500
_audit_creation_method            fapswitch 2.2
_symmetry_space_group_name_H-M    P1
_symmetry_Int_Tables_number       1
_space_group_crystal_system       triclinic
_cell_length_a                    31.671055
_cell_length_b                    18.306092
_cell_length_c                    25.784968
_cell_angle_alpha                 89.698427
_cell_angle_beta                  144.708831
_cell_angle_gamma                 90.228507
_cell_volume                      8636.64329567

loop_
_atom_site_label
_atom_site_type_symbol
_atom_type_description
_atom_site_fract_x
_atom_site_fract_y
_atom_site_fract_z
_atom_type_partial_charge
C1    C     C_R   0.860169 0.860134 0.110162 0.770042
C2    C     C_R   0.354399 0.085247 0.651667 -0.130518
C3    C     C_R   0.790723 0.236713 0.994778 0.080453
C4    C     C_R   0.317086 0.236862 0.041583 0.093386
C5    C     C_R   0.678841 0.766527 0.947375 0.075748
C6    C     C_R   0.706274 0.260468 0.000953 0.083242
C7    C     C_R   0.324264 0.770337 0.066971 0.058441
C8    C     C_R   0.195493 0.196219 0.945373 -0.142162
C9    C     C_R   0.804055 0.804022 0.054106 -0.136475
C10   C     C_R   0.803012 0.194905 0.052606 -0.140933
C11   C     C_R   0.195804 0.804002 0.945798 -0.115510
C12   C     C_R   0.695896 0.695970 0.945946 -0.132782
C13   C     C_R   0.116242 0.684617 0.265399 -0.205274
C14   C     C_R   0.304505 0.303430 0.055101 -0.128079
C15   C     C_R   0.304278 0.696214 0.054706 -0.148837
C16   C     C_R   0.696166 0.304338 0.946085 -0.139871
C17   C     C_R   0.860074 0.006124 0.906108 0.026393
C18   C     C_R   0.101866 0.894441 0.048159 0.030346
C19   C     C_R   0.409967 0.385948 0.965510 0.040979
C20   C     C_R   0.639725 0.510575 0.093688 0.027207
C21   C     C_R   0.813788 0.062623 0.840953 -0.095815
C22   C     C_R   0.165389 0.869431 0.138349 -0.088651
C23   C     C_R   0.350562 0.351389 0.880601 -0.116053
C24   C     C_R   0.879651 0.309883 0.733898 -0.144509
C25   C     C_R   0.685131 0.567565 0.157828 -0.096798
C26   C     C_R   0.834147 0.100509 0.815654 -0.089363
C27   C     C_R   0.167388 0.872465 0.195009 -0.096950
C28   C     C_R   0.342744 0.359509 0.818584 -0.068813
C29   C     C_R   0.663916 0.605100 0.181985 -0.092532
C30   C     C_R   0.896591 0.077533 0.851125 -0.100776
C31   C     C_R   0.107984 0.902954 0.161740 -0.127937
C32   C     C_R   0.394826 0.400085 0.843240 -0.104693
C33   C     C_R   0.601850 0.580813 0.146925 -0.090781
C34   C     C_R   0.943222 0.022841 0.918366 0.043642
C35   C     C_R   0.145893 0.413989 0.349420 -0.155641
C36   C     C_R   0.052356 0.941364 0.079480 0.041731
C37   C     C_R   0.450026 0.440048 0.923947 0.000206
C38   C     C_R   0.556398 0.525495 0.081111 0.016408
C39   C     C_R   0.931843 0.999934 0.957441 -0.058186
C40   C     C_R   0.051655 0.941712 0.024116 -0.036352
C41   C     C_R   0.453347 0.438576 0.981785 0.053740
C42   C     C_R   0.567984 0.503348 0.042290 -0.055037
C43   C     C_R   0.000221 0.989411 0.947250 -0.119583
C44   C     C_R   0.993917 0.975083 0.047622 -0.175915
C45   C     C_R   0.506323 0.476776 0.952973 -0.170646
C46   C     C_R   0.841376 0.594489 0.659489 -0.129329
C47   C     C_R   0.501022 0.489772 0.054191 -0.105150
C48   C     C_R   0.998966 0.992420 0.107913 0.782764
C49   C     C_R   0.000405 0.999941 0.891833 0.756780
C50   C     C_R   0.499840 0.499959 0.108477 0.855272
C51   C     C_R   0.501033 0.492803 0.892194 0.819067
C52   C     C_R   0.000136 0.999820 0.391738 0.815073
C53   C     C_R   0.999962 0.000196 0.608375 0.881417
C54   C     C_R   0.499909 0.499823 0.391498 0.821225
C55   C     C_R   0.499659 0.500241 0.608055 0.869044
C56   C     C_3   0.060392 0.033480 0.543203 -0.012209
C57   C     C_R   0.615784 0.182880 0.266462 -0.170764
C58   C     C_3   0.940326 0.966633 0.457487 -0.071688
C59   C     C_3   0.059348 0.964831 0.576926 0.003943
C60   C     C_3   0.941393 0.035229 0.423884 -0.049072
C61   C     C_3   0.557462 0.537198 0.540188 -0.014614
C62   C     C_3   0.441661 0.463309 0.458809 -0.069171
C63   C     C_3   0.560526 0.468687 0.578057 0.028815
C64   C     C_3   0.438603 0.531804 0.420983 -0.060157
C65   C     C_3   0.001356 0.070078 0.518227 -0.198857
C66   C     C_3   0.999317 0.930001 0.482464 -0.238691
C67   C     C_3   0.496346 0.570266 0.513093 -0.197684
C68   C     C_R   0.377741 0.807887 0.733369 -0.199203
C69   C     C_3   0.502780 0.430169 0.485967 -0.232173
C70   C     C_3   0.000229 0.000501 0.551506 -0.062103
C71   C     C_3   0.000336 0.999570 0.449102 -0.105965
C72   C     C_3   0.499428 0.500773 0.550647 -0.063744
C73   C     C_3   0.499634 0.499618 0.448366 -0.112720
C74   C     C_R   0.110123 0.286837 0.316355 0.031058
C75   C     C_R   0.876202 0.721376 0.687747 0.021913
C76   C     C_R   0.737945 0.140069 0.408330 0.013775
C77   C     C_R   0.263187 0.861957 0.590862 -0.008084
C78   C     C_R   0.620547 0.779662 0.308158 0.041123
C79   C     C_R   0.722367 0.890456 0.428735 -0.078814
C80   C     C_R   0.392806 0.211228 0.683762 0.050410
C81   C     C_R   0.236680 0.638744 0.407585 0.018771
C82   C     C_R   0.763767 0.362439 0.591352 -0.005384
C83   C     C_R   0.094043 0.360353 0.289840 -0.119793
C84   C     C_R   0.890088 0.650095 0.718827 -0.206519
C85   C     C_R   0.672313 0.134270 0.314859 -0.135712
C86   C     C_R   0.324128 0.860408 0.684912 -0.112685
C87   C     C_R   0.608501 0.851341 0.278354 -0.135159
C88   C     C_R   0.407917 0.137907 0.710070 -0.194841
C89   C     C_R   0.171599 0.634316 0.313863 -0.115659
C90   C     C_R   0.284956 0.104751 0.565777 -0.130685
C91   C     C_R   0.825463 0.361694 0.685470 -0.105994
C92   C     C_2   0.230166 0.843206 0.288585 0.413386
C93   C     C_2   0.790429 0.162756 0.751298 0.390705
C94   C     C_2   0.706387 0.668190 0.244734 0.415436
C95   C     C_2   0.281780 0.324140 0.728583 0.436460
C96   C     C_2   0.830610 0.943100 0.907285 0.562277
C97   C     C_2   0.078796 0.856916 0.976351 0.461249
C98   C     C_2   0.435413 0.354572 0.041038 0.378938
C99   C     C_2   0.670512 0.447532 0.094955 0.555424
C100  C     C_2   0.745929 0.082915 0.801037 0.469479
C101  C     C_R   0.124809 0.740667 0.309279 -0.094622
C102  C     C_2   0.228451 0.839031 0.172397 0.503521
C103  C     C_2   0.300219 0.302176 0.859164 0.341846
C104  C     C_2   0.752956 0.588591 0.197853 0.480168
C105  C     C_2   0.125957 0.072885 0.588069 0.463643
C106  C     C_2   0.872882 0.929593 0.409721 0.440811
C107  C     C_2   0.124754 0.924527 0.662631 0.517269
C108  C     C_2   0.875141 0.073717 0.337035 0.400610
C109  C     C_2   0.620513 0.580254 0.582219 0.478537
C110  C     C_2   0.376558 0.422410 0.413490 0.436023
C111  C     C_2   0.628396 0.433522 0.666667 0.477503
C112  C     C_R   0.139572 0.140036 0.889706 0.781877
C113  C     C_R   0.872700 0.256272 0.689649 -0.077421
C114  C     C_2   0.370066 0.566016 0.331696 0.406379
C115  C     C_2   0.056141 0.233499 0.242495 0.378508
C116  C     C_2   0.921653 0.777629 0.757740 0.320973
C117  C     C_2   0.799158 0.096055 0.449037 0.326732
C118  C     C_2   0.209912 0.920833 0.548807 0.397500
C119  C     C_2   0.571990 0.722931 0.236955 0.373564
C120  C     C_2   0.451864 0.261950 0.757983 0.359620
C121  C     C_2   0.296191 0.590685 0.448733 0.318930
C122  C     C_2   0.709697 0.420272 0.549314 0.395512
C123  C     C_R   0.215001 0.395274 0.436120 -0.086953
C124  C     C_R   0.777147 0.609863 0.568775 -0.127834
C125  C     C_R   0.623858 0.238727 0.310107 -0.101462
C126  C     C_R   0.371091 0.754611 0.689168 -0.132831
C127  C     C_R   0.736478 0.819688 0.462964 0.058812
C128  C     C_R   0.267640 0.177501 0.533707 0.070340
C129  C     C_R   0.188542 0.746351 0.404285 0.130966
C130  C     C_R   0.810960 0.253343 0.594571 0.109545
C131  C     C_R   0.233137 0.322202 0.467899 0.054164
C132  C     C_R   0.139666 0.860082 0.889835 0.808148
C133  C     C_R   0.762094 0.680799 0.533952 0.077416
C134  C     C_R   0.688332 0.245804 0.404849 0.077986
C135  C     C_R   0.310120 0.752523 0.594086 0.100805
C136  C     C_R   0.179123 0.267259 0.408790 -0.011406
C137  C     C_R   0.814592 0.736533 0.593224 0.049888
C138  C     C_R   0.744919 0.193627 0.455858 -0.023847
C139  C     C_R   0.255749 0.807743 0.543102 -0.014398
C140  C     C_R   0.683124 0.764150 0.403231 -0.002161
C141  C     C_R   0.322489 0.231961 0.592298 0.067460
C142  C     C_R   0.244443 0.693188 0.455293 -0.016775
C143  C     C_R   0.859974 0.139583 0.109882 0.815314
C144  C     C_R   0.756223 0.308188 0.543535 -0.008994
C145  C     C_R   0.803077 0.804365 0.555833 -0.123305
C146  C     C_R   0.196371 0.195824 0.444397 -0.135411
C147  C     C_R   0.196035 0.804265 0.447774 -0.118261
C148  C     C_R   0.804152 0.196218 0.551017 -0.136963
C149  C     C_R   0.304576 0.303749 0.556929 -0.117733
C150  C     C_R   0.695318 0.696252 0.441354 -0.124237
C151  C     C_R   0.696035 0.304168 0.448139 -0.134634
C152  C     C_R   0.303644 0.695737 0.550546 -0.140877
C153  C     C_R   0.891513 0.716081 0.103948 -0.141277
C154  C     C_R   0.360390 0.359864 0.110315 0.771107
C155  C     C_R   0.118397 0.274017 0.923755 -0.136406
C156  C     C_R   0.102422 0.708837 0.869758 -0.086821
C157  C     C_R   0.830878 0.224505 0.988812 -0.002406
C158  C     C_R   0.384330 0.221956 0.084032 -0.144126
C159  C     C_R   0.608596 0.783641 0.896701 -0.132192
C160  C     C_R   0.662089 0.269009 0.001394 -0.148764
C161  C     C_R   0.397942 0.791904 0.132864 -0.073221
C162  C     C_R   0.907308 0.646332 0.101523 -0.139062
C163  C     C_R   0.108286 0.338248 0.941487 -0.129366
C164  C     C_R   0.083837 0.636043 0.859456 -0.148944
C165  C     C_R   0.639798 0.639877 0.889836 0.785094
C166  C     C_R   0.819759 0.267561 0.933750 -0.157145
C167  C     C_R   0.393966 0.158208 0.065193 -0.133267
C168  C     C_R   0.592856 0.853233 0.899489 -0.132865
C169  C     C_R   0.671622 0.224387 0.054311 -0.132015
C170  C     C_R   0.416534 0.864781 0.143551 -0.109974
C171  C     C_R   0.337683 0.107616 0.005211 -0.141279
C172  C     C_R   0.646531 0.906881 0.953150 -0.132807
C173  C     C_R   0.724578 0.170053 0.107121 -0.091602
C174  C     C_R   0.362461 0.917655 0.087339 -0.141299
C175  C     C_R   0.853562 0.592785 0.047645 -0.104273
C176  C     C_R   0.640038 0.360465 0.889917 0.767609
C177  C     C_R   0.162634 0.391241 0.996500 -0.157475
C178  C     C_R   0.137788 0.582980 0.914833 -0.135452
C179  C     C_R   0.769340 0.324112 0.884343 -0.139401
C180  C     C_R   0.272213 0.119470 0.965754 -0.125807
C181  C     C_R   0.716202 0.891206 0.004267 -0.127410
C182  C     C_R   0.768548 0.160305 0.107653 -0.134645
C183  C     C_R   0.289598 0.897994 0.020767 -0.098002
C184  C     C_R   0.783780 0.608657 0.996068 -0.100358
C185  C     C_R   0.227050 0.380709 0.033255 -0.146919
C186  C     C_R   0.210554 0.602394 0.980379 -0.129729
C187  C     C_R   0.360389 0.640030 0.110222 0.797331
C188  C     C_R   0.728783 0.337082 0.888461 -0.129554
C189  C     C_R   0.261184 0.183818 0.983957 0.084208
C190  C     C_R   0.733390 0.821043 0.001906 0.079060
C191  C     C_R   0.760320 0.205420 0.054907 0.066256
C192  C     C_R   0.269413 0.824478 0.011115 0.077431
C193  C     C_R   0.766581 0.678897 0.998277 0.074017
C194  C     C_R   0.238674 0.315850 0.016353 0.085548
C195  C     C_R   0.230711 0.675836 0.989790 0.069673
C196  C     C_R   0.737880 0.292875 0.942454 0.051658
C197  C     C_R   0.140165 0.139558 0.390186 0.761585
C198  C     C_R   0.658327 0.906207 0.338193 -0.156961
C199  C     C_R   0.860765 0.859450 0.611882 0.825522
C200  C     C_R   0.858743 0.138373 0.606756 0.773101
C201  C     C_R   0.140318 0.860650 0.391144 0.757335
C202  C     C_R   0.638597 0.640846 0.387045 0.743444
C203  C     C_R   0.360262 0.360170 0.610558 0.866939
C204  C     C_R   0.358616 0.638242 0.606579 0.768952
C205  C     C_R   0.640342 0.360636 0.391239 0.764480
C206  C     C_R   0.821161 0.733377 0.052888 0.076252
C207  C     C_R   0.183762 0.261653 0.961216 0.075408
C208  C     C_R   0.175929 0.730061 0.934354 0.097952
H1    H     H_    0.002257 0.127245 0.533297 0.188231
H2    H     H_    0.267840 0.423410 0.075849 0.107825
H3    H     H_    0.250304 0.559016 0.023645 0.134387
H4    H     H_    0.690769 0.382307 0.849377 0.161416
H5    H     H_    0.910324 0.104965 0.828913 0.173642
H6    H     H_    0.105863 0.895674 0.201120 0.197392
H7    H     H_    0.392131 0.398288 0.798932 0.244932
H8    H     H_    0.587606 0.607146 0.168571 0.170757
H9    H     H_    0.366279 0.029003 0.673763 0.142971
H10   H     H_    0.648532 0.960915 0.313779 0.166957
H11   H     H_    0.927032 0.310548 0.806535 0.127452
H12   H     H_    0.998458 0.872801 0.467508 0.182900
H13   H     H_    0.067045 0.681413 0.192878 0.138278
H14   H     H_    0.851829 0.539752 0.684288 0.141121
H15   H     H_    0.133342 0.470314 0.327313 0.162808
H16   H     H_    0.424755 0.808115 0.806009 0.147834
H17   H     H_    0.566334 0.178934 0.194101 0.155981
H18   H     H_    0.041957 0.376136 0.220940 0.172790
H19   H     H_    0.937102 0.638146 0.790167 0.137548
H20   H     H_    0.666040 0.093905 0.278278 0.164924
H21   H     H_    0.330702 0.901064 0.721576 0.175647
H22   H     H_    0.561553 0.864643 0.207420 0.178052
H23   H     H_    0.493794 0.627405 0.524659 0.187306
H24   H     H_    0.461017 0.121643 0.778090 0.132250
H25   H     H_    0.164778 0.593272 0.277255 0.166948
H26   H     H_    0.832106 0.402348 0.722196 0.163409
H27   H     H_    0.760153 0.935144 0.471600 0.173294
H28   H     H_    0.245479 0.061273 0.524808 0.131481
H29   H     H_    0.080028 0.779049 0.267240 0.101038
H30   H     H_    0.916683 0.216886 0.731571 0.104799
H31   H     H_    0.253500 0.439647 0.477500 0.176669
H32   H     H_    0.740019 0.564896 0.526420 0.129647
H33   H     H_    0.578185 0.275774 0.268297 0.159876
H34   H     H_    0.505458 0.372988 0.474628 0.184318
H35   H     H_    0.414843 0.714940 0.731184 0.121585
H36   H     H_    0.634311 0.960784 0.955658 0.134310
H37   H     H_    0.345059 0.058555 0.989942 0.153088
H38   H     H_    0.377083 0.974103 0.095202 0.143159
H39   H     H_    0.731040 0.134802 0.147094 0.153897
H40   H     H_    0.154923 0.440709 0.010927 0.132407
H41   H     H_    0.865835 0.538792 0.045377 0.147594
H42   H     H_    0.761933 0.358098 0.842918 0.181355
H43   H     H_    0.123169 0.526584 0.907210 0.146230
H44   H     H_    0.934925 0.756105 0.145815 0.121670
H45   H     H_    0.230334 0.078028 0.920482 0.125599
H46   H     H_    0.074765 0.234135 0.881036 0.110649
H47   H     H_    0.058202 0.747652 0.826379 0.131415
H48   H     H_    0.871537 0.181966 0.026558 0.168319
H49   H     H_    0.429989 0.259301 0.131924 0.126356
H50   H     H_    0.565249 0.743542 0.854958 0.124025
H51   H     H_    0.619018 0.309346 0.960071 0.133925
H52   H     H_    0.442435 0.753401 0.177201 0.178092
H53   H     H_    0.961366 0.633873 0.141236 0.136102
H54   H     H_    0.058239 0.346773 0.912815 0.126153
H55   H     H_    0.027373 0.620777 0.808725 0.138944
H56   H     H_    0.756311 0.934532 0.045963 0.123190
H57   H     H_    0.850947 0.257384 0.930103 0.137579
H58   H     H_    0.445170 0.148048 0.096970 0.133939
H59   H     H_    0.538893 0.865424 0.860244 0.136306
H60   H     H_    0.637228 0.231555 0.053588 0.144599
H61   H     H_    0.473126 0.880216 0.195178 0.144869
H62   H     H_    0.278969 0.823022 0.318686 0.063231
H63   H     H_    0.750636 0.190246 0.735568 0.049009
H64   H     H_    0.748275 0.694142 0.263357 0.064833
H65   H     H_    0.236875 0.298307 0.703991 0.055779
H66   H     H_    0.867022 0.899323 0.955821 0.027832
H67   H     H_    0.807943 0.116274 0.148566 0.116703
H68   H     H_    0.025430 0.867105 0.906910 0.056771
H69   H     H_    0.396926 0.341939 0.032848 0.125802
H70   H     H_    0.635157 0.402394 0.048964 0.028694
H71   H     H_    0.697847 0.100757 0.731684 0.045453
H72   H     H_    0.257746 0.791540 0.216046 0.058496
H73   H     H_    0.283663 0.250368 0.826066 0.082406
H74   H     H_    0.801015 0.605870 0.267294 0.041227
H75   H     H_    0.118523 0.120688 0.556155 0.066310
H76   H     H_    0.819649 0.953988 0.349731 0.068164
H77   H     H_    0.136202 0.869660 0.660686 0.067696
H78   H     H_    0.249827 0.941285 0.977027 0.135545
H79   H     H_    0.836735 0.044536 0.274224 0.003656
H80   H     H_    0.610127 0.628253 0.548097 0.067646
H81   H     H_    0.322044 0.444214 0.352978 0.065723
H82   H     H_    0.641852 0.377910 0.669456 0.052316
H83   H     H_    0.333626 0.534423 0.270850 0.029614
H84   H     H_    0.073939 0.183801 0.241510 0.060379
H85   H     H_    0.980321 0.770833 0.817129 0.048942
H86   H     H_    0.851096 0.121615 0.492650 0.125484
H87   H     H_    0.190273 0.957008 0.499005 0.027655
H88   H     H_    0.591327 0.668184 0.250192 0.103536
H89   H     H_    0.743630 0.565377 0.954239 0.133691
H90   H     H_    0.507000 0.252891 0.799172 0.053681
H91   H     H_    0.349276 0.613274 0.492884 0.122443
H92   H     H_    0.688451 0.456066 0.498235 0.025807
O1    O     O_3   0.999990 0.000000 0.249990 -0.505684
O2    O     O_R   0.585440 0.646160 0.804690 -0.636256
O3    O     O_R   0.585440 0.353840 0.804690 -0.647836
O4    O     O_R   0.414560 0.646160 0.195310 -0.643187
O5    O     O_R   0.085440 0.146150 0.366190 -0.608555
O6    O     O_R   0.914560 0.853850 0.633810 -0.629124
O7    O     O_R   0.914560 0.146150 0.633810 -0.668222
O8    O     O_R   0.085440 0.853850 0.366190 -0.633555
O9    O     O_R   0.585440 0.646150 0.366190 -0.631384
O10   O     O_R   0.414560 0.353850 0.633810 -0.633533
O11   O     O_R   0.414560 0.646150 0.633810 -0.660213
O12   O     O_3   0.000010 0.000000 0.750010 -0.512042
O13   O     O_R   0.585440 0.353850 0.366190 -0.627355
O14   O     O_R   0.853820 0.085430 0.073070 -0.627561
O15   O     O_R   0.146180 0.914570 0.926930 -0.605630
O16   O     O_R   0.146180 0.085430 0.926930 -0.638026
O17   O     O_R   0.853820 0.914570 0.073070 -0.628388
O18   O     O_R   0.353820 0.585430 0.073070 -0.632931
O19   O     O_R   0.646180 0.414570 0.926930 -0.624838
O20   O     O_R   0.646180 0.585430 0.926930 -0.607346
O21   O     O_R   0.353820 0.414570 0.073070 -0.631882
O22   O     O_R   0.146150 0.914540 0.365390 -0.623575
O23   O     O_3   0.499990 0.500000 0.249990 -0.501676
O24   O     O_R   0.853850 0.085460 0.634610 -0.612136
O25   O     O_R   0.853850 0.914540 0.634610 -0.596467
O26   O     O_R   0.146150 0.085460 0.365390 -0.650627
O27   O     O_R   0.646150 0.414540 0.365390 -0.626057
O28   O     O_R   0.353850 0.585460 0.634610 -0.625872
O29   O     O_R   0.353850 0.414540 0.634610 -0.604704
O30   O     O_R   0.646150 0.585460 0.365390 -0.652737
O31   O     O_R   0.939240 0.000000 0.071950 -0.660549
O32   O     O_R   0.060760 0.000000 0.928050 -0.643004
O33   O     O_R   0.439240 0.500000 0.071950 -0.644234
O34   O     O_3   0.500010 0.500000 0.750010 -0.505672
O35   O     O_R   0.560760 0.500000 0.928050 -0.662173
O36   O     O_R   0.000020 0.939290 0.367320 -0.622220
O37   O     O_R   0.999980 0.060710 0.632680 -0.654304
O38   O     O_R   0.999980 0.939290 0.632680 -0.601405
O39   O     O_R   0.000020 0.060710 0.367320 -0.650984
O40   O     O_R   0.500020 0.439290 0.367320 -0.623972
O41   O     O_R   0.499980 0.560710 0.632680 -0.652425
O42   O     O_R   0.499980 0.439290 0.632680 -0.608967
O43   O     O_R   0.500020 0.560710 0.367320 -0.647152
O44   O     O_R   0.060680 0.000000 0.193390 -0.633179
O45   O     O_R   0.914560 0.853840 0.195310 -0.640642
O46   O     O_R   0.939320 0.000000 0.806610 -0.607702
O47   O     O_R   0.560680 0.500000 0.193390 -0.624049
O48   O     O_R   0.439320 0.500000 0.806610 -0.629952
O49   O     O_2   0.228666 0.842155 0.334440 -0.554745
O50   O     O_2   0.798538 0.184480 0.714968 -0.552382
O51   O     O_2   0.694715 0.692653 0.276199 -0.569141
O52   O     O_2   0.280416 0.324070 0.679841 -0.533441
O53   O     O_2   0.765677 0.936895 0.852088 -0.530421
O54   O     O_2   0.116446 0.810854 0.992868 -0.585190
O55   O     O_2   0.500031 0.341013 0.112758 -0.630674
O56   O     O_R   0.085440 0.146160 0.804690 -0.628661
O57   O     O_2   0.735341 0.442937 0.149325 -0.524665
O58   O     O_2   0.743850 0.081738 0.846290 -0.514552
O59   O     O_2   0.248725 0.867749 0.152354 -0.500341
O60   O     O_2   0.275151 0.320081 0.875964 -0.554570
O61   O     O_2   0.755033 0.588528 0.152591 -0.504166
O62   O     O_2   0.187553 0.051747 0.660039 -0.515290
O63   O     O_2   0.877629 0.872468 0.438830 -0.523488
O64   O     O_2   0.165841 0.953534 0.734770 -0.567362
O65   O     O_2   0.864197 0.137698 0.336558 -0.547852
O66   O     O_2   0.683323 0.561778 0.654186 -0.506297
O67   O     O_R   0.085440 0.853840 0.804690 -0.657909
O68   O     O_2   0.384658 0.365131 0.445318 -0.528268
O69   O     O_2   0.668885 0.467535 0.735932 -0.587060
O70   O     O_2   0.355006 0.629199 0.326987 -0.561652
O71   O     O_2   0.990786 0.245809 0.180324 -0.606322
O72   O     O_2   0.893528 0.827576 0.753552 -0.546405
O73   O     O_2   0.790562 0.031908 0.429269 -0.621713
O74   O     O_2   0.189226 0.931143 0.572466 -0.552060
O75   O     O_2   0.510716 0.738068 0.160058 -0.617992
O76   O     O_2   0.440728 0.310451 0.778080 -0.602861
O77   O     O_2   0.284926 0.526154 0.428810 -0.619939
O78   O     O_R   0.914560 0.146160 0.195310 -0.605334
O79   O     O_2   0.690241 0.430288 0.574526 -0.551964
O80   O     O_R   0.414560 0.353840 0.195310 -0.642245
Zn1   Zn    Zn3+2 1.000000 0.086750 0.293940 1.012561
Zn2   Zn    Zn3+2 0.086780 0.000000 0.880710 0.999288
Zn3   Zn    Zn3+2 0.413220 0.500000 0.119290 0.997981
Zn4   Zn    Zn3+2 0.586780 0.500000 0.880710 1.013794
Zn5   Zn    Zn3+2 0.086730 0.000000 0.292800 0.978026
Zn6   Zn    Zn3+2 0.913270 1.000000 0.707200 1.029873
Zn7   Zn    Zn3+2 0.586730 0.500000 0.292800 1.000589
Zn8   Zn    Zn3+2 0.413270 0.500000 0.707200 1.025564
Zn9   Zn    Zn3+2 1.000000 0.913250 0.706060 1.023877
Zn10  Zn    Zn3+2 1.000000 0.086750 0.706060 0.979938
Zn11  Zn    Zn3+2 0.000000 0.913250 0.293940 0.976812
Zn12  Zn    Zn3+2 0.500000 0.586750 0.293940 0.980708
Zn13  Zn    Zn3+2 0.500000 0.413250 0.706060 1.026560
Zn14  Zn    Zn3+2 0.500000 0.586750 0.706060 0.983441
Zn15  Zn    Zn3+2 0.500000 0.413250 0.293940 0.993441
Zn16  Zn    Zn3+2 0.913220 0.000000 0.119290 0.990683

loop_
_geom_bond_atom_site_label_1
_geom_bond_atom_site_label_2
_ccdc_geom_bond_type
C52   O39   A    
C21   C26   A    
O1    Zn5   S    
O32   Zn2   S    
C74   C83   A    
O35   Zn4   S    
O34   Zn4   S    
O12   Zn9   S    
C31   H6    S    
C135  C139  A    
C91   H26   S    
O11   Zn14  S    
C124  C133  A    
C145  C199  S    
C144  C151  A    
C155  C207  A    
C59   C66   S    
C197  O26   A    
C99   H70   S    
C69   H34   S    
C58   C60   S    
C184  C193  A    
C29   C33   A    
C11   C192  A    
C17   C39   A    
C61   C63   S    
C18   C40   A    
C62   C64   S    
O42   Zn13  S    
C32   H7    S    
C33   H8    S    
C40   C43   A    
C23   C103  S    
O40   Zn15  S    
C169  H60   S    
C74   C136  A    
C149  C203  S    
O2    Zn14  S    
C26   C93   S    
C7    C15   A    
C14   C194  A    
C67   H23   S    
C186  H3    S    
C11   C132  S    
C46   C124  A    
C198  H10   S    
C92   O49   D    
C158  C167  A    
C51   O35   A    
C25   C29   A    
C94   O51   D    
C116  H85   S    
C27   C31   A    
C28   C32   A    
C5    C12   A    
C204  O28   A    
C103  O60   D    
C58   C70   S    
C167  C171  A    
C129  C142  A    
C162  H53   S    
C52   O36   A    
O6    Zn9   S    
O1    Zn16  S    
C17   C21   A    
C82   C91   A    
C81   C121  S    
C42   C45   A    
C19   C23   A    
C93   O50   D    
C181  C190  A    
C186  C195  A    
C6    C160  A    
C95   O52   D    
C49   O46   A    
O3    Zn13  S    
C54   O40   A    
C17   C96   S    
C127  C145  A    
C46   C84   A    
C88   H24   S    
C173  C182  A    
C131  C136  A    
C22   C27   A    
C7    C192  A    
C36   C44   A    
C37   C45   A    
C174  H38   S    
C170  C174  A    
C79   C127  A    
C176  O19   A    
C197  O5    A    
C86   H21   S    
C10   C191  A    
C98   H69   S    
C200  O24   A    
C20   C42   A    
C180  H45   S    
C48   O44   A    
C158  H49   S    
C153  C162  A    
C33   C38   A    
C46   H14   S    
C56   C59   S    
C9    C206  A    
C167  H58   S    
C80   C88   A    
C30   H5    S    
C188  H4    S    
C20   C99   S    
C134  C151  A    
C105  H75   S    
C132  O67   A    
C57   C85   A    
C78   C119  S    
C106  H76   S    
C63   C111  S    
C156  C208  A    
C129  C147  A    
C6    C16   A    
C178  C186  A    
C115  H84   S    
C31   C36   A    
C87   C198  A    
C76   C85   A    
C82   C122  S    
C136  C146  A    
C44   C48   S    
C78   C87   A    
C55   O41   A    
C117  O73   D    
C96   H66   S    
C100  O58   D    
O37   Zn10  S    
C194  C207  A    
C7    C161  A    
C171  H37   S    
O21   Zn3   S    
C180  C189  A    
C57   C125  A    
C29   C94   S    
C75   C84   A    
C177  H40   S    
O47   Zn7   S    
C133  C137  A    
C65   C70   S    
C92   H62   S    
C2    C90   A    
C67   C72   S    
C89   H25   S    
C1    O45   A    
C114  O70   D    
C172  C181  A    
C183  H78   S    
C195  C208  A    
C63   C69   S    
O1    Zn1   S    
O25   Zn6   S    
C6    C191  A    
C64   C73   S    
O12   Zn2   S    
C130  C144  A    
C105  O62   D    
C57   H17   S    
O48   Zn8   S    
C79   C198  A    
C14   C154  S    
C4    C14   A    
C68   H16   S    
O9    Zn12  S    
C115  O71   D    
O34   Zn14  S    
C97   H68   S    
O28   Zn8   S    
C47   C50   S    
C123  H31   S    
C64   C114  S    
C113  C130  A    
C30   C34   A    
C101  H29   S    
C34   C39   A    
C147  C201  S    
C82   C144  A    
C77   C118  S    
C12   C165  S    
C179  H42   S    
O67   Zn9   S    
C162  C175  A    
C155  C163  A    
C23   C28   A    
O7    Zn10  S    
C160  H51   S    
C59   C107  S    
C1    O17   A    
C8    C207  A    
O24   Zn6   S    
O23   Zn3   S    
C205  O13   A    
C60   C65   S    
C61   C67   S    
C93   H63   S    
C94   H64   S    
C41   C47   A    
C32   C37   A    
C151  C205  S    
C81   C142  A    
C143  O78   A    
C110  H81   S    
C26   C30   A    
C100  H71   S    
C54   O43   A    
C127  C140  A    
C164  C178  A    
C113  H30   S    
C18   C22   A    
C201  O8    A    
O43   Zn12  S    
O23   Zn7   S    
C34   C43   A    
C13   H13   S    
O12   Zn10  S    
C25   C104  S    
C39   C44   A    
O16   Zn2   S    
C15   C195  A    
C48   O31   A    
C128  C146  A    
C181  H56   S    
C74   C115  S    
C37   C41   A    
C143  O14   A    
C19   C41   A    
C165  O20   A    
C172  H36   S    
O20   Zn4   S    
C3    C157  A    
O8    Zn11  S    
C169  C173  A    
C202  O30   A    
C109  O66   D    
C84   H19   S    
C53   O38   A    
C83   H18   S    
C101  C129  A    
C125  C134  A    
O34   Zn13  S    
C68   C126  A    
C51   O48   A    
C12   C193  A    
O80   Zn15  S    
C185  C194  A    
C183  C192  A    
C118  O74   D    
C49   O32   A    
C111  O69   D    
O15   Zn2   S    
C205  O27   A    
O36   Zn11  S    
C199  O6    A    
C137  C145  A    
C107  H77   S    
O31   Zn16  S    
C8    C112  S    
C124  H32   S    
C155  H46   S    
C175  H41   S    
C20   C25   A    
C50   O33   A    
C177  C185  A    
C142  C152  A    
C66   H12   S    
C104  H74   S    
C165  O2    A    
C109  H80   S    
C178  H43   S    
C163  C177  A    
C160  C169  A    
C69   C73   S    
C18   C97   S    
C128  C141  A    
C60   C108  S    
C156  H47   S    
C81   C89   A    
C16   C176  S    
O29   Zn8   S    
O30   Zn7   S    
O44   Zn5   S    
C53   C70   S    
C4    C189  A    
C153  H44   S    
C133  C150  A    
C1    C9    S    
C187  O4    A    
C75   C137  A    
C157  H48   S    
C35   C83   A    
C60   C71   S    
C61   C73   S    
C122  O79   D    
O26   Zn5   S    
C62   C69   S    
C16   C196  A    
C96   O53   D    
C54   C73   S    
C66   C71   S    
C8    C189  A    
C56   C71   S    
C170  H61   S    
C90   H28   S    
C154  O80   A    
C161  H52   S    
C126  C135  A    
C106  O63   D    
C150  C202  S    
C9    C190  A    
C168  H59   S    
C108  O65   D    
O14   Zn16  S    
C120  O76   D    
C123  C131  A    
O4    Zn12  S    
C148  C200  S    
C77   C139  A    
C102  H72   S    
C78   C140  A    
C174  C183  A    
C116  O72   D    
C179  C188  A    
C76   C138  A    
C87   H22   S    
C121  O77   D    
C3    C196  A    
C95   H65   S    
C117  H86   S    
O78   Zn1   S    
O23   Zn12  S    
C52   C71   S    
C156  C164  A    
O38   Zn9   S    
C163  H54   S    
C35   C123  A    
C104  O61   D    
C121  H91   S    
C166  H57   S    
C122  H92   S    
C76   C117  S    
C56   C105  S    
C59   C70   S    
O27   Zn7   S    
C24   H11   S    
C168  C172  A    
C63   C72   S    
C80   C141  A    
C126  H35   S    
C108  H79   S    
C185  H2    S    
C152  C204  S    
C75   C116  S    
C203  O10   A    
O41   Zn14  S    
O12   Zn6   S    
C135  C152  A    
C175  C184  A    
C112  O16   A    
C80   C120  S    
O45   Zn11  S    
C68   C86   A    
C61   C109  S    
C203  O29   A    
C141  C149  A    
C139  C147  A    
C114  H83   S    
C111  H82   S    
C28   C95   S    
C132  O15   A    
C99   O57   D    
C5    C190  A    
C38   C42   A    
O18   Zn3   S    
O10   Zn13  S    
C45   C51   S    
C56   C65   S    
C164  H55   S    
C159  C168  A    
O13   Zn15  S    
O34   Zn8   S    
C58   C66   S    
C4    C158  A    
C5    C159  A    
C2    H9    S    
C125  H33   S    
C112  O56   A    
C204  O11   A    
O23   Zn15  S    
C65   H1    S    
O19   Zn4   S    
O33   Zn3   S    
O22   Zn5   S    
C173  H39   S    
C55   O42   A    
C24   C113  A    
O39   Zn1   S    
C19   C98   S    
O56   Zn10  S    
C199  O25   A    
C102  O59   D    
C110  O68   D    
O1    Zn11  S    
C130  C148  A    
C64   C67   S    
C50   O47   A    
C36   C40   A    
C98   O55   D    
C138  C148  A    
C85   H20   S    
C21   C100  S    
C43   C49   S    
C15   C187  S    
C58   C106  S    
C35   H15   S    
C184  H89   S    
C62   C110  S    
C97   O54   D    
C62   C72   S    
C27   C92   S    
C202  O9    A    
C2    C88   A    
C120  H90   S    
C38   C47   A    
C161  C170  A    
C77   C86   A    
C159  H50   S    
C171  C180  A    
C11   C208  A    
C13   C101  A    
C24   C91   A    
C140  C150  A    
C53   O37   A    
C119  O75   D    
C193  C206  A    
C13   C89   A    
C119  H88   S    
C55   C72   S    
C157  C166  A    
C134  C138  A    
C107  O64   D    
O17   Zn16  S    
O5    Zn1   S    
C22   C102  S    
C176  O3    A    
C146  C197  S    
C3    C10   A    
C201  O22   A    
C10   C143  S    
C118  H87   S    
C131  C149  A    
C153  C206  A    
O46   Zn6   S    
C188  C196  A    
C182  C191  A    
C90   C128  A    
C187  O18   A    
C166  C179  A    
C200  O7    A    
C154  O21   A    
C103  H73   S    
C79   H27   S    
C182  H67   S    
