data_mof_unit_40263.cif
_audit_creation_date              2012-12-10T19:27:38-0500
_audit_creation_method            fapswitch 2.2
_symmetry_space_group_name_H-M    P1
_symmetry_Int_Tables_number       1
_space_group_crystal_system       triclinic
_cell_length_a                    23.353596
_cell_length_b                    10.838339
_cell_length_c                    9.959325
_cell_angle_alpha                 90.931433
_cell_angle_beta                  89.480231
_cell_angle_gamma                 91.713857
_cell_volume                      2519.292895

loop_
_atom_site_label
_atom_site_type_symbol
_atom_type_description
_atom_site_fract_x
_atom_site_fract_y
_atom_site_fract_z
_atom_type_partial_charge
C1    C     C_R   0.500257 0.258013 0.499714 0.980082
C2    C     C_R   0.699597 0.613093 0.426627 0.416104
C3    C     C_R   0.240925 0.381645 0.410919 -0.109608
C4    C     C_R   0.755972 0.615212 0.379079 -0.096754
C5    C     C_R   0.205973 0.482880 0.431301 0.106508
C6    C     C_R   0.792346 0.520390 0.410266 0.110722
C7    C     C_3   0.527411 0.044834 0.611496 0.474680
C8    C     C_3   0.474254 0.955874 0.393299 0.477262
C9    C     C_3   0.555082 0.963048 0.502706 -0.231064
C10   C     C_3   0.446857 0.038118 0.502653 -0.188985
C11   C     C_3   0.500788 0.877706 0.502698 -0.241940
C12   C     C_R   0.501926 0.742249 0.500857 0.990274
C13   C     C_3   0.501273 0.122996 0.501265 -0.227372
C14   C     C_3   0.473834 0.959771 0.611900 -0.236631
C15   C     C_3   0.528206 0.040943 0.392338 -0.229331
C16   C     C_R   0.388879 0.503954 0.500403 0.927098
C17   C     C_R   0.611018 0.496484 0.498505 0.985608
C18   C     C_3   0.461971 0.425158 0.045891 0.344247
C19   C     C_3   0.538382 0.575514 0.953202 0.302854
C20   C     C_3   0.510358 0.391833 0.948532 -0.301823
C21   C     C_3   0.489893 0.608885 0.051721 -0.342210
C22   C     C_3   0.451554 0.532389 0.954877 0.381930
C23   C     C_R   0.229917 0.586646 0.497604 -0.139260
C24   C     C_3   0.548565 0.467917 0.045400 0.399079
C25   C     C_R   0.885507 0.626868 0.386348 0.589171
C26   C     C_R   0.111848 0.378909 0.387958 0.593483
C27   C     C_R   0.874782 0.414959 0.320379 0.586912
C28   C     C_R   0.124302 0.593726 0.349694 0.590667
C29   C     C_R   0.934792 0.400871 0.318257 -0.154760
C30   C     C_R   0.064725 0.609321 0.353550 -0.148638
C31   C     C_R   0.969581 0.508544 0.340978 -0.051925
C32   C     C_R   0.029536 0.501265 0.346433 -0.054731
C33   C     C_R   0.944580 0.623365 0.363758 -0.079480
C34   C     C_R   0.770623 0.422180 0.486455 -0.132597
C35   C     C_R   0.054212 0.385247 0.351435 -0.083931
C36   C     C_R   0.961754 0.284733 0.301751 0.435979
C37   C     C_R   0.039023 0.726239 0.368067 0.438446
C38   C     C_R   0.020535 0.278506 0.326851 -0.158770
C39   C     C_R   0.979253 0.730853 0.374783 -0.161967
C40   C     C_2   0.441101 0.925233 0.736701 1.105439
C41   C     C_2   0.563411 0.076307 0.270792 1.015938
C42   C     C_R   0.288933 0.601223 0.514726 0.335844
C43   C     C_R   0.712223 0.409036 0.515564 0.294619
C44   C     C_R   0.324540 0.497304 0.497527 -0.242218
C45   C     C_R   0.675085 0.506970 0.488316 -0.254983
C46   C     C_R   0.296909 0.384243 0.459490 0.364585
H1    H     H_    0.512201 0.297129 0.908055 0.263633
H2    H     H_    0.400650 0.054065 0.507775 0.297020
H3    H     H_    0.858786 0.028253 0.348622 0.418074
H4    H     H_    0.154646 0.919045 0.512004 0.427465
H5    H     H_    0.356094 0.176175 0.987698 0.408440
H6    H     H_    0.589831 0.828411 0.043075 0.373060
H7    H     H_    0.305091 0.627275 0.019548 0.404365
H8    H     H_    0.690650 0.341895 0.997668 0.407897
H9    H     H_    0.398488 0.735842 0.594539 0.353198
H10   H     H_    0.625588 0.239294 0.423587 0.365965
H11   H     H_    0.384150 0.255717 0.657295 0.373149
H12   H     H_    0.484100 0.701476 0.095733 0.253677
H13   H     H_    0.597038 0.820335 0.294547 0.370595
H14   H     H_    0.642615 0.023254 0.856392 0.408309
H15   H     H_    0.357540 0.978819 0.152607 0.397516
H16   H     H_    0.440523 0.837789 0.912603 0.389873
H17   H     H_    0.566782 0.153891 0.089329 0.391770
H18   H     H_    0.040624 0.189813 0.324735 0.256765
H19   H     H_    0.959566 0.818993 0.391534 0.248535
H20   H     H_    0.203030 0.662733 0.524923 0.233182
H21   H     H_    0.799215 0.350739 0.515923 0.218095
H22   H     H_    0.225158 0.299391 0.359437 0.235724
H23   H     H_    0.771769 0.692514 0.320679 0.226772
H24   H     H_    0.601590 0.951676 0.503173 0.299143
N1    N     N_R   0.851734 0.522532 0.367772 -0.336438
N2    N     N_R   0.146770 0.483463 0.386740 -0.333566
N3    N     N_3   0.499960 0.500030 0.863290 -0.201713
N4    N     N_3   0.500040 0.499970 0.136710 -0.195541
O1    O     O_R   0.500000 0.313960 0.616610 -0.611770
O2    O     O_2   0.131331 0.270104 0.428978 -0.504702
O3    O     O_2   0.839153 0.322559 0.278744 -0.432432
O4    O     O_2   0.159424 0.685817 0.306104 -0.442404
O5    O     O_2   0.893794 0.158181 0.128355 -0.195636
O6    O     O_2   0.966681 0.041042 0.239811 -0.265847
O7    O     O_3   0.878261 0.105507 0.380749 -0.463572
O8    O     O_2   0.105256 0.911032 0.271514 -0.192433
O9    O     O_2   0.039980 0.963700 0.455994 -0.249369
O10   O     O_3   0.130100 0.842923 0.513186 -0.510687
O11   O     O_2   0.436111 0.217739 0.178193 -0.163589
O12   O     O_R   0.500000 0.686040 0.383390 -0.582493
O13   O     O_2   0.360870 0.371253 0.168396 -0.221639
O14   O     O_3   0.383558 0.240303 0.954471 -0.486112
O15   O     O_2   0.642242 0.609669 0.835049 -0.167101
O16   O     O_2   0.571821 0.766220 0.793974 -0.188627
O17   O     O_3   0.619115 0.765595 0.026075 -0.446339
O18   O     O_2   0.380465 0.673438 0.815325 -0.308758
O19   O     O_2   0.350073 0.458374 0.845521 -0.219585
O20   O     O_3   0.344158 0.609227 0.050102 -0.468158
O21   O     O_2   0.652210 0.537458 0.144233 -0.210634
O22   O     O_2   0.614916 0.332583 0.205128 -0.342814
O23   O     O_R   0.500030 0.313950 0.383350 -0.549778
O24   O     O_3   0.652634 0.363610 0.963318 -0.452134
O25   O     O_2   0.281718 0.836295 0.445926 -0.155253
O26   O     O_2   0.296620 0.795256 0.682591 -0.197095
O27   O     O_3   0.381821 0.773673 0.515785 -0.557896
O28   O     O_2   0.728346 0.165532 0.519527 -0.184564
O29   O     O_2   0.692643 0.264882 0.723678 -0.167464
O30   O     O_3   0.623215 0.230690 0.521704 -0.556558
O31   O     O_2   0.291285 0.136424 0.436669 -0.174733
O32   O     O_2   0.383437 0.243875 0.402627 -0.305725
O33   O     O_3   0.343757 0.227225 0.646628 -0.468200
O34   O     O_R   0.499970 0.686050 0.616650 -0.574107
O35   O     O_2   0.635478 0.763794 0.559594 -0.284018
O36   O     O_2   0.701581 0.858573 0.394802 -0.208421
O37   O     O_3   0.611595 0.736529 0.304609 -0.508659
O38   O     O_2   0.582013 0.220413 0.764925 -0.207429
O39   O     O_2   0.529840 0.056539 0.882569 -0.301613
O40   O     O_3   0.626278 0.004701 0.766613 -0.406935
O41   O     O_2   0.469754 0.928990 0.125494 -0.317853
O42   O     O_2   0.411568 0.780297 0.254952 -0.228107
O43   O     O_3   0.375982 0.002404 0.238820 -0.407809
O44   O     O_2   0.393528 0.965976 0.757404 -0.516360
O45   O     O_R   0.416140 0.499970 0.616650 -0.594360
O46   O     O_R   0.465774 0.849799 0.830625 -0.697425
O47   O     O_2   0.613912 0.050021 0.263866 -0.574105
O48   O     O_R   0.538670 0.137523 0.165375 -0.658461
O49   O     O_R   0.583860 0.500030 0.383350 -0.549770
O50   O     O_R   0.416170 0.499960 0.383400 -0.530692
O51   O     O_R   0.583830 0.500040 0.616600 -0.529522
O52   O     O_2   0.862685 0.732494 0.432465 -0.519139
S1    S     S_3+6 0.925189 0.143482 0.257987 0.117327
S2    S     S_3+6 0.662180 0.749560 0.422915 0.069270
S3    S     S_3+6 0.566090 0.085719 0.761555 0.112424
S4    S     S_3+6 0.432970 0.912025 0.248306 0.106981
S5    S     S_3+6 0.078531 0.866329 0.400410 0.121466
S6    S     S_3+6 0.409115 0.311896 0.093402 0.159528
S7    S     S_3+6 0.593910 0.680396 0.896091 0.182335
S8    S     S_3+6 0.380016 0.568328 0.909973 0.111739
S9    S     S_3+6 0.618556 0.425564 0.095878 0.110710
S10   S     S_3+6 0.311995 0.755409 0.541954 0.132157
S11   S     S_3+6 0.689672 0.263550 0.573367 0.137790
S12   S     S_3+6 0.329219 0.243072 0.482710 0.078277
Zn1   Zn    Zn3+2 0.499980 0.500010 0.655740 1.130431
Zn2   Zn    Zn3+2 0.500020 0.499990 0.344260 1.154941

loop_
_geom_bond_atom_site_label_1
_geom_bond_atom_site_label_2
_ccdc_geom_bond_type
O13   S6    D    
C40   O44   D    
C27   C29   A    
C26   N2    A    
C18   S6    S    
C3    H22   S    
C17   O51   A    
H4    O10   S    
O51   Zn1   S    
C29   C36   A    
C33   C39   A    
C23   C42   A    
O39   S3    D    
C22   S8    S    
C23   H20   S    
C19   C21   S    
C17   C45   S    
C5    N2    S    
O29   S11   D    
O11   S6    D    
C11   C14   S    
O32   S12   D    
H3    O7    S    
O30   S11   S    
C42   S10   S    
C41   O47   D    
O31   S12   D    
H14   O40   S    
C17   O49   A    
C7    C14   S    
C20   C24   S    
C5    C23   A    
C20   N3    S    
C26   O2    S    
C31   C33   A    
C25   N1    A    
O38   S3    D    
C30   C32   A    
C28   O4    S    
C16   C44   S    
O23   Zn2   S    
H16   O46   S    
O12   Zn2   S    
C46   S12   S    
C18   N4    S    
C21   C22   S    
O7    S1    S    
C39   H19   S    
C28   N2    A    
C42   C44   A    
C4    H23   S    
C44   C46   A    
O22   S9    D    
C38   H18   S    
C2    C45   A    
C6    N1    S    
O15   S7    D    
H15   O43   S    
C1    O1    A    
C32   C35   A    
C19   N3    S    
C35   C38   A    
C9    H24   S    
H10   O30   S    
C4    C6    A    
O19   S8    D    
C10   C14   S    
C16   O45   A    
C1    O23   A    
C12   O34   A    
O16   S7    D    
N3    Zn1   S    
C3    C5    A    
N4    Zn2   S    
O24   S9    S    
C37   S5    S    
C30   C37   A    
O28   S11   D    
C41   O48   S    
C34   H21   S    
C2    C4    A    
C25   O52   S    
O9    S5    D    
C9    C11   S    
O35   S2    D    
H13   O37   S    
C31   C32   A    
O17   S7    S    
O21   S9    D    
O43   S4    S    
C43   C45   A    
C15   C41   S    
C24   S9    S    
C8    C10   S    
C40   O46   S    
C8    C15   S    
C13   C15   S    
C10   H2    S    
O40   S3    S    
C36   S1    S    
C1    C13   S    
O14   S6    S    
C21   N4    S    
H17   O48   S    
C27   N1    A    
O27   S10   S    
C7    C9    S    
O5    S1    D    
O10   S5    S    
H11   O33   S    
H7    O20   S    
C18   C22   S    
O50   Zn2   S    
O18   S8    D    
C34   C43   A    
C27   O3    S    
C10   C13   S    
H5    O14   S    
O34   Zn1   S    
C11   C12   S    
O6    S1    D    
C19   S7    S    
H9    O27   S    
C3    C46   A    
C12   O12   A    
O45   Zn1   S    
O33   S12   S    
C28   C30   A    
C19   C24   S    
C16   O50   A    
C21   H12   S    
C29   C31   A    
O1    Zn1   S    
C8    S4    S    
C24   N4    S    
C8    C11   S    
O49   Zn2   S    
C36   C38   A    
O20   S8    S    
O25   S10   D    
C43   S11   S    
C18   C20   S    
C9    C15   S    
C7    S3    S    
C20   H1    S    
C14   C40   S    
C6    C34   A    
C26   C35   A    
C7    C13   S    
O42   S4    D    
C37   C39   A    
O36   S2    D    
O37   S2    S    
H8    O24   S    
H6    O17   S    
C22   N3    S    
O8    S5    D    
O26   S10   D    
C25   C33   A    
O41   S4    D    
C2    S2    S    
