data_mof_unit_46522.cif
_audit_creation_date              2012-12-10T17:51:27-0500
_audit_creation_method            fapswitch 2.2
_symmetry_space_group_name_H-M    P1
_symmetry_Int_Tables_number       1
_space_group_crystal_system       triclinic
_cell_length_a                    14.788873
_cell_length_b                    14.852005
_cell_length_c                    17.302576
_cell_angle_alpha                 107.332921
_cell_angle_beta                  71.611108
_cell_angle_gamma                 116.811201
_cell_volume                      3163.85162913

loop_
_atom_site_label
_atom_site_type_symbol
_atom_type_description
_atom_site_fract_x
_atom_site_fract_y
_atom_site_fract_z
_atom_type_partial_charge
C1    C     C_R   0.119692 0.688772 0.514204 0.795307
C2    C     C_R   0.879582 0.311612 0.489030 0.790744
C3    C     C_R   0.186056 0.799430 0.526650 -0.053384
C4    C     C_R   0.807312 0.205934 0.500253 -0.056155
C5    C     C_R   0.206926 0.976438 0.543597 0.019831
C6    C     C_R   0.766266 0.048445 0.545052 0.026301
C7    C     C_R   0.147396 0.870826 0.528870 -0.276166
C8    C     C_R   0.839227 0.140114 0.517833 -0.275666
C9    C     C_R   0.285199 0.834362 0.541018 -0.269092
C10   C     C_R   0.701802 0.177861 0.507134 -0.253597
C11   C     C_R   0.345800 0.940165 0.559705 0.057109
C12   C     C_R   0.626190 0.094696 0.544625 0.049756
C13   C     C_R   0.309404 0.011783 0.555234 0.093021
C14   C     C_R   0.658325 0.026957 0.561661 0.096887
C15   C     C_R   0.446125 0.975599 0.575501 -0.015858
C16   C     C_R   0.518687 0.074600 0.561788 -0.024428
C17   C     C_R   0.479594 0.148905 0.568311 -0.044999
C18   C     C_R   0.475914 0.919100 0.608764 -0.027128
C19   C     C_R   0.376653 0.116002 0.562245 -0.161952
C20   C     C_R   0.581900 0.944406 0.600019 -0.152454
C21   C     C_R   0.291579 0.321605 0.368152 -0.299546
C22   C     C_R   0.705822 0.675224 0.634151 -0.262083
C23   C     C_R   0.988714 0.503938 0.652885 0.795162
C24   C     C_R   0.011333 0.496273 0.347147 0.793749
C25   C     C_R   0.214636 0.357475 0.381533 0.339023
C26   C     C_R   0.785685 0.642719 0.618336 0.295998
C27   C     C_R   0.284731 0.489425 0.490428 -0.014024
C28   C     C_R   0.714281 0.508904 0.510570 0.016605
C29   C     C_R   0.371028 0.461175 0.472438 -0.010982
C30   C     C_R   0.627082 0.535760 0.529293 0.012980
C31   C     C_R   0.370251 0.373380 0.411561 0.129569
C32   C     C_R   0.626870 0.622468 0.591102 0.121517
C33   C     C_R   0.457474 0.515754 0.512067 0.066731
C34   C     C_R   0.540452 0.480712 0.489783 0.127782
C35   C     C_R   0.532960 0.390872 0.430139 -0.170737
C36   C     C_R   0.464294 0.604731 0.572480 -0.204896
C37   C     C_R   0.449356 0.338422 0.392003 -0.198139
C38   C     C_R   0.547106 0.656279 0.611442 -0.121050
C39   C     C_R   0.982939 0.509201 0.739766 -0.060809
C40   C     C_R   0.016758 0.491357 0.260392 -0.050764
C41   C     C_R   0.073056 0.533970 0.765788 -0.192294
C42   C     C_R   0.925676 0.462288 0.234063 -0.202924
C43   C     C_R   0.068542 0.539019 0.848088 -0.170660
C44   C     C_R   0.929692 0.457746 0.151938 -0.182959
C45   C     C_R   0.973578 0.518265 0.905841 0.158497
C46   C     C_R   0.024987 0.482851 0.094739 0.163102
C47   C     C_R   0.882172 0.495491 0.880543 0.124084
C48   C     C_R   0.117591 0.511093 0.120444 0.128263
C49   C     C_R   0.888086 0.490281 0.796989 -0.222235
C50   C     C_R   0.112195 0.516145 0.203848 -0.249330
C51   C     C_2   0.971463 0.520176 0.991819 -0.250100
C52   C     C_2   0.026289 0.479867 0.008832 -0.247064
Cu1   Cu    Cu3+1 0.916740 0.524770 0.521640 0.929639
Cu2   Cu    Cu3+1 0.083260 0.475230 0.478360 0.929609
H1    H     H_    0.147361 0.550432 0.722579 0.161189
H2    H     H_    0.851097 0.442163 0.276925 0.145454
H3    H     H_    0.447270 0.270069 0.345685 0.135242
H4    H     H_    0.548864 0.723419 0.658812 0.192440
H5    H     H_    0.722728 0.446826 0.461467 0.117625
H6    H     H_    0.276357 0.551560 0.539471 0.126101
H7    H     H_    0.292541 0.254937 0.320563 0.144885
H8    H     H_    0.704236 0.741466 0.682109 0.144124
H9    H     H_    0.590380 0.358511 0.411806 0.122910
H10   H     H_    0.406378 0.636382 0.591401 0.163187
H11   H     H_    0.182779 0.542205 0.225249 0.138860
H12   H     H_    0.818236 0.469155 0.776077 0.145028
H13   H     H_    0.074757 0.446596 0.958984 0.163414
H14   H     H_    0.922952 0.553154 0.041914 0.160344
H15   H     H_    0.857863 0.433773 0.132871 0.140061
H16   H     H_    0.139885 0.559881 0.866735 0.148414
H17   H     H_    0.350775 0.173133 0.561999 0.235880
H18   H     H_    0.603706 0.901598 0.626320 0.211028
H19   H     H_    0.679361 0.223884 0.484833 0.143206
H20   H     H_    0.315457 0.778392 0.536517 0.147895
H21   H     H_    0.921237 0.160685 0.511115 0.153908
H22   H     H_    0.069558 0.844091 0.519473 0.155085
N1    N     N_R   0.208390 0.438070 0.445820 -0.193708
N2    N     N_R   0.791610 0.561930 0.554180 -0.192488
O1    O     O_R   0.020090 0.662480 0.528530 -0.599608
O2    O     O_R   0.979910 0.337520 0.471470 -0.595832
O3    O     O_R   0.160710 0.620650 0.491980 -0.581133
O4    O     O_R   0.839290 0.379350 0.508020 -0.585023
O5    O     O_R   0.921540 0.523360 0.633990 -0.595865
O6    O     O_R   0.078460 0.476640 0.366010 -0.598858
O7    O     O_R   0.062170 0.481520 0.597440 -0.575830
O8    O     O_R   0.937830 0.518480 0.402560 -0.578163
C53   C     C_2   0.537311 0.260366 0.597019 0.329432
H23   H     H_    0.606396 0.286722 0.620866 0.091576
O9    O     O_2   0.506104 0.324001 0.597698 -0.550910
C54   C     C_2   0.398254 0.849042 0.666638 0.301241
H24   H     H_    0.317206 0.837051 0.681526 0.092392
O10   O     O_2   0.424334 0.808276 0.702538 -0.588750
C55   C     C_3   0.860755 0.701599 0.676304 -0.372867
C56   C     C_3   0.807993 0.680655 0.764848 -0.387534
C57   C     C_3   0.884794 0.734467 0.822168 -0.828971
H25   H     H_    0.950106 0.708921 0.798374 0.259338
H26   H     H_    0.915996 0.818949 0.827034 0.256593
H27   H     H_    0.844946 0.715542 0.884898 0.242232
H28   H     H_    0.744110 0.708250 0.790743 0.217085
H29   H     H_    0.773999 0.596801 0.763785 0.229003
H30   H     H_    0.930026 0.685452 0.657687 0.255238
H31   H     H_    0.889326 0.785116 0.677066 0.174204
C58   C     C_3   0.145803 0.306013 0.318704 -0.369721
C59   C     C_3   0.197645 0.350564 0.238436 -0.347885
C60   C     C_3   0.275883 0.307186 0.179121 -0.848147
H32   H     H_    0.299339 0.332192 0.118814 0.239929
H33   H     H_    0.346708 0.336544 0.203864 0.255496
H34   H     H_    0.241195 0.221979 0.168150 0.252110
H35   H     H_    0.237423 0.435317 0.253625 0.227782
H36   H     H_    0.136268 0.332356 0.205455 0.215273
H37   H     H_    0.125693 0.221867 0.304181 0.160074
H38   H     H_    0.070465 0.311280 0.341979 0.219247
C61   C     C_3   0.777680 0.473989 0.939977 -0.432268
C62   C     C_3   0.731868 0.366445 0.960847 -0.327894
C63   C     C_3   0.627362 0.345718 0.021685 -0.853784
H39   H     H_    0.636519 0.402004 0.080628 0.251506
H40   H     H_    0.571327 0.351022 0.994767 0.257016
H41   H     H_    0.595851 0.267335 0.035320 0.243432
H42   H     H_    0.721122 0.307975 0.903099 0.224140
H43   H     H_    0.785171 0.358169 0.988760 0.226700
H44   H     H_    0.784928 0.533546 0.997157 0.189477
H45   H     H_    0.722430 0.479380 0.912066 0.196298
C64   C     C_3   0.222659 0.538948 0.061583 -0.430049
C65   C     C_3   0.261354 0.646172 0.042058 -0.337578
C66   C     C_3   0.365819 0.672772 0.980962 -0.829695
H46   H     H_    0.424793 0.671515 0.007097 0.250884
H47   H     H_    0.358721 0.617098 0.921565 0.258752
H48   H     H_    0.392169 0.750849 0.968391 0.248984
H49   H     H_    0.204965 0.650408 0.014888 0.230289
H50   H     H_    0.269800 0.704118 0.100259 0.221641
H51   H     H_    0.280437 0.537932 0.089434 0.196053
H52   H     H_    0.218670 0.480339 0.003809 0.193766
C67   C     C_2   0.156634 0.044748 0.546837 0.308399
H53   H     H_    0.100750 0.019339 0.508562 0.068207
O11   O     O_2   0.170843 0.125913 0.595747 -0.542309
C68   C     C_2   0.807877 0.979230 0.554952 0.305240
H54   H     H_    0.884913 0.011072 0.567605 0.081394
O12   O     O_2   0.760326 0.886239 0.544179 -0.561625

loop_
_geom_bond_atom_site_label_1
_geom_bond_atom_site_label_2
_ccdc_geom_bond_type
C15   C18   A    
C59   H36   S    
C53   H23   S    
C55   C56   S    
C29   C33   A    
C64   H52   S    
C27   C29   A    
C19   H17   S    
C57   H25   S    
C4    C8    A    
C48   C64   S    
Cu2   O6    S    
C62   C63   S    
C57   H27   S    
C64   C65   S    
C39   C41   A    
Cu1   Cu2   S    
C5    C67   S    
C60   H33   S    
C26   N2    A    
C22   C32   A    
C25   N1    A    
Cu1   O1    S    
C3    C7    A    
C27   H6    S    
C59   H35   S    
C10   H19   S    
C23   C39   S    
C6    C14   A    
C45   C51   S    
C1    O3    A    
C15   C16   A    
Cu1   O4    S    
C46   C52   S    
C33   C36   A    
C58   H37   S    
C34   C35   A    
C41   H1    S    
C6    C68   S    
C42   H2    S    
C38   H4    S    
C11   C15   A    
C61   H45   S    
C12   C16   A    
C16   C17   A    
C63   H40   S    
C66   H48   S    
Cu1   O8    S    
C32   C38   A    
C28   N2    A    
C5    C13   A    
C62   H42   S    
Cu2   N1    S    
C64   H51   S    
C26   C55   S    
C40   C42   A    
C41   C43   A    
C42   C44   A    
C10   C12   A    
C59   C60   S    
C44   C46   A    
Cu2   O2    S    
C45   C47   A    
C60   H34   S    
C46   C48   A    
C49   H12   S    
C30   C34   A    
C51   C52   D    
C18   C54   S    
C14   C20   A    
C68   O12   D    
C55   H30   S    
C5    C7    A    
C13   C19   A    
C25   C58   S    
C6    C8    A    
C8    H21   S    
C31   C37   A    
C58   H38   S    
C1    C3    S    
C2    C4    S    
C3    C9    A    
C22   H8    S    
C21   C31   A    
C54   O10   D    
C56   H29   S    
C63   H41   S    
C33   C34   A    
C65   H50   S    
C44   H15   S    
C48   C50   A    
C9    C11   A    
C52   H13   S    
C23   O5    A    
C39   C49   A    
C12   C14   A    
C43   H16   S    
C53   O9    D    
C23   O7    A    
C67   H53   S    
C1    O1    A    
C2    O4    A    
C9    H20   S    
C4    C10   A    
C66   H47   S    
C61   C62   S    
C28   H5    S    
C47   C61   S    
C21   C25   A    
C24   C40   S    
C35   C37   A    
C17   C53   S    
C21   H7    S    
C68   H54   S    
C27   N1    A    
C55   H31   S    
Cu2   O7    S    
C57   H26   S    
C7    H22   S    
C47   C49   A    
C60   H32   S    
Cu1   O5    S    
C36   C38   A    
Cu1   N2    S    
C24   O6    A    
C43   C45   A    
C30   C32   A    
C11   C13   A    
C54   H24   S    
C66   H46   S    
C56   H28   S    
C40   C50   A    
C28   C30   A    
C17   C19   A    
C65   H49   S    
C18   C20   A    
C51   H14   S    
C56   C57   S    
C50   H11   S    
C37   H3    S    
C2    O2    A    
C61   H44   S    
C29   C31   A    
C22   C26   A    
C58   C59   S    
C67   O11   D    
C20   H18   S    
C35   H9    S    
C36   H10   S    
C24   O8    A    
Cu2   O3    S    
C62   H43   S    
C63   H39   S    
C65   C66   S    
