data_mof_unit_41058.cif
_audit_creation_date              2012-12-11T16:21:49-0500
_audit_creation_method            fapswitch 2.2
_symmetry_space_group_name_H-M    P1
_symmetry_Int_Tables_number       1
_space_group_crystal_system       triclinic
_cell_length_a                    13.462872
_cell_length_b                    14.008092
_cell_length_c                    30.046904
_cell_angle_alpha                 97.915932
_cell_angle_beta                  90.118354
_cell_angle_gamma                 118.668158
_cell_volume                      4909.34364379

loop_
_atom_site_label
_atom_site_type_symbol
_atom_type_description
_atom_site_fract_x
_atom_site_fract_y
_atom_site_fract_z
_atom_type_partial_charge
C1    C     C_R   0.721485 0.099165 0.569047 0.541061
C2    C     C_1   0.319011 0.644413 0.761260 -0.042100
C3    C     C_3   0.791266 0.410905 0.357249 0.040736
C4    C     C_3   0.774396 0.471198 0.321731 -0.279912
C5    C     C_3   0.700697 0.522757 0.337783 -0.497110
C6    C     C_3   0.946487 0.391869 0.448822 0.009565
C7    C     C_3   0.978046 0.343888 0.485861 -0.270014
C8    C     C_3   0.098873 0.421316 0.506642 -0.479577
C9    C     C_3   0.831683 0.917747 0.360409 0.017757
C10   C     C_3   0.781124 0.822148 0.320988 -0.265312
C11   C     C_3   0.868650 0.788193 0.304689 -0.498237
C12   C     C_3   0.791928 0.959891 0.071202 0.023561
C13   C     C_1   0.322606 0.652643 0.722136 -0.033455
C14   C     C_3   0.722202 0.877239 0.102306 -0.286842
C15   C     C_3   0.615418 0.780176 0.076985 -0.469336
C16   C     C_3   0.643902 0.774128 0.613178 0.017941
C17   C     C_3   0.744205 0.853457 0.647160 -0.262273
C18   C     C_3   0.824083 0.807334 0.654490 -0.491245
C19   C     C_R   0.384592 0.789863 0.551492 0.557806
C20   C     C_R   0.298598 0.596594 0.896810 0.020228
C21   C     C_3   0.236829 0.168157 0.724936 -0.101914
C22   C     C_3   0.220620 0.077289 0.752947 -0.102332
C23   C     C_1   0.296875 0.197785 0.876513 -0.019954
C24   C     C_1   0.364485 0.135982 0.613824 -0.016763
C25   C     C_3   0.328957 0.256473 0.761058 -0.099236
C26   C     C_3   0.313075 0.165435 0.788250 0.051609
C27   C     C_R   0.334772 0.669029 0.676342 -0.005102
C28   C     C_3   0.422004 0.240961 0.736239 -0.100182
C29   C     C_3   0.329764 0.152874 0.700854 0.052091
C30   C     C_3   0.405940 0.150209 0.764112 -0.102296
C31   C     C_R   0.397232 0.118769 0.569571 0.545415
C32   C     C_3   0.313835 0.061787 0.728008 -0.099704
C33   C     C_1   0.304805 0.178462 0.836876 -0.061628
C34   C     C_1   0.344781 0.145336 0.652675 -0.058161
C35   C     C_3   0.880238 0.273803 0.734864 0.313923
C36   C     C_3   0.783648 0.230178 0.766584 -0.102297
C37   C     C_1   0.897143 0.205003 0.878224 -0.014937
C38   C     C_R   0.240887 0.643794 0.647736 -0.133018
C39   C     C_1   0.770815 0.131973 0.614298 -0.001242
C40   C     C_3   0.947869 0.230902 0.759222 -0.095656
C41   C     C_3   0.849910 0.184894 0.790466 0.010636
C42   C     C_3   0.886948 0.120039 0.726467 -0.144140
C43   C     C_R   0.720414 0.095430 0.442606 0.574055
C44   C     C_3   0.821288 0.165195 0.702444 0.070826
C45   C     C_3   0.790142 0.074288 0.758456 -0.117902
C46   C     C_3   0.724034 0.119244 0.733742 -0.134808
C47   C     C_1   0.870264 0.194730 0.838994 -0.059842
C48   C     C_1   0.799389 0.150995 0.653803 -0.023126
C49   C     C_R   0.257157 0.677211 0.605530 -0.182443
C50   C     C_3   0.247317 0.658313 0.258183 -0.097118
C51   C     C_3   0.318545 0.747958 0.229509 0.040228
C52   C     C_1   0.311350 0.611319 0.110722 -0.027466
C53   C     C_1   0.367847 0.738683 0.377859 -0.006230
C54   C     C_3   0.274092 0.575693 0.227966 -0.110485
C55   C     C_R   0.382362 0.784509 0.424338 0.540865
C56   C     C_3   0.345076 0.666370 0.199734 0.050287
C57   C     C_3   0.382325 0.611908 0.259045 -0.117126
C58   C     C_3   0.355414 0.694105 0.288590 0.050688
C59   C     C_3   0.453374 0.702281 0.230089 -0.104257
C60   C     C_R   0.244109 0.658513 0.834240 -0.126190
C61   C     C_3   0.425777 0.783961 0.260303 0.037188
C62   C     C_1   0.331619 0.642317 0.150620 -0.063551
C63   C     C_1   0.360717 0.713228 0.337698 -0.048612
C64   C     C_R   0.362433 0.130031 0.398400 0.033269
C65   C     C_R   0.446629 0.213821 0.377524 -0.144408
C66   C     C_R   0.433824 0.214985 0.331865 -0.133067
C67   C     C_R   0.396274 0.114122 0.442565 0.536030
C68   C     C_R   0.335671 0.134703 0.306417 0.023555
C69   C     C_R   0.246108 0.057051 0.326981 -0.096725
C70   C     C_R   0.257785 0.053874 0.373165 -0.005114
C71   C     C_R   0.234338 0.638901 0.878601 -0.128261
C72   C     C_R   0.239815 0.072705 0.141468 0.018235
C73   C     C_R   0.233621 0.100813 0.099065 -0.098694
C74   C     C_R   0.411807 0.270595 0.118028 -0.139526
C75   C     C_R   0.419086 0.243182 0.160260 -0.131834
C76   C     C_R   0.331399 0.147248 0.172775 0.054132
C77   C     C_1   0.330141 0.135845 0.219317 -0.032831
C78   C     C_1   0.329967 0.132279 0.258892 -0.043280
C79   C     C_R   0.367433 0.735442 0.591615 0.028865
C80   C     C_R   0.316250 0.202148 0.087955 0.003747
C81   C     C_R   0.782239 0.135186 0.402479 -0.004594
C82   C     C_R   0.379000 0.582435 0.871062 -0.133377
C83   C     C_R   0.787666 0.060164 0.367225 0.198688
C84   C     C_R   0.815230 0.092321 0.324818 -0.189360
C85   C     C_R   0.840139 0.197261 0.317499 -0.028635
C86   C     C_R   0.844972 0.275657 0.352940 0.265257
C87   C     C_R   0.822823 0.246277 0.396547 0.205190
C88   C     C_R   0.855968 0.303505 0.162472 0.025832
C89   C     C_R   0.866772 0.296543 0.115216 -0.029866
C90   C     C_R   0.882687 0.129685 0.115061 0.250897
C91   C     C_R   0.462163 0.753770 0.619487 0.255309
C92   C     C_R   0.870370 0.136598 0.161019 -0.114803
C93   C     C_R   0.388096 0.601608 0.826630 -0.121172
C94   C     C_R   0.861728 0.224157 0.185015 -0.014985
C95   C     C_1   0.856531 0.226299 0.232764 -0.028196
C96   C     C_1   0.851166 0.218580 0.272045 0.022367
C97   C     C_R   0.893532 0.216280 0.092500 0.006805
C98   C     C_R   0.284080 0.232548 0.922039 0.543496
C99   C     C_R   0.266295 0.547435 0.938101 0.539004
C100  C     C_R   0.945250 0.222184 0.922885 0.539385
C101  C     C_R   0.293015 0.242462 0.048644 0.542638
C102  C     C_R   0.275697 0.559418 0.064982 0.545327
C103  C     C_R   0.444037 0.721898 0.662251 -0.107830
C104  C     C_R   0.317969 0.636085 0.807935 0.034485
C105  C     C_R   0.951929 0.232292 0.049789 0.547924
C106  C     C_3   0.969914 0.464538 0.754955 0.005449
C107  C     C_3   0.893826 0.518131 0.757510 -0.262401
C108  C     C_3   0.941643 0.620932 0.793330 -0.489920
C109  C     C_3   0.282911 0.825540 0.212751 -0.405754
C110  C     C_3   0.512305 0.902394 0.279236 -0.402099
C111  C     C_3   0.144520 0.966527 0.152514 -0.407521
C112  C     C_3   0.159229 0.967992 0.393829 -0.389829
C113  C     C_3   0.849280 0.374028 0.089704 -0.375781
C114  C     C_3   0.841117 0.396187 0.188251 -0.393372
Cr1   Cr    Cr6+3 0.583430 0.162610 0.509470 1.045285
Cr2   Cr    Cr6+3 0.584210 0.916680 0.495400 1.055121
Cr3   Cr    Cr6+3 0.332380 0.920740 0.495100 1.002351
Cr4   Cr    Cr6+3 0.086810 0.177030 0.983130 1.029296
Cr5   Cr    Cr6+3 0.337180 0.419300 0.994610 1.008905
Cr6   Cr    Cr6+3 0.084840 0.422330 0.995830 1.006427
H1    H     H_    0.171969 0.650825 0.897723 0.126363
H2    H     H_    0.928840 0.074906 0.709502 0.100453
H3    H     H_    0.191021 0.686902 0.819959 0.101337
H4    H     H_    0.039845 0.278076 0.770298 0.105558
H5    H     H_    0.162822 0.640059 0.269995 0.111154
H6    H     H_    0.538013 0.721318 0.218234 0.094954
H7    H     H_    0.407909 0.555482 0.271730 0.109061
H8    H     H_    0.211222 0.489259 0.214032 0.123039
H9    H     H_    0.160260 0.046100 0.075785 0.144032
H10   H     H_    0.168945 0.996919 0.306721 0.099210
H11   H     H_    0.155899 0.603411 0.658899 0.134591
H12   H     H_    0.167733 0.175778 0.708364 0.104349
H13   H     H_    0.526574 0.274571 0.395703 0.134396
H14   H     H_    0.489854 0.300471 0.184251 0.104794
H15   H     H_    0.476970 0.348737 0.110222 0.129029
H16   H     H_    0.502658 0.275820 0.315881 0.108704
H17   H     H_    0.183928 0.662484 0.584712 0.128587
H18   H     H_    0.870588 0.073701 0.178386 0.119105
H19   H     H_    0.810995 0.033028 0.296608 0.119704
H20   H     H_    0.446298 0.585193 0.806340 0.103646
H21   H     H_    0.429221 0.549432 0.884103 0.130857
H22   H     H_    0.515810 0.743980 0.685638 0.105028
H23   H     H_    0.307515 0.981463 0.713690 0.111834
H24   H     H_    0.137991 0.009846 0.760463 0.102587
H25   H     H_    0.056356 0.526053 0.747745 0.155565
H26   H     H_    0.978979 0.441966 0.788379 0.121716
H27   H     H_    0.886258 0.541371 0.724252 0.175437
H28   H     H_    0.807587 0.458329 0.765606 0.154159
H29   H     H_    0.952479 0.600437 0.826803 0.147829
H30   H     H_    0.882193 0.655092 0.795464 0.146168
H31   H     H_    0.024787 0.684687 0.784292 0.141703
H32   H     H_    0.269706 0.875048 0.241916 0.132268
H33   H     H_    0.350100 0.881729 0.193143 0.141186
H34   H     H_    0.475158 0.142679 0.780637 0.103278
H35   H     H_    0.202598 0.777034 0.190892 0.126173
H36   H     H_    0.551860 0.948485 0.251204 0.124760
H37   H     H_    0.469752 0.942719 0.299407 0.145329
H38   H     H_    0.579106 0.902987 0.301107 0.165674
H39   H     H_    0.157938 0.950873 0.186606 0.128867
H40   H     H_    0.063362 0.968921 0.150572 0.151670
H41   H     H_    0.137036 0.896384 0.127737 0.123088
H42   H     H_    0.079822 0.931066 0.371478 0.097262
H43   H     H_    0.176401 0.900415 0.399398 0.171107
H44   H     H_    0.144152 0.005968 0.426216 0.130526
H45   H     H_    0.504703 0.308474 0.728805 0.104810
H46   H     H_    0.777344 0.385273 0.101940 0.114639
H47   H     H_    0.927593 0.455348 0.093901 0.152001
H48   H     H_    0.825267 0.339937 0.053381 0.136975
H49   H     H_    0.756389 0.385492 0.178522 0.117250
H50   H     H_    0.847559 0.399888 0.225275 0.143002
H51   H     H_    0.908297 0.476671 0.180723 0.126926
H52   H     H_    0.821736 0.467485 0.389981 0.174399
H53   H     H_    0.706893 0.339189 0.360836 0.130737
H54   H     H_    0.858128 0.537201 0.314159 0.175292
H55   H     H_    0.732851 0.411721 0.290249 0.154432
H56   H     H_    0.335305 0.336846 0.775343 0.106548
H57   H     H_    0.619986 0.460823 0.349196 0.144859
H58   H     H_    0.680205 0.555703 0.309670 0.146069
H59   H     H_    0.746697 0.591251 0.366165 0.149423
H60   H     H_    0.956660 0.473555 0.463577 0.147025
H61   H     H_    0.006788 0.407316 0.421810 0.148157
H62   H     H_    0.917959 0.330036 0.512671 0.181648
H63   H     H_    0.971463 0.263436 0.471494 0.147416
H64   H     H_    0.160639 0.433783 0.480624 0.149865
H65   H     H_    0.118804 0.385087 0.533681 0.154223
H66   H     H_    0.107556 0.502263 0.521528 0.147965
H67   H     H_    0.741382 0.274689 0.783721 0.091532
H68   H     H_    0.851712 0.887968 0.389794 0.145974
H69   H     H_    0.914389 0.984976 0.352100 0.116099
H70   H     H_    0.707239 0.750603 0.331839 0.170005
H71   H     H_    0.750292 0.846184 0.292462 0.154079
H72   H     H_    0.942147 0.858233 0.292861 0.141336
H73   H     H_    0.829542 0.718906 0.276163 0.143256
H74   H     H_    0.898968 0.761080 0.332302 0.145719
H75   H     H_    0.812000 0.915501 0.042150 0.156141
H76   H     H_    0.740601 0.993225 0.056750 0.115051
H77   H     H_    0.774996 0.845863 0.116683 0.165226
H78   H     H_    0.632169 0.072575 0.722463 0.117291
H79   H     H_    0.696415 0.918632 0.130503 0.151513
H80   H     H_    0.559945 0.809398 0.063255 0.148528
H81   H     H_    0.567521 0.721900 0.100415 0.154281
H82   H     H_    0.638287 0.735780 0.048902 0.145041
H83   H     H_    0.677264 0.765009 0.579984 0.150738
H84   H     H_    0.600977 0.690298 0.623040 0.105683
H85   H     H_    0.792365 0.933165 0.634527 0.179409
H86   H     H_    0.712587 0.869343 0.679948 0.158550
H87   H     H_    0.778531 0.728855 0.668222 0.146186
H88   H     H_    0.896172 0.867406 0.678954 0.141894
H89   H     H_    0.752472 0.991663 0.768884 0.113512
H90   H     H_    0.858324 0.792497 0.622224 0.149771
O1    O     O_R   0.493980 0.188910 0.559650 -0.505563
O2    O     O_R   0.170560 0.527890 0.952050 -0.517880
O3    O     O_R   0.987620 0.318470 0.945550 -0.498416
O4    O     O_R   0.678640 0.153520 0.554450 -0.499414
O5    O     O_R   0.976400 0.159270 0.031530 -0.467945
O6    O     O_R   0.194000 0.188570 0.028560 -0.496555
O7    O     O_R   0.365260 0.335720 0.039020 -0.517657
O8    O     O_R   0.330440 0.515580 0.044910 -0.495813
O9    O     O_R   0.177310 0.536200 0.050190 -0.511219
O10   O     O_R   0.993870 0.326170 0.036530 -0.508572
O11   O     O_3   0.169610 0.339550 0.991190 -0.239191
O12   O     O_R   0.480180 0.824400 0.444640 -0.487041
O13   O     O_R   0.698130 0.004030 0.549500 -0.490934
O14   O     O_R   0.481060 0.827210 0.535360 -0.450268
O15   O     O_R   0.309260 0.811560 0.537660 -0.529831
O16   O     O_R   0.341620 0.023400 0.546290 -0.495186
O17   O     O_R   0.493030 0.185890 0.461780 -0.513215
O18   O     O_R   0.677760 0.150720 0.463730 -0.462815
O19   O     O_R   0.697180 0.001010 0.451640 -0.472814
O20   O     O_3   0.927634 0.375607 0.718814 -0.572590
O21   O     O_3   0.874735 0.380664 0.344286 -0.572740
O22   O     O_3   0.831255 0.323607 0.432592 -0.571690
O23   O     O_R   0.308310 0.808540 0.439800 -0.523935
O24   O     O_3   0.750263 0.951518 0.372675 -0.542765
O25   O     O_3   0.896437 0.043052 0.093907 -0.557137
O26   O     O_3   0.571769 0.820117 0.608043 -0.543599
O27   O     O_R   0.340740 0.020600 0.455570 -0.504427
O28   O     O_3   0.500010 0.000010 0.499990 -0.253318
O29   O     O_R   0.969650 0.150960 0.933380 -0.512965
O30   O     O_R   0.187740 0.180870 0.937580 -0.495492
O31   O     O_R   0.358510 0.327410 0.940870 -0.514357
O32   O     O_R   0.324180 0.507870 0.953930 -0.504634

loop_
_geom_bond_atom_site_label_1
_geom_bond_atom_site_label_2
_ccdc_geom_bond_type
Cr4   O29   S    
Cr6   O2    S    
C114  H49   S    
C66   C68   A    
C111  H40   S    
Cr6   O11   S    
C105  O5    A    
C49   H17   S    
Cr2   O19   S    
C12   O25   S    
C16   H84   S    
C35   C36   S    
C51   C61   S    
C11   H74   S    
C72   C76   A    
C9    H68   S    
C92   H18   S    
C113  H48   S    
C75   H14   S    
C7    C8    S    
C38   C49   A    
C77   C78   T    
C59   H6    S    
Cr3   O15   S    
C50   C54   S    
C106  H25   S    
C22   C32   S    
C86   O21   S    
C113  H47   S    
C28   C29   S    
C18   H90   S    
C11   H72   S    
C29   C32   S    
C6    O22   S    
C85   C96   S    
C3    H52   S    
C46   H78   S    
C98   O30   A    
C106  C107  S    
C16   O26   S    
C27   C38   A    
C87   O22   S    
Cr2   O28   S    
Cr5   O11   S    
C100  O29   A    
C18   H88   S    
C51   C56   S    
C2    C13   T    
C111  H39   S    
C5    H59   S    
C32   H23   S    
C81   C83   A    
C68   C69   A    
C3    H53   S    
C95   C96   T    
C84   H19   S    
C16   C17   S    
C23   C33   T    
C4    H55   S    
C111  H41   S    
Cr5   O8    S    
C107  C108  S    
C20   C71   A    
C36   C46   S    
Cr4   O5    S    
C64   C70   A    
C37   C47   T    
C16   H83   S    
C109  H33   S    
C9    C10   S    
C90   C97   A    
C79   C91   A    
C110  H38   S    
C97   C105  S    
C8    H64   S    
C58   C61   S    
C40   C42   S    
C72   C111  S    
Cr3   O27   S    
C51   C109  S    
C82   C93   A    
C4    H54   S    
C21   C22   S    
Cr4   O11   S    
Cr2   O12   S    
C12   H76   S    
C36   C41   S    
C69   C70   A    
C42   C44   S    
C55   O23   A    
C82   H21   S    
C9    H69   S    
C61   C110  S    
C93   C104  A    
C15   H81   S    
C44   C46   S    
C17   C18   S    
C89   C113  S    
C99   O2    A    
C53   C55   S    
C68   C78   S    
C114  H51   S    
C112  H44   S    
C14   H77   S    
C73   H9    S    
Cr3   O16   S    
C59   C61   S    
C74   C75   A    
C6    H61   S    
C50   C58   S    
C64   C67   S    
C109  H32   S    
C110  H36   S    
C84   C85   A    
C3    O21   S    
C113  H46   S    
C102  O8    A    
C86   C87   A    
C69   H10   S    
C60   C71   A    
C8    H66   S    
C25   C26   S    
C85   C86   A    
C54   H8    S    
C29   C34   S    
C67   O27   A    
C45   H89   S    
C106  O20   S    
Cr1   O4    S    
C89   C97   A    
C18   H87   S    
C25   C28   S    
C42   C45   S    
Cr2   O14   S    
C60   H3    S    
C75   C76   A    
C21   H12   S    
Cr1   O17   S    
C30   C32   S    
C101  O7    A    
C108  H31   S    
C107  H27   S    
C26   C33   S    
C90   C92   A    
C83   C84   A    
C83   O24   S    
Cr3   O23   S    
Cr6   O10   S    
C105  O10   A    
C52   C102  S    
C74   H15   S    
C92   C94   A    
C50   C51   S    
C41   C47   S    
C50   H5    S    
C10   H70   S    
C76   C77   S    
C40   H4    S    
C19   C79   S    
C35   C44   S    
Cr5   O31   S    
C5    H57   S    
Cr3   O28   S    
C81   C87   A    
C110  H37   S    
C70   C112  S    
C28   H45   S    
C55   O12   A    
C66   H16   S    
C102  O9    A    
C40   C41   S    
C12   C14   S    
C2    C104  S    
C26   C30   S    
C43   C81   S    
C12   H75   S    
C56   C62   S    
C3    C4    S    
C103  H22   S    
C107  H28   S    
C15   H82   S    
C49   C79   A    
C43   O18   A    
C42   H2    S    
Cr4   O30   S    
C58   C63   S    
C114  H50   S    
C112  H43   S    
C21   C25   S    
C17   H86   S    
C7    H62   S    
C6    H60   S    
C9    O24   S    
C71   H1    S    
C19   O14   A    
C11   H73   S    
C91   C103  A    
C72   C73   A    
C100  O3    A    
C57   H7    S    
Cr1   O28   S    
Cr4   O6    S    
C43   O19   A    
C54   C56   S    
C6    C7    S    
Cr1   O1    S    
C8    H65   S    
C112  H42   S    
C14   H79   S    
C10   H71   S    
C106  H26   S    
C56   C59   S    
C7    H63   S    
C80   C101  S    
C1    O13   A    
C35   O20   S    
C98   O31   A    
C64   C65   A    
C36   H67   S    
C99   O32   A    
C17   H85   S    
C35   C40   S    
Cr6   O3    S    
C24   C31   S    
Cr1   O18   S    
C19   O15   A    
C93   H20   S    
C52   C62   T    
C38   H11   S    
C67   O17   A    
C15   H80   S    
C53   C63   T    
C25   H56   S    
C57   C58   S    
C20   C99   S    
C21   C29   S    
Cr2   O13   S    
Cr6   O9    S    
C4    C5    S    
C91   O26   S    
C27   C103  A    
C73   C80   A    
C28   C30   S    
C90   O25   S    
C65   C66   A    
C88   C114  S    
C94   C95   S    
C109  H35   S    
Cr5   O32   S    
C24   C34   T    
C5    H58   S    
C57   C59   S    
C10   C11   S    
C1    C39   S    
C108  H29   S    
C45   C46   S    
C108  H30   S    
C30   H34   S    
C23   C98   S    
C31   O1    A    
C88   C89   A    
C20   C82   A    
C22   C26   S    
C31   O16   A    
C22   H24   S    
C1    O4    A    
Cr5   O7    S    
C88   C94   A    
C41   C45   S    
C14   C15   S    
C13   C27   S    
C74   C80   A    
C101  O6    A    
C60   C104  A    
C37   C100  S    
C65   H13   S    
C44   C48   S    
C39   C48   T    
C54   C57   S    
