data_mof_unit_53402.cif
_audit_creation_date              2012-12-11T15:26:32-0500
_audit_creation_method            fapswitch 2.2
_symmetry_space_group_name_H-M    P1
_symmetry_Int_Tables_number       1
_space_group_crystal_system       triclinic
_cell_length_a                    7.223321
_cell_length_b                    12.139629
_cell_length_c                    29.098378
_cell_angle_alpha                 89.999113
_cell_angle_beta                  89.992478
_cell_angle_gamma                 90.233092
_cell_volume                      2551.57015135

loop_
_atom_site_label
_atom_site_type_symbol
_atom_type_description
_atom_site_fract_x
_atom_site_fract_y
_atom_site_fract_z
_atom_type_partial_charge
O1    O     O_R   0.647170 0.849180 0.201220 -0.536858
O2    O     O_R   0.352830 0.150820 0.798780 -0.536858
O3    O     O_R   0.352830 0.150820 0.701220 -0.536859
O4    O     O_R   0.647170 0.849180 0.298780 -0.536859
O5    O     O_R   0.147170 0.650820 0.298780 -0.537281
O6    O     O_R   0.852830 0.349180 0.701220 -0.537281
O7    O     O_R   0.852830 0.349180 0.798780 -0.537281
O8    O     O_R   0.147170 0.650820 0.201220 -0.537281
O9    O     O_R   0.317430 0.862210 0.298450 -0.540173
O10   O     O_R   0.682570 0.137790 0.701550 -0.540173
O11   O     O_R   0.682570 0.137790 0.798450 -0.540175
O12   O     O_R   0.317430 0.862210 0.201550 -0.540175
O13   O     O_R   0.817430 0.637790 0.201550 -0.539981
O14   O     O_R   0.182570 0.362210 0.798450 -0.539981
O15   O     O_R   0.182570 0.362210 0.701550 -0.539984
O16   O     O_R   0.817430 0.637790 0.298450 -0.539984
H1    H     H_    0.963377 0.224586 0.455069 0.139653
H2    H     H_    0.036623 0.775414 0.544931 0.139653
H3    H     H_    0.035297 0.775462 0.955052 0.139638
H4    H     H_    0.964703 0.224538 0.044948 0.139638
H5    H     H_    0.538010 0.275102 0.045214 0.139693
H6    H     H_    0.461990 0.724898 0.954785 0.139693
H7    H     H_    0.463469 0.724831 0.545221 0.139669
H8    H     H_    0.536531 0.275169 0.454779 0.139669
C1    C     C_R   0.486038 0.887768 0.313327 0.682313
C2    C     C_R   0.513962 0.112232 0.686673 0.682314
C3    C     C_R   0.513944 0.112232 0.813326 0.682328
C4    C     C_R   0.486056 0.887768 0.186674 0.682328
C5    C     C_R   0.985452 0.612190 0.186658 0.682581
C6    C     C_R   0.014548 0.387810 0.813342 0.682581
C7    C     C_R   0.014566 0.387812 0.686658 0.682585
C8    C     C_R   0.985434 0.612188 0.313342 0.682585
H9    H     H_    0.958262 0.260905 0.373444 0.124670
H10   H     H_    0.041738 0.739095 0.626556 0.124670
H11   H     H_    0.040466 0.739136 0.873427 0.124659
H12   H     H_    0.959534 0.260863 0.126573 0.124659
H13   H     H_    0.534250 0.238670 0.126851 0.124620
H14   H     H_    0.465749 0.761330 0.873149 0.124620
H15   H     H_    0.467182 0.761264 0.626858 0.124611
H16   H     H_    0.532818 0.238736 0.373142 0.124611
H17   H     H_    0.985568 0.337599 0.599555 0.096881
H18   H     H_    0.014431 0.662401 0.400445 0.096881
H19   H     H_    0.013826 0.662439 0.099545 0.096854
H20   H     H_    0.986174 0.337561 0.900455 0.096854
H21   H     H_    0.523643 0.162552 0.900617 0.096403
H22   H     H_    0.476357 0.837448 0.099383 0.096403
H23   H     H_    0.477031 0.837413 0.400620 0.096393
H24   H     H_    0.522969 0.162587 0.599380 0.096393
O17   O     O_3   0.480630 0.680630 0.250000 -0.376861
O18   O     O_3   0.519370 0.319370 0.750000 -0.376861
O19   O     O_3   0.980630 0.819370 0.250000 -0.376776
O20   O     O_3   0.019370 0.180630 0.750000 -0.376776
V1    V     V_3+5 0.205800 0.762860 0.250000 1.422827
V2    V     V_3+5 0.794200 0.237140 0.750000 1.422827
V3    V     V_3+5 0.705800 0.737140 0.250000 1.424182
V4    V     V_3+5 0.294200 0.262860 0.750000 1.424181
H25   H     H_    0.974337 0.283477 0.532576 0.129575
H26   H     H_    0.025663 0.716523 0.467424 0.129575
H27   H     H_    0.024650 0.716571 0.032563 0.129580
H28   H     H_    0.975350 0.283429 0.967437 0.129580
H29   H     H_    0.530813 0.216492 0.967644 0.129761
H30   H     H_    0.469187 0.783508 0.032356 0.129761
H31   H     H_    0.470306 0.783455 0.467649 0.129763
H32   H     H_    0.529694 0.216545 0.532350 0.129763
C9    C     C_R   0.991229 0.534412 0.351711 -0.026124
C10   C     C_R   0.008771 0.465588 0.648289 -0.026124
C11   C     C_R   0.008686 0.465578 0.851711 -0.026082
C12   C     C_R   0.991314 0.534422 0.148289 -0.026082
C13   C     C_R   0.495056 0.965324 0.148274 -0.025433
C14   C     C_R   0.504944 0.034676 0.851726 -0.025433
C15   C     C_R   0.505036 0.034675 0.648274 -0.025417
C16   C     C_R   0.494964 0.965325 0.351726 -0.025417
C17   C     C_R   0.971179 0.348319 0.380434 -0.169450
C18   C     C_R   0.028821 0.651681 0.619566 -0.169450
C19   C     C_R   0.027971 0.651704 0.880423 -0.169468
C20   C     C_R   0.972028 0.348296 0.119577 -0.169468
C21   C     C_R   0.521409 0.151301 0.119757 -0.169064
C22   C     C_R   0.478590 0.848699 0.880243 -0.169064
C23   C     C_R   0.479548 0.848657 0.619761 -0.169077
C24   C     C_R   0.520452 0.151343 0.380239 -0.169077
C25   C     C_R   0.974566 0.421559 0.343639 -0.178738
C26   C     C_R   0.025434 0.578441 0.656361 -0.178738
C27   C     C_R   0.024814 0.578455 0.843631 -0.178755
C28   C     C_R   0.975186 0.421545 0.156369 -0.178755
C29   C     C_R   0.511493 0.078107 0.156507 -0.179135
C30   C     C_R   0.488507 0.921893 0.843493 -0.179135
C31   C     C_R   0.489204 0.921863 0.656509 -0.179136
C32   C     C_R   0.510796 0.078137 0.343490 -0.179136
C33   C     C_R   0.003450 0.574370 0.396726 -0.217656
C34   C     C_R   0.996550 0.425630 0.603274 -0.217656
C35   C     C_R   0.996773 0.425607 0.896731 -0.217644
C36   C     C_R   0.003227 0.574393 0.103269 -0.217644
C37   C     C_R   0.488835 0.925391 0.103189 -0.217534
C38   C     C_R   0.511165 0.074609 0.896810 -0.217534
C39   C     C_R   0.510917 0.074624 0.603188 -0.217529
C40   C     C_R   0.489083 0.925376 0.396812 -0.217530
C41   C     C_R   0.997303 0.501941 0.434931 0.081627
C42   C     C_R   0.002697 0.498059 0.565069 0.081627
C43   C     C_R   0.002654 0.498051 0.934931 0.081648
C44   C     C_R   0.997346 0.501949 0.065069 0.081648
C45   C     C_R   0.499139 0.997856 0.065063 0.081644
C46   C     C_R   0.500861 0.002144 0.934937 0.081644
C47   C     C_R   0.500913 0.002144 0.565063 0.081656
C48   C     C_R   0.499087 0.997856 0.434937 0.081656
C49   C     C_R   0.981690 0.387330 0.425800 0.130789
C50   C     C_R   0.018310 0.612670 0.574200 0.130789
C51   C     C_R   0.017722 0.612684 0.925793 0.130776
C52   C     C_R   0.982278 0.387316 0.074207 0.130776
C53   C     C_R   0.515344 0.112381 0.074323 0.130714
C54   C     C_R   0.484656 0.887619 0.925677 0.130714
C55   C     C_R   0.485318 0.887591 0.574326 0.130696
C56   C     C_R   0.514682 0.112409 0.425674 0.130696
C57   C     C_R   0.004226 0.539246 0.481637 0.053644
C58   C     C_R   0.995773 0.460754 0.518363 0.053644
C59   C     C_R   0.995946 0.460743 0.981639 0.053656
C60   C     C_R   0.004054 0.539256 0.018361 0.053656
C61   C     C_R   0.494283 0.960717 0.018322 0.053605
C62   C     C_R   0.505717 0.039283 0.981678 0.053605
C63   C     C_R   0.505527 0.039293 0.518321 0.053611
C64   C     C_R   0.494473 0.960707 0.481679 0.053611
C65   C     C_R   0.981438 0.347681 0.507152 -0.194416
C66   C     C_R   0.018562 0.652318 0.492848 -0.194416
C67   C     C_R   0.017847 0.652349 0.007143 -0.194431
C68   C     C_R   0.982152 0.347651 0.992857 -0.194431
C69   C     C_R   0.521366 0.152240 0.993003 -0.194328
C70   C     C_R   0.478634 0.847760 0.006997 -0.194328
C71   C     C_R   0.479426 0.847723 0.493007 -0.194349
C72   C     C_R   0.520574 0.152277 0.506993 -0.194349
C73   C     C_R   0.975012 0.312182 0.461883 -0.200235
C74   C     C_R   0.024987 0.687818 0.538117 -0.200235
C75   C     C_R   0.024080 0.687849 0.961872 -0.200283
C76   C     C_R   0.975919 0.312151 0.038128 -0.200283
C77   C     C_R   0.525731 0.187576 0.038310 -0.200451
C78   C     C_R   0.474269 0.812423 0.961690 -0.200451
C79   C     C_R   0.475281 0.812378 0.538315 -0.200470
C80   C     C_R   0.524719 0.187622 0.461685 -0.200470
H33   H     H_    0.036575 0.609662 0.691138 0.101190
H34   H     H_    0.963425 0.390338 0.308862 0.101190
H35   H     H_    0.964305 0.390311 0.191150 0.101174
H36   H     H_    0.035695 0.609689 0.808850 0.101174
H37   H     H_    0.483209 0.890673 0.808633 0.100885
H38   H     H_    0.516791 0.109327 0.191367 0.100885
H39   H     H_    0.515802 0.109372 0.308630 0.100882
H40   H     H_    0.484198 0.890628 0.691370 0.100882

loop_
_geom_bond_atom_site_label_1
_geom_bond_atom_site_label_2
_ccdc_geom_bond_type
C7    C10   S    
O14   V4    S    
C11   C27   A    
C60   C67   A    
C4    C13   S    
C44   C60   A    
C19   C27   A    
C20   C28   A    
C23   C31   A    
O4    C1    A    
C64   C71   A    
O9    C1    A    
C10   C34   A    
C9    C33   A    
H11   C19   S    
H6    C78   S    
O8    C5    A    
O5    V1    S    
C14   C38   A    
C56   C80   A    
C26   H33   S    
C13   C37   A    
C72   C80   A    
C43   C59   A    
C42   C58   A    
C10   C26   A    
C45   C53   A    
C59   C60   A    
C68   C76   A    
C47   C55   A    
H5    C77   S    
H28   C68   S    
H12   C20   S    
C58   C65   A    
C9    C25   A    
C57   C66   A    
C28   H35   S    
C39   C47   A    
H32   C72   S    
O1    C4    A    
H23   C40   S    
H16   C24   S    
O2    C3    A    
C62   C69   A    
C31   H40   S    
C61   C70   A    
C32   H39   S    
C6    C11   S    
C46   C62   A    
O5    C8    A    
C41   C49   A    
C63   C72   A    
H8    C80   S    
H17   C34   S    
C21   C29   A    
C20   C52   A    
O7    C6    A    
H3    C75   S    
C2    C15   S    
H4    C76   S    
H21   C38   S    
C17   C25   A    
C27   H36   S    
C16   C32   A    
O20   V2    S    
H27   C67   S    
C25   H34   S    
C44   C52   A    
H26   C66   S    
C53   C77   A    
C12   C28   A    
C19   C51   A    
C51   C75   A    
H24   C39   S    
C37   C45   A    
C48   C56   A    
C49   C73   A    
H14   C22   S    
O17   V3    S    
H13   C21   S    
O18   V4    S    
C33   C41   A    
O19   V1    S    
H15   C23   S    
C29   H38   S    
C18   C50   A    
C5    C12   S    
O3    V4    S    
C17   C49   A    
O11   C3    A    
C69   C77   A    
C24   C56   A    
C11   C35   A    
O10   C2    A    
C22   C54   A    
C1    C16   S    
C21   C53   A    
C3    C14   S    
C38   C46   A    
H20   C35   S    
H10   C18   S    
C15   C31   A    
H9    C17   S    
O12   C4    A    
O6    V2    S    
C40   C48   A    
O4    V3    S    
C46   C54   A    
O9    V1    S    
C41   C57   A    
C14   C30   A    
C13   C29   A    
C36   C44   A    
H30   C70   S    
C57   C58   A    
C18   C26   A    
O13   C5    A    
C50   C74   A    
C65   C73   A    
C59   C68   A    
C67   C75   A    
O3    C2    A    
C47   C63   A    
O12   V1    S    
C71   C79   A    
O8    V1    S    
C63   C64   A    
O15   C7    A    
H7    C79   S    
O16   C8    A    
C43   C51   A    
H19   C36   S    
C42   C50   A    
H2    C74   S    
C23   C55   A    
H18   C33   S    
C45   C61   A    
O15   V4    S    
O1    V3    S    
O16   V3    S    
O14   C6    A    
C24   C32   A    
O2    V4    S    
C61   C62   A    
C55   C79   A    
H22   C37   S    
C12   C36   A    
C34   C42   A    
O6    C7    A    
O10   V2    S    
O13   V3    S    
C52   C76   A    
C54   C78   A    
H25   C65   S    
C16   C40   A    
C15   C39   A    
C70   C78   A    
C22   C30   A    
O11   V2    S    
H29   C69   S    
O7    V2    S    
C35   C43   A    
C66   C74   A    
H1    C73   S    
H31   C71   S    
C30   H37   S    
C8    C9    S    
C48   C64   A    
