data_mof_unit_28608.cif
_audit_creation_date              2012-12-10T17:48:51-0500
_audit_creation_method            fapswitch 2.2
_symmetry_space_group_name_H-M    P1
_symmetry_Int_Tables_number       1
_space_group_crystal_system       triclinic
_cell_length_a                    10.748607
_cell_length_b                    14.732379
_cell_length_c                    14.769385
_cell_angle_alpha                 64.515893
_cell_angle_beta                  104.49566
_cell_angle_gamma                 101.780003
_cell_volume                      2031.52410386

loop_
_atom_site_label
_atom_site_type_symbol
_atom_type_description
_atom_site_fract_x
_atom_site_fract_y
_atom_site_fract_z
_atom_type_partial_charge
C1    C     C_R   0.476634 0.119949 0.311834 0.778146
C2    C     C_3   0.877243 0.998301 0.499202 0.045447
C3    C     C_3   0.937292 0.908151 0.594322 -0.131392
C4    C     C_3   0.955979 0.098185 0.502798 -0.390830
C5    C     C_R   0.451678 0.188048 0.202768 -0.066138
C6    C     C_R   0.535376 0.812063 0.798763 -0.178706
C7    C     C_R   0.369814 0.217044 0.025203 -0.173693
C8    C     C_R   0.397744 0.150557 0.127326 -0.189630
C9    C     C_R   0.475023 0.292574 0.174521 -0.241572
C10   C     C_R   0.433314 0.360833 0.074214 0.050084
C11   C     C_R   0.389375 0.322786 0.996908 0.138222
C12   C     C_R   0.260133 0.001600 0.498410 0.778208
C13   C     C_R   0.443633 0.466637 0.048543 0.047090
C14   C     C_R   0.443779 0.534476 0.945403 -0.000931
C15   C     C_R   0.399141 0.495171 0.869257 -0.192572
C16   C     C_R   0.368275 0.391243 0.893695 0.154641
C17   C     C_R   0.451200 0.507880 0.121156 0.171063
C18   C     C_R   0.493896 0.609661 0.097967 -0.216953
C19   C     C_R   0.517199 0.675887 0.000582 0.075061
C20   C     C_R   0.485837 0.639486 0.922041 0.054737
C21   C     C_R   0.567347 0.778437 0.980188 0.165930
C22   C     C_R   0.572667 0.847556 0.878188 -0.009322
C23   C     C_R   0.524524 0.880056 0.688596 0.820421
C24   C     C_R   0.500655 0.708561 0.823141 -0.215432
C25   C     C_R   0.758214 0.300113 0.631448 -0.318775
C26   C     C_R   0.706936 0.212581 0.614704 0.052324
C27   C     C_R   0.506034 0.279662 0.530057 0.315868
C28   C     C_R   0.549210 0.365090 0.557390 -0.015959
C29   C     C_R   0.681361 0.378365 0.599173 0.123915
C30   C     C_R   0.470107 0.441972 0.537300 0.090976
C31   C     C_R   0.528617 0.540066 0.531159 0.063933
C32   C     C_R   0.662951 0.552007 0.566783 -0.217887
C33   C     C_R   0.736299 0.470808 0.605269 -0.178340
C34   C     C_R   0.739580 0.999188 0.500017 0.780822
C35   C     C_R   0.334706 0.422999 0.528478 -0.243589
C36   C     C_R   0.257918 0.501701 0.483749 -0.222164
C37   C     C_R   0.314342 0.601204 0.459070 0.170337
C38   C     C_R   0.449221 0.621431 0.490119 -0.024324
C39   C     C_R   0.235840 0.680056 0.409467 -0.318633
C40   C     C_R   0.288740 0.777571 0.398597 0.072946
C41   C     C_R   0.495977 0.721667 0.480951 0.005924
C42   C     C_3   0.033584 0.991394 0.398570 0.024254
C43   C     C_3   0.890000 0.993421 0.398985 -0.382489
C44   C     C_3   0.081283 0.910534 0.591549 -0.488249
C45   C     C_3   0.098202 0.099675 0.502300 -0.393766
C46   C     C_3   0.121471 0.002174 0.496607 0.144615
Cu1   Cu    Cu3+1 0.465900 0.918260 0.475680 0.943220
Cu2   Cu    Cu3+1 0.534100 0.081740 0.524320 0.934601
H1    H     H_    0.042602 0.916071 0.401597 0.149229
H2    H     H_    0.948993 0.106169 0.572971 0.167287
H3    H     H_    0.142718 0.915901 0.662376 0.172931
H4    H     H_    0.933549 0.918719 0.663929 0.154976
H5    H     H_    0.484991 0.683357 0.762500 0.175864
H6    H     H_    0.502727 0.637298 0.156635 0.166176
H7    H     H_    0.332716 0.184652 0.969127 0.156655
H8    H     H_    0.378480 0.069878 0.146920 0.160535
H9    H     H_    0.527801 0.320446 0.231582 0.180247
H10   H     H_    0.382752 0.544019 0.789356 0.148242
H11   H     H_    0.838475 0.482139 0.635205 0.145991
H12   H     H_    0.594045 0.740761 0.512865 0.142812
H13   H     H_    0.226276 0.837175 0.365772 0.125298
H14   H     H_    0.153689 0.484400 0.470084 0.143930
H15   H     H_    0.858476 0.307256 0.667929 0.142228
H16   H     H_    0.767580 0.152735 0.640924 0.124062
H17   H     H_    0.849051 0.059657 0.332769 0.178376
H18   H     H_    0.713365 0.622718 0.567785 0.152080
H19   H     H_    0.286345 0.347165 0.554804 0.159335
H20   H     H_    0.133066 0.665595 0.383512 0.135018
H21   H     H_    0.831716 0.925080 0.390259 0.142183
H22   H     H_    0.099850 0.839175 0.590784 0.164705
H23   H     H_    0.156947 0.105722 0.573549 0.175345
H24   H     H_    0.126243 0.167198 0.435806 0.175741
H25   H     H_    0.916301 0.164654 0.436098 0.180209
N1    N     N_R   0.585360 0.204570 0.560800 -0.167741
N2    N     N_R   0.414550 0.795430 0.439160 -0.183499
O1    O     O_R   0.455060 0.022100 0.338110 -0.580641
O2    O     O_R   0.512640 0.160150 0.379180 -0.591103
O3    O     O_R   0.288900 0.930980 0.479450 -0.602999
O4    O     O_R   0.346480 0.069030 0.520520 -0.580136
O5    O     O_R   0.487360 0.839850 0.620820 -0.560153
O6    O     O_R   0.544940 0.977900 0.661890 -0.584998
O7    O     O_R   0.653520 0.930970 0.479480 -0.582040
O8    O     O_R   0.711100 0.069020 0.520550 -0.603617
C47   C     C_3   0.318743 0.355484 0.807989 -0.877662
H26   H     H_    0.307356 0.419505 0.731888 0.242803
H27   H     H_    0.387666 0.308095 0.809001 0.246436
H28   H     H_    0.222666 0.310796 0.816773 0.224596
C48   C     C_2   0.617835 0.955949 0.855343 0.393654
H29   H     H_    0.696434 0.993139 0.813452 0.060604
O9    O     O_2   0.565443 0.004813 0.881212 -0.542497
C49   C     C_3   0.072903 0.070661 0.297639 -0.900177
H30   H     H_    0.011106 0.054294 0.232699 0.240219
H31   H     H_    0.060686 0.148319 0.285406 0.243185
H32   H     H_    0.174761 0.068014 0.296138 0.231254
C50   C     C_3   0.397706 0.451917 0.218192 -0.915453
H33   H     H_    0.332942 0.382678 0.218943 0.243285
H34   H     H_    0.479192 0.434002 0.284165 0.239733
H35   H     H_    0.337385 0.500119 0.226119 0.241786
C51   C     C_3   0.619418 0.811874 0.068152 -0.839270
H36   H     H_    0.679666 0.885859 0.047135 0.251903
H37   H     H_    0.537929 0.816250 0.099274 0.238203
H38   H     H_    0.683851 0.757131 0.129281 0.210203
C52   C     C_3   0.379778 0.276779 0.458747 -0.850978
H39   H     H_    0.305599 0.233763 0.505145 0.216343
H40   H     H_    0.351255 0.352874 0.407944 0.212758
H41   H     H_    0.381510 0.243956 0.405468 0.273979
C53   C     C_2   0.864722 0.806340 0.602961 0.352972
H42   H     H_    0.861759 0.778174 0.545537 0.049413
O10   O     O_2   0.809811 0.754666 0.674883 -0.561260

loop_
_geom_bond_atom_site_label_1
_geom_bond_atom_site_label_2
_ccdc_geom_bond_type
C45   H23   S    
C1    O2    A    
C39   H20   S    
C50   H33   S    
C47   H28   S    
C7    H7    S    
C8    H8    S    
C50   H35   S    
C7    C8    A    
C45   C46   S    
C7    C11   A    
C30   C35   A    
C1    C5    S    
Cu2   O4    S    
C36   C37   A    
C19   C21   A    
C47   H27   S    
Cu1   O1    S    
C18   C19   A    
C42   C46   S    
C30   C31   A    
C21   C51   S    
C41   N2    A    
C15   C16   A    
C6    C22   A    
C12   O4    A    
C29   C33   A    
C16   C47   S    
Cu2   O6    S    
C42   C49   S    
C25   H15   S    
Cu1   O7    S    
C26   H16   S    
C52   H39   S    
C51   H36   S    
C12   O3    A    
C53   H42   S    
C44   H22   S    
C17   C50   S    
C22   C48   S    
C23   O5    A    
C27   N1    A    
C9    C10   A    
C2    C34   S    
C33   H11   S    
C21   C22   A    
C45   H24   S    
C53   O10   D    
Cu1   O5    S    
C36   H14   S    
C44   C46   S    
C4    C45   S    
C25   C29   A    
C3    C44   S    
Cu2   N1    S    
C47   H26   S    
C38   C41   A    
C12   C46   S    
C39   C40   A    
C3    C53   S    
C24   H5    S    
C40   H13   S    
C4    H2    S    
C35   C36   A    
Cu2   O2    S    
C2    C4    S    
C40   N2    A    
C5    C9    A    
C37   C38   A    
C14   C20   A    
C49   H31   S    
C11   C16   A    
Cu1   Cu2   S    
C35   H19   S    
C2    C43   S    
C43   H17   S    
C6    C24   A    
C17   C18   A    
C52   H40   S    
C4    H25   S    
C44   H3    S    
C51   H37   S    
C48   O9    D    
C15   H10   S    
C34   O8    A    
C49   H30   S    
C32   H18   S    
C28   C29   A    
C23   O6    A    
C1    O1    A    
C31   C32   A    
C41   H12   S    
C10   C13   A    
C5    C8    A    
C3    H4    S    
C50   H34   S    
C31   C38   A    
Cu2   O8    S    
C13   C17   A    
C32   C33   A    
C19   C20   A    
C28   C30   A    
C2    C3    S    
C25   C26   A    
Cu1   N2    S    
C37   C39   A    
C49   H32   S    
C6    C23   S    
C27   C52   S    
C26   N1    A    
C52   H41   S    
C9    H9    S    
C10   C11   A    
C18   H6    S    
C42   H1    S    
C51   H38   S    
C48   H29   S    
C43   H21   S    
C42   C43   S    
C27   C28   A    
C14   C15   A    
C34   O7    A    
Cu1   O3    S    
C13   C14   A    
C20   C24   A    
