data_mof_unit_50783.cif
_audit_creation_date              2013-03-05T15:44:28-0500
_audit_creation_method            fapswitch 2.2
_symmetry_space_group_name_H-M    P1
_symmetry_Int_Tables_number       1
_space_group_crystal_system       triclinic
_cell_length_a                    19.939618
_cell_length_b                    7.27456
_cell_length_c                    19.62057
_cell_angle_alpha                 89.669221
_cell_angle_beta                  98.674271
_cell_angle_gamma                 90.505823
_cell_volume                      2813.3104623

loop_
_atom_site_label
_atom_site_type_symbol
_atom_site_description
_atom_site_fract_x
_atom_site_fract_y
_atom_site_fract_z
_atom_type_partial_charge
O1    O     O_R   0.673210 0.377390 0.686390 -0.565774
O2    O     O_R   0.326790 0.622610 0.313610 -0.565774
O3    O     O_R   0.826790 0.877390 0.813610 -0.560287
O4    O     O_R   0.173210 0.122610 0.186390 -0.560287
O5    O     O_R   0.810750 0.706450 0.681250 -0.542407
O6    O     O_R   0.189250 0.293550 0.318750 -0.542407
O7    O     O_R   0.689250 0.206450 0.818750 -0.547418
O8    O     O_R   0.310750 0.793550 0.181250 -0.547418
C1    C     C_R   0.831607 0.539476 0.666181 0.775057
C2    C     C_R   0.168393 0.460524 0.333819 0.775054
C3    C     C_R   0.666528 0.038250 0.831359 0.767019
C4    C     C_R   0.333472 0.961750 0.168641 0.767019
O9    O     O_R   0.672750 0.707060 0.678240 -0.549204
O10   O     O_R   0.327250 0.292940 0.321760 -0.549204
O11   O     O_R   0.827250 0.207060 0.821760 -0.535891
O12   O     O_R   0.172750 0.792940 0.178240 -0.535892
O13   O     O_R   0.687800 0.877990 0.810580 -0.535702
O14   O     O_R   0.312200 0.122010 0.189420 -0.535702
O15   O     O_R   0.812200 0.377990 0.689420 -0.531356
O16   O     O_R   0.187800 0.622010 0.310580 -0.531357
C5    C     C_R   0.648869 0.538257 0.661148 0.909149
C6    C     C_R   0.351130 0.461743 0.338852 0.909150
C7    C     C_R   0.851649 0.039185 0.838323 0.908794
C8    C     C_R   0.148350 0.960814 0.161677 0.908793
O17   O     O_3   0.755100 0.544060 0.793420 -0.272777
O18   O     O_3   0.244900 0.455940 0.206580 -0.272777
O19   O     O_3   0.744900 0.044060 0.706580 -0.280571
O20   O     O_3   0.255100 0.955940 0.293420 -0.280571
V1    V     V_3+5 0.749050 0.818670 0.741950 1.204266
V2    V     V_3+5 0.250950 0.181330 0.258050 1.204266
V3    V     V_3+5 0.750950 0.318670 0.758050 1.206204
V4    V     V_3+5 0.249050 0.681330 0.241950 1.206204
C9    C     C_R   0.084696 0.966813 0.111265 -0.213217
C10   C     C_R   0.915304 0.033186 0.888735 -0.213214
C11   C     C_R   0.414555 0.471132 0.389217 -0.217775
C12   C     C_R   0.585445 0.528868 0.610783 -0.217775
C13   C     C_R   0.038769 0.054559 0.921257 0.288238
C14   C     C_R   0.961231 0.945441 0.078743 0.288233
C15   C     C_R   0.461635 0.524432 0.580948 0.279732
C16   C     C_R   0.538365 0.475567 0.419052 0.279732
C17   C     C_R   0.980488 0.064056 0.869297 0.192082
C18   C     C_R   0.019512 0.935944 0.130702 0.192085
C19   C     C_R   0.520513 0.532178 0.631917 0.201478
C20   C     C_R   0.479487 0.467822 0.368083 0.201478
C21   C     C_R   0.909976 0.992839 0.957671 -0.117323
C22   C     C_R   0.090024 0.007161 0.042329 -0.117324
C23   C     C_R   0.590590 0.508545 0.540754 -0.123272
C24   C     C_R   0.409410 0.491455 0.459246 -0.123272
C25   C     C_R   0.967629 0.984496 0.009188 -0.064345
C26   C     C_R   0.032371 0.015506 0.990812 -0.064344
C27   C     C_R   0.532498 0.496039 0.489853 -0.069924
C28   C     C_R   0.467502 0.503961 0.510146 -0.069924
H1    H     H_    0.140244 0.032230 0.029383 0.143483
H2    H     H_    0.859756 0.967768 0.970617 0.143482
H3    H     H_    0.359082 0.499131 0.473323 0.146339
H4    H     H_    0.640918 0.500869 0.526677 0.146339
C29   C     C_R   0.542239 0.002159 0.851729 0.043300
C30   C     C_R   0.457760 0.997841 0.148270 0.043300
C31   C     C_R   0.944435 0.634143 0.630008 0.077691
C32   C     C_R   0.055565 0.365858 0.369991 0.077692
C33   C     C_R   0.613071 0.027740 0.876008 -0.048177
C34   C     C_R   0.386929 0.972260 0.123992 -0.048177
C35   C     C_R   0.882882 0.531794 0.618382 -0.070573
C36   C     C_R   0.117118 0.468206 0.381618 -0.070576
C37   C     C_R   0.636070 0.041520 0.946208 -0.047449
C38   C     C_R   0.363930 0.958480 0.053791 -0.047449
C39   C     C_R   0.871927 0.408915 0.563287 0.015852
C40   C     C_R   0.128072 0.591086 0.436712 0.015853
C41   C     C_R   0.591874 0.035738 0.995183 -0.047093
C42   C     C_R   0.408126 0.964262 0.004816 -0.047093
C43   C     C_R   0.919804 0.388027 0.518136 -0.005450
C44   C     C_R   0.080195 0.611975 0.481863 -0.005449
C45   C     C_R   0.522002 0.004654 0.974304 -0.031579
C46   C     C_R   0.477998 0.995346 0.025696 -0.031580
C47   C     C_R   0.976553 0.507730 0.523700 -0.015703
C48   C     C_R   0.023446 0.492271 0.476299 -0.015702
C49   C     C_R   0.496437 0.980724 0.902426 -0.038904
C50   C     C_R   0.503563 0.019276 0.097574 -0.038904
C51   C     C_R   0.986359 0.642441 0.576724 0.002346
C52   C     C_R   0.013640 0.357560 0.423274 0.002349
C53   C     C_R   0.617490 0.061817 0.065094 0.294095
C54   C     C_R   0.382510 0.938183 0.934906 0.294096
C55   C     C_R   0.913070 0.244447 0.469502 0.313423
C56   C     C_R   0.086929 0.755555 0.530497 0.313421
C57   C     C_R   0.574448 0.061108 0.115319 0.256594
C58   C     C_R   0.425552 0.938892 0.884681 0.256594
C59   C     C_R   0.961949 0.221854 0.425200 0.257929
C60   C     C_R   0.038049 0.778148 0.574799 0.257929
H5    H     H_    0.690170 0.059204 0.962359 0.114830
H6    H     H_    0.309830 0.940795 0.037641 0.114829
H7    H     H_    0.826530 0.324186 0.557740 0.125393
H8    H     H_    0.173469 0.675815 0.442259 0.125393
N1    N     N_R   0.011790 0.904454 0.202396 0.054497
O21   O     O_R   0.952876 0.916713 0.222718 -0.249807
O22   O     O_R   0.063690 0.870427 0.249179 -0.384478
N2    N     N_R   0.988210 0.095546 0.797604 0.054494
O23   O     O_R   0.047123 0.083280 0.777282 -0.249813
O24   O     O_R   0.936311 0.129581 0.750822 -0.384478
N3    N     N_R   0.486312 0.468736 0.295546 0.070260
O25   O     O_R   0.538451 0.547516 0.274706 -0.263934
O26   O     O_R   0.437849 0.408802 0.248891 -0.396910
N4    N     N_R   0.513688 0.531264 0.704454 0.070260
O27   O     O_R   0.461549 0.452484 0.725294 -0.263934
O28   O     O_R   0.562150 0.591198 0.751109 -0.396910
N5    N     N_R   0.105189 0.079196 0.903354 0.124470
O29   O     O_R   0.129820 0.243719 0.897542 -0.279022
O30   O     O_R   0.143220 0.936727 0.899113 -0.260551
N6    N     N_R   0.894811 0.920805 0.096645 0.124463
O31   O     O_R   0.856777 0.063274 0.100878 -0.260559
O32   O     O_R   0.870186 0.756275 0.102471 -0.279001
N7    N     N_R   0.395768 0.541200 0.601213 0.122244
O33   O     O_R   0.354209 0.401326 0.595847 -0.273044
O34   O     O_R   0.379583 0.691110 0.630490 -0.235914
N8    N     N_R   0.604232 0.458800 0.398787 0.122244
O35   O     O_R   0.645791 0.598674 0.404153 -0.273044
O36   O     O_R   0.620416 0.308890 0.369510 -0.235913
C61   C     C_3   0.512532 0.006770 0.774437 -0.177341
C62   C     C_3   0.555708 0.063688 0.719251 -0.246351
C63   C     C_3   0.513308 0.065539 0.647471 -0.347454
H9    H     H_    0.495298 0.924587 0.632606 0.160837
H10   H     H_    0.468600 0.155798 0.646072 0.203403
H11   H     H_    0.544790 0.116505 0.609115 0.117238
H12   H     H_    0.577124 0.202792 0.730832 0.182714
H13   H     H_    0.596423 0.963258 0.716706 0.172830
H14   H     H_    0.492478 0.868598 0.759450 0.223834
H15   H     H_    0.470389 0.106721 0.768991 0.200919
C64   C     C_3   0.487468 0.993230 0.225563 -0.177341
C65   C     C_3   0.444292 0.936312 0.280749 -0.246351
C66   C     C_3   0.486692 0.934461 0.352529 -0.347454
H16   H     H_    0.531400 0.844202 0.353928 0.203404
H17   H     H_    0.504702 0.075413 0.367394 0.160837
H18   H     H_    0.455209 0.883494 0.390885 0.117238
H19   H     H_    0.403577 0.036742 0.283293 0.172830
H20   H     H_    0.422876 0.797208 0.269168 0.182714
H21   H     H_    0.529611 0.893279 0.231009 0.200919
H22   H     H_    0.507522 0.131402 0.240550 0.223834
C67   C     C_3   0.970089 0.701039 0.703128 -0.208011
C68   C     C_3   0.983276 0.540151 0.754245 -0.250989
C69   C     C_3   0.014352 0.604018 0.826054 -0.296782
H23   H     H_    0.062442 0.680519 0.824123 0.218166
H24   H     H_    0.978033 0.692383 0.847979 0.104677
H25   H     H_    0.025246 0.482905 0.860447 0.167270
H26   H     H_    0.935164 0.468691 0.759436 0.168649
H27   H     H_    0.018345 0.441618 0.735077 0.233193
H28   H     H_    0.019015 0.774252 0.706693 0.207504
H29   H     H_    0.932820 0.795761 0.720031 0.192945
C70   C     C_3   0.029911 0.298959 0.296871 -0.208015
C71   C     C_3   0.016722 0.459846 0.245753 -0.250967
C72   C     C_3   0.985662 0.395970 0.173941 -0.296830
H30   H     H_    0.021993 0.307632 0.152022 0.104682
H31   H     H_    0.937577 0.319441 0.175863 0.218156
H32   H     H_    0.974764 0.517079 0.139548 0.167272
H33   H     H_    0.981644 0.558360 0.264916 0.233189
H34   H     H_    0.064832 0.531327 0.240571 0.168659
H35   H     H_    0.067181 0.204241 0.279969 0.192946
H36   H     H_    0.980987 0.225742 0.293306 0.207508
N9    N     N_R   0.688488 0.095741 0.086240 0.122308
O37   O     O_R   0.725818 0.970265 0.120393 -0.181787
O38   O     O_R   0.714881 0.255036 0.074747 -0.268840
N10   N     N_R   0.311511 0.904260 0.913759 0.122308
O39   O     O_R   0.285118 0.744965 0.925253 -0.268843
O40   O     O_R   0.274181 0.029738 0.879608 -0.181789
N11   N     N_R   0.859033 0.112458 0.468387 0.118802
O41   O     O_R   0.797695 0.155369 0.440736 -0.250859
O42   O     O_R   0.871369 0.947968 0.493243 -0.294459
N12   N     N_R   0.140966 0.887544 0.531612 0.118801
O43   O     O_R   0.128628 0.052038 0.506757 -0.294458
O44   O     O_R   0.202304 0.844633 0.559261 -0.250863
N13   N     N_R   0.603661 0.126496 0.182039 0.085832
O45   O     O_R   0.644083 0.021057 0.223071 -0.216143
O46   O     O_R   0.604681 0.302454 0.193495 -0.220318
N14   N     N_R   0.396338 0.873506 0.817961 0.085832
O47   O     O_R   0.395319 0.697548 0.806504 -0.220318
O48   O     O_R   0.355916 0.978946 0.776929 -0.216144
N15   N     N_R   0.963487 0.050155 0.389292 0.095879
O49   O     O_R   0.908038 0.977875 0.356405 -0.210221
O50   O     O_R   0.020655 0.965496 0.389109 -0.326362
N16   N     N_R   0.036512 0.949847 0.610707 0.095880
O51   O     O_R   0.979344 0.034505 0.610890 -0.326362
O52   O     O_R   0.091961 0.022125 0.643595 -0.210223

loop_
_geom_bond_atom_site_label_1
_geom_bond_atom_site_label_2
_geom_bond_distance
_ccdc_geom_bond_type
O17   V3    1.780507 S    
C24   H3    1.082229 S    
C55   C59   1.411558 A    
C30   C34   1.431692 A    
N9    O37   1.300282 A    
O19   V1    1.774465 S    
C18   N1    1.454604 S    
O13   V1    2.000769 S    
C45   C46   1.433949 A    
O12   C8    1.338614 A    
O1    C5    1.334586 A    
O3    C7    1.337877 A    
C70   C71   1.535315 S    
C44   C48   1.413173 A    
O15   V3    1.992752 S    
C65   C66   1.529458 S    
N16   O51   1.300894 A    
C38   H6    1.084220 S    
C14   C25   1.416619 A    
C37   H5    1.084218 S    
C6    C11   1.484201 S    
N5    O30   1.300003 A    
N1    O21   1.300175 A    
C13   C17   1.427529 A    
C58   N14   1.432330 S    
C9    C18   1.424285 A    
C36   C40   1.397056 A    
C67   H28   1.100421 S    
N11   O42   1.300946 A    
C64   H21   1.108620 S    
C14   C18   1.427527 A    
C52   C59   1.425371 A    
C68   H26   1.104987 S    
C72   H31   1.109907 S    
O4    C8    1.337877 A    
C20   N3    1.449958 S    
N16   O52   1.301429 A    
C17   N2    1.454604 S    
C31   C67   1.529392 S    
O1    V3    1.977247 S    
C4    C34   1.479495 S    
N6    O31   1.300020 A    
C12   C23   1.401942 A    
O2    V4    1.977249 S    
N13   O45   1.301598 A    
O3    V1    1.974844 S    
C42   C46   1.408322 A    
C62   C63   1.529458 S    
C1    O15   1.332921 A    
C16   N8    1.434842 S    
N3    O25   1.300567 A    
C2    O16   1.332921 A    
N2    O24   1.300055 A    
O2    C6    1.334585 A    
C41   C45   1.408320 A    
O14   V2    2.000769 S    
C32   C70   1.529390 S    
C70   H35   1.105908 S    
C61   H15   1.108621 S    
C16   C20   1.423697 A    
C43   C55   1.410640 A    
C40   C44   1.406582 A    
C66   H18   1.110434 S    
O11   C7    1.338615 A    
C15   C28   1.420344 A    
C67   C68   1.535317 S    
C30   C64   1.542942 S    
N1    O22   1.300054 A    
N12   O44   1.300884 A    
C9    C22   1.401815 A    
N13   O46   1.300333 A    
C10   C17   1.424286 A    
C71   H34   1.104980 S    
O10   V2    1.988132 S    
C11   C24   1.401944 A    
C51   C60   1.425371 A    
N14   O48   1.301599 A    
N8    O35   1.301218 A    
O5    V1    2.017259 S    
C63   H10   1.108749 S    
C56   N12   1.434648 S    
C69   H23   1.109919 S    
C35   C39   1.397055 A    
O7    V3    2.002851 S    
C34   C38   1.388441 A    
C27   C28   1.413737 A    
O8    V4    2.002850 S    
C29   C49   1.455174 A    
C67   H29   1.105909 S    
C53   N9    1.433542 S    
C64   H22   1.103412 S    
N15   O50   1.300894 A    
C72   H32   1.109534 S    
C31   C51   1.434373 A    
C5    C12   1.484200 S    
O18   V4    1.780507 S    
C15   C19   1.423697 A    
C13   N5    1.430000 S    
C54   C58   1.400940 A    
O11   V3    1.993202 S    
C57   N13   1.432330 S    
N10   O40   1.300280 A    
O7    C3    1.335724 A    
C47   C48   1.420293 A    
O6    C2    1.336392 A    
O5    C1    1.336393 A    
C11   C20   1.418245 A    
C65   H20   1.106217 S    
C54   N10   1.433544 S    
C65   H19   1.103839 S    
N8    O36   1.301051 A    
N15   O49   1.301428 A    
C21   C25   1.413132 A    
O8    C4    1.335723 A    
C7    C10   1.487626 S    
N2    O23   1.300179 A    
C39   H7    1.082750 S    
O9    C5    1.339168 A    
N7    O34   1.301050 A    
C10   C21   1.401812 A    
C62   H13   1.103839 S    
C71   C72   1.524473 S    
N4    O28   1.300842 A    
C70   H36   1.100420 S    
C44   C56   1.410640 A    
C50   C57   1.434151 A    
O6    V2    2.017258 S    
C21   H2    1.083274 S    
N12   O43   1.300960 A    
C71   H33   1.111513 S    
C64   C65   1.534510 S    
N14   O47   1.300334 A    
C29   C61   1.542942 S    
C66   H16   1.108750 S    
O16   V4    1.992752 S    
C63   H11   1.110433 S    
O9    V1    1.988134 S    
C55   N11   1.434646 S    
C32   C52   1.434374 A    
N7    O33   1.301219 A    
N3    O26   1.300841 A    
C1    C35   1.489558 S    
C2    C36   1.489559 S    
C48   C52   1.424063 A    
C3    C33   1.479494 S    
C3    O13   1.331026 A    
C49   C58   1.434152 A    
C23   C27   1.413387 A    
C63   H9    1.109400 S    
C29   C33   1.431693 A    
O12   V4    1.993202 S    
C16   C27   1.420344 A    
C59   N15   1.440402 S    
N5    O29   1.300599 A    
C22   C26   1.413132 A    
C31   C35   1.419202 A    
C8    C9    1.487627 S    
C32   C36   1.419204 A    
N10   O39   1.301019 A    
O10   C6    1.339167 A    
O20   V2    1.774463 S    
C19   N4    1.449958 S    
C68   H27   1.111518 S    
C72   H30   1.108190 S    
C43   C47   1.413171 A    
C13   C26   1.416618 A    
C69   H24   1.108202 S    
C38   C42   1.398588 A    
C56   C60   1.411556 A    
C61   H14   1.103412 S    
C69   H25   1.109541 S    
C37   C41   1.398590 A    
C22   H1    1.083273 S    
C15   N7    1.434842 S    
C40   H8    1.082750 S    
N6    O32   1.300641 A    
C39   C43   1.406584 A    
C62   H12   1.106218 S    
C14   N6    1.429998 S    
N4    O27   1.300566 A    
C42   C54   1.402986 A    
C53   C57   1.400939 A    
N11   O41   1.300877 A    
C41   C53   1.402988 A    
C68   C69   1.524475 S    
C30   C50   1.455175 A    
C33   C37   1.388440 A    
C24   C28   1.413386 A    
N9    O38   1.301020 A    
C25   C26   1.407732 A    
C46   C50   1.436490 A    
C4    O14   1.331026 A    
C45   C49   1.436490 A    
C12   C19   1.418245 A    
C61   C62   1.534511 S    
C47   C51   1.424063 A    
C60   N16   1.440403 S    
O4    V2    1.974844 S    
C23   H4    1.082230 S    
C66   H17   1.109400 S    
