data_mof_unit_62343.cif
_audit_creation_date              2012-12-10T18:39:30-0500
_audit_creation_method            fapswitch 2.2
_symmetry_space_group_name_H-M    P1
_symmetry_Int_Tables_number       1
_space_group_crystal_system       triclinic
_cell_length_a                    15.849377
_cell_length_b                    11.571214
_cell_length_c                    10.777008
_cell_angle_alpha                 89.999207
_cell_angle_beta                  89.83511
_cell_angle_gamma                 90.000033
_cell_volume                      1976.45771879

loop_
_atom_site_label
_atom_site_type_symbol
_atom_type_description
_atom_site_fract_x
_atom_site_fract_y
_atom_site_fract_z
_atom_type_partial_charge
C1    C     C_R   0.500000 0.281162 0.500000 0.902600
C2    C     C_R   0.338018 0.500005 0.500192 0.896786
C3    C     C_R   0.661982 0.500006 0.499807 0.896795
C4    C     C_1   0.500001 0.059153 0.500001 0.026405
C5    C     C_1   0.500000 0.161045 0.500001 -0.157050
C6    C     C_1   0.500000 0.500011 0.069756 0.086123
C7    C     C_1   0.500000 0.500011 0.930244 0.085905
C8    C     C_R   0.500001 0.718838 0.499999 0.906771
C9    C     C_3   0.048886 0.431028 0.621231 -0.181704
C10   C     C_3   0.051790 0.442350 0.372667 -0.187132
C11   C     C_3   0.948192 0.450899 0.631434 -0.188976
C12   C     C_1   0.750042 0.500571 0.499233 -0.069213
C13   C     C_3   0.951091 0.423220 0.384368 -0.182152
C14   C     C_1   0.500002 0.940846 0.499999 0.027004
C15   C     C_1   0.500002 0.838954 0.499999 -0.155423
C16   C     C_1   0.074691 0.691148 0.622371 0.286838
C17   C     C_1   0.093959 0.708911 0.413661 0.183172
C18   C     C_1   0.906108 0.714123 0.570248 0.182654
C19   C     C_1   0.925377 0.682611 0.363411 0.287566
C20   C     C_1   0.904844 0.339989 0.664231 0.246438
C21   C     C_1   0.929969 0.299625 0.408285 0.172451
C22   C     C_1   0.069977 0.306165 0.606772 0.173841
C23   C     C_1   0.249958 0.500596 0.500758 -0.068988
C24   C     C_1   0.095110 0.329547 0.348405 0.247170
C25   C     C_2   0.082911 0.513334 0.258778 0.928144
C26   C     C_2   0.094052 0.453654 0.745036 0.989462
C27   C     C_2   0.905916 0.437649 0.259172 0.990745
C28   C     C_2   0.917090 0.529232 0.739613 0.931934
C29   C     C_3   0.083367 0.501831 0.500860 -0.019648
C30   C     C_3   0.916633 0.501791 0.499045 -0.019421
C31   C     C_3   0.949964 0.632543 0.484790 -0.151143
C32   C     C_3   0.050077 0.633199 0.505121 -0.151025
C33   C     C_1   0.824765 0.501185 0.498644 0.030279
C34   C     C_1   0.175236 0.501238 0.501313 0.030698
H1    H     H_    0.058924 0.613999 0.109584 0.369864
H2    H     H_    0.099417 0.416770 0.928404 0.374231
H3    H     H_    0.900514 0.388803 0.079082 0.374795
H4    H     H_    0.941108 0.639614 0.880629 0.370140
N1    N     N_1   0.500000 0.500010 0.180630 -0.067606
N2    N     N_1   0.128892 0.242843 0.327924 -0.141987
N3    N     N_1   0.500000 0.500010 0.819370 -0.067663
N4    N     N_1   0.094518 0.739551 0.711760 -0.097881
N5    N     N_1   0.128149 0.768607 0.343423 -0.136258
N6    N     N_1   0.871937 0.778324 0.635756 -0.137103
N7    N     N_1   0.905580 0.724991 0.270552 -0.098307
N8    N     N_1   0.871041 0.254864 0.691272 -0.141692
N9    N     N_1   0.913524 0.203139 0.423777 -0.144381
N10   N     N_1   0.086398 0.208896 0.598656 -0.143322
O1    O     O_R   0.500000 0.334450 0.602530 -0.608854
O2    O     O_R   0.028395 0.572387 0.179305 -0.783956
O3    O     O_2   0.157354 0.513609 0.751862 -0.613708
O4    O     O_R   0.064888 0.397358 0.852125 -0.759385
O5    O     O_2   0.842638 0.497036 0.247814 -0.612807
O6    O     O_R   0.935041 0.374418 0.156633 -0.758750
O7    O     O_2   0.841187 0.536390 0.760777 -0.607449
O8    O     O_R   0.971628 0.593426 0.814319 -0.785258
O9    O     O_R   0.500000 0.334450 0.397470 -0.608418
O10   O     O_R   0.377140 0.500000 0.602580 -0.598980
O11   O     O_R   0.377140 0.500000 0.397420 -0.595467
O12   O     O_R   0.622860 0.500000 0.602580 -0.595784
O13   O     O_R   0.622860 0.500000 0.397420 -0.598749
O14   O     O_R   0.500000 0.665550 0.602530 -0.605869
O15   O     O_R   0.500000 0.665550 0.397470 -0.606625
O16   O     O_2   0.158819 0.519080 0.237148 -0.609695
Zn1   Zn    Zn3+2 0.500000 0.500000 0.636920 1.029472
Zn2   Zn    Zn3+2 0.500000 0.500000 0.363080 1.029546

loop_
_geom_bond_atom_site_label_1
_geom_bond_atom_site_label_2
_ccdc_geom_bond_type
C9    C26   S    
C22   N10   T    
C27   O5    D    
C6    C7    S    
C18   C31   S    
C18   N6    T    
C29   C32   S    
O10   Zn1   S    
C31   C32   S    
H2    O4    S    
C9    C29   S    
O9    Zn2   S    
C23   C34   T    
C19   C31   S    
C3    O12   A    
H1    O2    S    
C17   N5    T    
C28   O8    S    
O15   Zn2   S    
C13   C21   S    
C26   O3    D    
C9    C11   S    
C10   C29   S    
C30   C31   S    
C2    O11   A    
O1    Zn1   S    
C11   C28   S    
C1    C5    S    
H3    O6    S    
O13   Zn2   S    
C10   C25   S    
C7    N3    T    
C24   N2    T    
C28   O7    D    
O12   Zn1   S    
C8    C15   S    
C26   O4    S    
C3    O13   A    
O11   Zn2   S    
C4    C14   S    
C2    O10   A    
C9    C22   S    
N1    Zn2   S    
C11   C20   S    
C27   O6    S    
C16   C32   S    
C8    O15   A    
C16   N4    T    
C13   C30   S    
H4    O8    S    
C2    C23   S    
O14   Zn1   S    
C17   C32   S    
C25   O2    S    
C13   C27   S    
N3    Zn1   S    
C3    C12   S    
C30   C33   S    
C10   C24   S    
C12   C33   T    
C6    N1    T    
C1    O1    A    
C29   C34   S    
C10   C13   S    
C20   N8    T    
C19   N7    T    
C14   C15   T    
C11   C30   S    
C8    O14   A    
C4    C5    T    
C21   N9    T    
C25   O16   D    
C1    O9    A    
