data_mof_unit_17521.cif
_audit_creation_date              2012-12-10T18:52:10-0500
_audit_creation_method            fapswitch 2.2
_symmetry_space_group_name_H-M    P1
_symmetry_Int_Tables_number       1
_space_group_crystal_system       triclinic
_cell_length_a                    15.730459
_cell_length_b                    10.714373
_cell_length_c                    9.8424
_cell_angle_alpha                 90.11966
_cell_angle_beta                  91.292898
_cell_angle_gamma                 90.239382
_cell_volume                      1658.41708229

loop_
_atom_site_label
_atom_site_type_symbol
_atom_type_description
_atom_site_fract_x
_atom_site_fract_y
_atom_site_fract_z
_atom_type_partial_charge
C1    C     C_R   0.499979 0.259879 0.499868 0.865902
C2    C     C_R   0.499985 0.740119 0.500133 0.863821
C3    C     C_R   0.482834 0.935709 0.378544 -0.196102
C4    C     C_R   0.517024 0.064284 0.621479 -0.195649
C5    C     C_R   0.499899 0.872560 0.500148 -0.010913
C6    C     C_R   0.499990 0.127435 0.499866 -0.010687
C7    C     C_R   0.551289 0.580081 0.073919 -0.062293
C8    C     C_R   0.448621 0.420037 0.926074 -0.073613
C9    C     C_R   0.551280 0.580033 0.930035 -0.071352
C10   C     C_R   0.448646 0.420063 0.069959 -0.073510
C11   C     C_R   0.337879 0.499469 0.498393 0.901823
C12   C     C_R   0.662145 0.500449 0.501614 0.899619
C13   C     C_3   0.974781 0.405939 0.581207 -0.431896
C14   C     C_3   0.025348 0.600688 0.421309 -0.545192
C15   C     C_3   0.024098 0.394772 0.447867 0.420511
C16   C     C_3   0.975118 0.610944 0.555313 0.417640
C17   C     C_1   0.249048 0.499207 0.494108 -0.186366
C18   C     C_1   0.751026 0.501889 0.506025 -0.176481
C19   C     C_3   0.033680 0.515226 0.625372 0.467770
C20   C     C_3   0.966732 0.491062 0.376810 0.425252
C21   C     C_3   0.083089 0.502111 0.493378 -0.064770
C22   C     C_3   0.917107 0.503075 0.509018 -0.039364
C23   C     C_1   0.173820 0.499783 0.491357 0.057837
C24   C     C_1   0.826286 0.502924 0.509464 0.087411
C25   C     C_R   0.482878 0.063558 0.378406 -0.190234
C26   C     C_R   0.516979 0.936437 0.621617 -0.192904
H1    H     H_    0.952625 0.329166 0.647396 0.173469
H2    H     H_    0.048346 0.677155 0.355465 0.166938
H3    H     H_    0.469027 0.111974 0.283963 0.154261
H4    H     H_    0.530828 0.888024 0.716064 0.154252
H5    H     H_    0.468981 0.886717 0.284134 0.157212
H6    H     H_    0.530875 0.113272 0.715892 0.158314
H7    H     H_    0.592295 0.644119 0.130007 0.133653
H8    H     H_    0.407541 0.356103 0.869981 0.133232
H9    H     H_    0.592279 0.644014 0.877094 0.128920
H10   H     H_    0.407600 0.356145 0.122894 0.128630
N1    N     N_R   0.499980 0.499970 0.857200 -0.081379
N2    N     N_R   0.500020 0.500030 0.142800 -0.081646
O1    O     O_R   0.499990 0.316750 0.614620 -0.628856
O2    O     O_R   0.500010 0.683250 0.385380 -0.630325
O3    O     O_R   0.500000 0.316780 0.385290 -0.627239
O4    O     O_R   0.500000 0.683220 0.614710 -0.628413
O5    O     O_R   0.376780 0.499970 0.614640 -0.612837
O6    O     O_R   0.623220 0.500030 0.385360 -0.604474
O7    O     O_R   0.376780 0.500000 0.385310 -0.614231
O8    O     O_R   0.623220 0.500000 0.614690 -0.614094
Zn1   Zn    Zn3+2 0.500000 0.499980 0.653120 0.951617
Zn2   Zn    Zn3+2 0.500000 0.500020 0.346880 0.955765
O9    O     O_3   0.056610 0.284362 0.390856 -0.604719
C27   C     C_3   0.989352 0.199863 0.363571 0.118285
H11   H     H_    0.943514 0.238719 0.287347 0.176454
H12   H     H_    0.954994 0.176460 0.457742 0.136277
C28   C     C_3   0.025335 0.079936 0.305834 -0.855720
H13   H     H_    0.069995 0.036736 0.380862 0.254715
H14   H     H_    0.972831 0.013174 0.282371 0.203332
H15   H     H_    0.059664 0.100159 0.210930 0.262707
O10   O     O_3   0.941507 0.716400 0.621286 -0.604935
C29   C     C_3   0.979383 0.826300 0.572168 0.092291
H16   H     H_    0.956447 0.844836 0.466418 0.162609
H17   H     H_    0.050058 0.820069 0.574628 0.118896
C30   C     C_3   0.954460 0.935423 0.661691 -0.834226
H18   H     H_    0.973364 0.916540 0.769076 0.252061
H19   H     H_    0.987281 0.021547 0.628356 0.212949
H20   H     H_    0.884638 0.949985 0.654709 0.258824
O11   O     O_3   0.922808 0.476400 0.251312 -0.614068
C31   C     C_3   0.980895 0.477146 0.144467 0.100072
H21   H     H_    0.036344 0.415249 0.165460 0.171129
H22   H     H_    0.003965 0.573837 0.126411 0.152942
C32   C     C_3   0.935627 0.429640 0.016237 -0.781455
H23   H     H_    0.884845 0.495725 0.984128 0.262210
H24   H     H_    0.981602 0.420002 0.933426 0.259951
H25   H     H_    0.906841 0.336633 0.035228 0.242399
O12   O     O_3   0.072338 0.518544 0.756232 -0.614978
C33   C     C_3   0.109629 0.636254 0.782512 0.119492
H26   H     H_    0.059917 0.703164 0.813652 0.181971
H27   H     H_    0.143516 0.673990 0.693272 0.125149
C34   C     C_3   0.174246 0.623915 0.898949 -0.834145
H28   H     H_    0.225502 0.558660 0.869987 0.267521
H29   H     H_    0.202891 0.716529 0.922748 0.207897
H30   H     H_    0.142860 0.587785 0.990925 0.245083

loop_
_geom_bond_atom_site_label_1
_geom_bond_atom_site_label_2
_ccdc_geom_bond_type
C31   H22   S    
C30   H20   S    
O12   C33   S    
C28   H13   S    
C17   C23   T    
C33   H27   S    
C18   C24   T    
C14   C21   S    
C19   C21   S    
C28   H15   S    
C31   C32   S    
C29   H17   S    
O2    Zn2   S    
C30   H19   S    
O3    Zn2   S    
C33   C34   S    
C27   H12   S    
C11   O5    A    
N1    Zn1   S    
N2    Zn2   S    
C16   O10   S    
C29   C30   S    
C34   H29   S    
C31   H21   S    
C7    H7    S    
C32   H23   S    
C28   H14   S    
C25   H3    S    
C15   C20   S    
C27   C28   S    
C32   H24   S    
C33   H26   S    
C13   C19   S    
C1    C6    S    
C14   C20   S    
C20   O11   S    
C3    C25   A    
C4    C6    A    
O7    Zn2   S    
C29   H16   S    
C34   H28   S    
C32   H25   S    
C19   O12   S    
C9    N1    A    
C27   H11   S    
C8    H8    S    
C3    H5    S    
C4    H6    S    
C12   O8    A    
C20   C22   S    
C26   H4    S    
C13   C15   S    
O9    C27   S    
C22   C24   S    
C11   O7    A    
C2    C5    S    
C8    N1    A    
O1    Zn1   S    
C34   H30   S    
C1    O3    A    
C7    C9    A    
O8    Zn1   S    
C11   C17   S    
C16   C22   S    
C3    C5    A    
C4    C26   A    
C10   N2    A    
C21   C23   S    
C12   O6    A    
O10   C29   S    
C2    O4    A    
C16   C19   S    
C7    N2    A    
C13   C22   S    
C14   C16   S    
O4    Zn1   S    
C15   O9    S    
C30   H18   S    
C1    O1    A    
C5    C26   A    
C6    C25   A    
C2    O2    A    
C15   C21   S    
C8    C10   A    
O11   C31   S    
C12   C18   S    
C9    H9    S    
C13   H1    S    
C10   H10   S    
C14   H2    S    
O5    Zn1   S    
O6    Zn2   S    
