data_mof_unit_9303.cif
_audit_creation_date              2012-12-10T17:26:18-0500
_audit_creation_method            fapswitch 2.2
_symmetry_space_group_name_H-M    P1
_symmetry_Int_Tables_number       1
_space_group_crystal_system       triclinic
_cell_length_a                    10.102219
_cell_length_b                    10.793146
_cell_length_c                    27.623562
_cell_angle_alpha                 90.125322
_cell_angle_beta                  81.408275
_cell_angle_gamma                 95.406063
_cell_volume                      2964.66461945

loop_
_atom_site_label
_atom_site_type_symbol
_atom_type_description
_atom_site_fract_x
_atom_site_fract_y
_atom_site_fract_z
_atom_type_partial_charge
C1    C     C_R   0.556224 0.732827 0.495230 0.950830
C2    C     C_R   0.592520 0.595303 0.122415 -0.045530
C3    C     C_R   0.503405 0.499813 0.646850 -0.067528
C4    C     C_R   0.499354 0.497055 0.353062 -0.064707
C5    C     C_R   0.617956 0.590709 0.019560 -0.018063
C6    C     C_R   0.534861 0.369591 0.972575 -0.023483
C7    C     C_R   0.510374 0.375774 0.024324 0.081126
C8    C     C_R   0.599362 0.595590 0.969852 0.070212
C9    C     C_R   0.556856 0.485216 0.047582 0.070403
C10   C     C_R   0.562727 0.483698 0.946119 0.068113
C11   C     C_R   0.687547 0.688607 0.043178 -0.068840
C12   C     C_R   0.443692 0.267158 0.501733 0.951128
C13   C     C_R   0.525165 0.256389 0.946069 -0.053653
C14   C     C_R   0.669064 0.691894 0.094390 -0.179382
C15   C     C_R   0.514593 0.261109 0.896166 -0.177251
C16   C     C_R   0.500755 0.500116 0.594066 0.885799
C17   C     C_R   0.499402 0.499390 0.405947 0.876109
C18   C     C_R   0.604832 0.709518 0.944398 -0.131438
C19   C     C_R   0.431329 0.280754 0.053309 -0.147904
C20   C     C_2   0.588067 0.864877 0.487533 -0.369366
C21   C     C_2   0.411519 0.135019 0.497756 -0.371967
C22   C     C_2   0.487525 0.933585 0.483173 -0.142255
C23   C     C_R   0.549839 0.486652 0.896052 -0.052766
C24   C     C_2   0.511499 0.066136 0.481755 -0.145727
C25   C     C_2   0.927094 0.510086 0.504022 -0.127797
C26   C     C_2   0.072879 0.489824 0.496015 -0.130563
C27   C     C_R   0.546067 0.602250 0.821408 0.504678
C28   C     C_R   0.451196 0.397070 0.178374 0.504564
C29   C     C_R   0.508575 0.380364 0.821884 0.505844
C30   C     C_R   0.574519 0.597802 0.173598 0.507426
C31   C     C_R   0.629623 0.492980 0.714273 -0.131511
C32   C     C_R   0.395607 0.539075 0.282243 -0.124259
C33   C     C_R   0.626111 0.495001 0.664371 -0.212527
C34   C     C_R   0.539095 0.490214 0.099106 -0.053689
C35   C     C_R   0.392375 0.539049 0.332728 -0.223184
C36   C     C_R   0.384079 0.503158 0.679998 -0.238176
C37   C     C_R   0.608238 0.452983 0.322499 -0.235424
C38   C     C_R   0.386472 0.500773 0.730520 0.150453
C39   C     C_R   0.612133 0.451721 0.271829 0.143571
C40   C     C_R   0.511021 0.495381 0.747325 0.303823
C41   C     C_R   0.505018 0.496493 0.251820 0.303016
C42   C     C_3   0.255873 0.502133 0.765316 -0.424130
C43   C     C_3   0.204088 0.631309 0.766562 -0.351284
C44   C     C_3   0.072322 0.633029 0.801652 -0.809838
C45   C     C_R   0.562035 0.601427 0.870796 -0.034609
C46   C     C_3   0.730962 0.402291 0.240253 -0.432214
C47   C     C_3   0.721193 0.259835 0.243183 -0.351931
C48   C     C_3   0.838680 0.208951 0.210432 -0.797030
C49   C     C_2   0.795040 0.777235 0.016239 0.891603
C50   C     C_2   0.544450 0.133762 0.967092 0.886076
C51   C     C_R   0.466513 0.390608 0.127325 -0.021076
C52   C     C_R   0.587528 0.712323 0.895501 -0.107890
C53   C     C_R   0.410924 0.287474 0.104050 -0.128820
C54   C     C_R   0.522509 0.375130 0.871444 -0.044421
H1    H     H_    0.288782 0.506169 0.666695 0.161766
H2    H     H_    0.350915 0.211682 0.124931 0.192649
H3    H     H_    0.307350 0.573246 0.355722 0.166445
H4    H     H_    0.719639 0.492831 0.639567 0.164303
H5    H     H_    0.313408 0.572703 0.266596 0.146027
H6    H     H_    0.724871 0.489218 0.727507 0.137943
H7    H     H_    0.719641 0.767751 0.112425 0.219928
H8    H     H_    0.504262 0.175008 0.876205 0.221129
H9    H     H_    0.616909 0.797877 0.962458 0.165880
H10   H     H_    0.379988 0.202474 0.037161 0.153473
H11   H     H_    0.614537 0.106730 0.471165 0.187322
H12   H     H_    0.690711 0.419123 0.337977 0.161839
H13   H     H_    0.384232 0.892913 0.484591 0.188975
H14   H     H_    0.993703 0.565487 0.789894 0.256467
H15   H     H_    0.087132 0.609063 0.839444 0.273255
H16   H     H_    0.037257 0.727513 0.801782 0.261169
H17   H     H_    0.280256 0.701005 0.778658 0.266166
H18   H     H_    0.186983 0.658422 0.729354 0.223596
H19   H     H_    0.179883 0.431987 0.753355 0.209254
H20   H     H_    0.268182 0.475085 0.803022 0.216194
H21   H     H_    0.838557 0.235509 0.171605 0.270188
H22   H     H_    0.935571 0.245799 0.221857 0.264358
H23   H     H_    0.308793 0.093973 0.508423 0.152766
H24   H     H_    0.829211 0.105827 0.213464 0.264618
H25   H     H_    0.721518 0.229117 0.281548 0.223983
H26   H     H_    0.625653 0.220348 0.231358 0.265245
H27   H     H_    0.737706 0.431409 0.201406 0.212501
H28   H     H_    0.825462 0.442192 0.252775 0.209112
H29   H     H_    0.941499 0.808628 0.958184 0.355711
H30   H     H_    0.632998 0.039053 0.014227 0.365618
H31   H     H_    0.691053 0.906003 0.486231 0.152057
H32   H     H_    0.109336 0.422007 0.469441 0.165612
H33   H     H_    0.890615 0.577829 0.530626 0.162037
H34   H     H_    0.119606 0.614819 0.544964 0.162515
H35   H     H_    0.880405 0.385247 0.455007 0.161109
H36   H     H_    0.593127 0.801863 0.877284 0.206330
N1    N     N_R   0.519728 0.492755 0.798287 -0.360670
N2    N     N_R   0.506988 0.498626 0.200159 -0.357155
N3    N     N_2   0.842700 0.448890 0.480020 -0.194721
N4    N     N_2   0.157300 0.551110 0.519980 -0.196584
O1    O     O_R   0.431060 0.692470 0.504020 -0.610990
O2    O     O_2   0.383162 0.302187 0.206117 -0.571640
O3    O     O_2   0.626209 0.697053 0.196792 -0.554903
O4    O     O_2   0.484048 0.274420 0.797336 -0.548250
O5    O     O_2   0.820286 0.880683 0.032674 -0.621691
O6    O     O_R   0.870999 0.740634 0.972926 -0.786482
O7    O     O_2   0.489736 0.037975 0.952382 -0.642071
O8    O     O_R   0.628601 0.127456 0.002702 -0.768709
O9    O     O_R   0.568940 0.307530 0.495980 -0.610570
O10   O     O_R   0.651120 0.659650 0.491200 -0.610194
O11   O     O_R   0.348880 0.340350 0.508800 -0.610333
O12   O     O_R   0.389980 0.516390 0.577660 -0.613845
O13   O     O_R   0.610020 0.483610 0.422340 -0.617691
O14   O     O_R   0.610040 0.483570 0.564830 -0.616486
O15   O     O_R   0.389960 0.516430 0.435170 -0.619457
O16   O     O_2   0.557346 0.711127 0.796507 -0.560662
Zn1   Zn    Zn3+2 0.353060 0.521910 0.508560 0.945228
Zn2   Zn    Zn3+2 0.646940 0.478090 0.491440 0.945795

loop_
_geom_bond_atom_site_label_1
_geom_bond_atom_site_label_2
_ccdc_geom_bond_type
C26   N4    D    
C25   N3    D    
C43   H18   S    
C23   C45   A    
H30   O8    S    
O13   Zn2   S    
C48   H22   S    
C52   H36   S    
C47   H25   S    
C18   C52   A    
C39   C41   A    
C30   O3    S    
C34   C51   A    
C33   H4    S    
C29   O4    S    
C38   C42   S    
C17   O13   A    
C12   O11   A    
C28   C51   A    
C18   H9    S    
C29   C54   A    
C3    C33   A    
N4    Zn1   S    
C25   H33   S    
C31   C40   A    
C48   H24   S    
C46   H28   S    
C27   O16   S    
C42   H19   S    
C32   C41   A    
C31   C33   A    
C27   N1    A    
C16   O12   A    
C2    C34   A    
C19   C53   A    
O11   Zn1   S    
C4    C35   A    
C20   H31   S    
C48   H21   S    
C47   H26   S    
O12   Zn1   S    
H34   N4    S    
C42   H20   S    
C15   C54   A    
C2    C30   A    
C12   O9    A    
C30   N2    A    
O10   Zn2   S    
C26   H32   S    
C45   C52   A    
C25   C26   S    
C14   H7    S    
C12   C21   S    
C8    C18   A    
O14   Zn2   S    
O9    Zn2   S    
C51   C53   A    
C31   H6    S    
C43   C44   S    
C32   C35   A    
C5    C9    A    
C11   C49   S    
C49   O5    D    
C46   H27   S    
C47   C48   S    
C19   H10   S    
C1    O1    A    
C37   H12   S    
C44   H15   S    
C28   N2    A    
C44   H16   S    
C1    O10   A    
C24   H11   S    
C39   C46   S    
C4    C17   S    
C20   C22   D    
C50   O8    S    
C7    C19   A    
H29   O6    S    
C13   C15   A    
C9    C34   A    
C22   C24   S    
C44   H14   S    
C42   C43   S    
C29   N1    A    
C23   C54   A    
C53   H2    S    
C7    C9    A    
C46   C47   S    
C1    C20   S    
C43   H17   S    
C17   O15   A    
C6    C10   A    
C5    C8    A    
C5    C11   A    
C6    C7    A    
C10   C23   A    
C35   H3    S    
C28   O2    S    
O15   Zn1   S    
C37   C39   A    
C36   H1    S    
O1    Zn1   S    
C49   O6    S    
C38   C40   A    
C27   C45   A    
C3    C36   A    
C36   C38   A    
C11   C14   A    
C15   H8    S    
C40   N1    S    
H35   N3    S    
C2    C14   A    
C22   H13   S    
C16   O14   A    
N3    Zn2   S    
C13   C50   S    
C41   N2    S    
C4    C37   A    
C50   O7    D    
C8    C10   A    
C21   C24   D    
C21   H23   S    
C32   H5    S    
C3    C16   S    
C6    C13   A    
