data_mof_unit_62780.cif
_audit_creation_date              2012-12-10T16:43:22-0500
_audit_creation_method            fapswitch 2.2
_symmetry_space_group_name_H-M    P1
_symmetry_Int_Tables_number       1
_space_group_crystal_system       triclinic
_cell_length_a                    18.453609
_cell_length_b                    18.448209
_cell_length_c                    18.457369
_cell_angle_alpha                 119.735929
_cell_angle_beta                  90.410353
_cell_angle_gamma                 119.771332
_cell_volume                      4460.21665204

loop_
_atom_site_label
_atom_site_type_symbol
_atom_type_description
_atom_site_fract_x
_atom_site_fract_y
_atom_site_fract_z
_atom_type_partial_charge
C1    C     C_R   0.361404 0.999643 0.138470 0.865023
C2    C     C_2   0.808920 0.004385 0.696734 -0.282298
C3    C     C_2   0.723388 0.942387 0.779619 -0.158825
C4    C     C_R   0.638189 0.999734 0.861119 0.845209
C5    C     C_2   0.690984 0.998723 0.803254 -0.284599
C6    C     C_2   0.280968 0.443821 0.720930 -0.154694
C7    C     C_2   0.192247 0.387747 0.696660 -0.290232
C8    C     C_2   0.337160 0.556155 0.779557 -0.152636
C9    C     C_2   0.304542 0.612274 0.803183 -0.293567
C10   C     C_2   0.280975 0.057495 0.337153 -0.152878
C11   C     C_2   0.192234 0.001101 0.304569 -0.292206
C12   C     C_R   0.123016 0.809732 0.580186 -0.150441
C13   C     C_2   0.337138 0.059863 0.280969 -0.147716
C14   C     C_2   0.304511 0.995699 0.192274 -0.289596
C15   C     C_2   0.782162 0.947776 0.221004 -0.274738
C16   C     C_R   0.638172 0.277045 0.138556 0.864244
C17   C     C_2   0.789952 0.984376 0.306320 0.277220
C18   C     C_2   0.718605 0.937698 0.163512 -0.123474
C19   C     C_2   0.704572 0.010363 0.194521 -0.218623
C20   C     C_2   0.776389 0.556272 0.219119 -0.148222
C21   C     C_2   0.808958 0.612252 0.307806 -0.297386
C22   C     C_2   0.722657 0.443932 0.162864 -0.136300
C23   C     C_R   0.185017 0.902156 0.662850 0.100588
C24   C     C_2   0.690984 0.387726 0.195404 -0.288987
C25   C     C_R   0.138405 0.277056 0.638860 0.849597
C26   C     C_R   0.861774 0.722947 0.361625 0.856150
C27   C     C_R   0.861752 0.000389 0.638909 0.861419
C28   C     C_R   0.361413 0.722951 0.861128 0.850672
C29   C     C_R   0.138409 0.000210 0.361435 0.851020
C30   C     C_R   0.858280 0.998019 0.360475 0.791071
C31   C     C_R   0.139929 0.998687 0.638743 0.809534
C32   C     C_R   0.641139 0.001500 0.139513 0.850471
C33   C     C_R   0.359947 0.999360 0.859320 0.859752
C34   C     C_R   0.239953 0.902878 0.717769 0.042425
C35   C     C_R   0.231217 0.810950 0.687770 -0.144239
C36   C     C_R   0.168681 0.720579 0.606598 -0.129179
C37   C     C_R   0.114723 0.719951 0.553038 -0.136156
C38   C     C_R   0.303908 0.996033 0.799714 -0.177999
C39   C     C_R   0.314834 0.087240 0.824504 0.380876
C40   C     C_R   0.261416 0.085902 0.769942 -0.240409
C41   C     C_R   0.195814 0.994598 0.690761 -0.138469
C42   C     C_2   0.777093 0.939920 0.721011 -0.156555
Cl1   Cl    Cl    0.392468 0.204949 0.925970 -0.598229
Cl2   Cl    Cl    0.711834 0.001440 0.354194 -0.591305
H1    H     H_    0.701169 0.044974 0.779508 0.156761
H2    H     H_    0.825168 0.926129 0.192260 0.158896
H3    H     H_    0.273297 0.807843 0.725514 0.135788
H4    H     H_    0.686726 0.872757 0.094459 0.178977
H5    H     H_    0.741496 0.079111 0.261663 0.190278
H6    H     H_    0.790195 0.593690 0.185467 0.182337
H7    H     H_    0.798880 0.578250 0.343789 0.150577
H8    H     H_    0.708072 0.406728 0.091861 0.186710
H9    H     H_    0.701830 0.421566 0.265327 0.151528
H10   H     H_    0.162800 0.650921 0.584685 0.137967
H11   H     H_    0.066966 0.649815 0.489593 0.138618
H12   H     H_    0.314685 0.406496 0.698099 0.180325
H13   H     H_    0.081477 0.805926 0.534971 0.138166
H14   H     H_    0.269659 0.156527 0.790576 0.187350
H15   H     H_    0.791534 0.883323 0.698173 0.179606
H16   H     H_    0.798203 0.063618 0.719904 0.155777
H17   H     H_    0.709459 0.894716 0.803027 0.178056
H18   H     H_    0.156230 0.421686 0.719832 0.153803
H19   H     H_    0.408202 0.593438 0.803010 0.179282
H20   H     H_    0.234584 0.578382 0.779372 0.151628
H21   H     H_    0.314733 0.105279 0.408176 0.181155
H22   H     H_    0.156141 0.954629 0.234616 0.152767
H23   H     H_    0.408196 0.116197 0.314680 0.182282
H24   H     H_    0.234528 0.936783 0.156224 0.152355
O1    O     O_3   0.500000 0.000000 0.000000 -0.500692
O2    O     O_R   0.054120 0.939900 0.325040 -0.645502
O3    O     O_R   0.884120 0.060070 0.444330 -0.597627
O4    O     O_R   0.325020 0.939940 0.054210 -0.638261
O5    O     O_R   0.175860 0.060090 0.615830 -0.634422
O6    O     O_R   0.884120 0.939900 0.324160 -0.664814
O7    O     O_R   0.055710 0.939940 0.615850 -0.644454
O8    O     O_R   0.885720 0.939940 0.614980 -0.641318
O9    O     O_R   0.174930 0.060060 0.445830 -0.641503
O10   O     O_R   0.054120 0.229160 0.614300 -0.642175
O11   O     O_R   0.885050 0.770830 0.325070 -0.637539
O12   O     O_R   0.614240 0.229150 0.054160 -0.622803
O13   O     O_R   0.614240 0.060060 0.885070 -0.644460
O14   O     O_R   0.614900 0.229170 0.174980 -0.647701
O15   O     O_R   0.445840 0.770840 0.885740 -0.641637
O16   O     O_R   0.615830 0.060100 0.175880 -0.631535
O17   O     O_R   0.324090 0.939910 0.884220 -0.650139
O18   O     O_R   0.615830 0.939930 0.055710 -0.650906
O19   O     O_R   0.444240 0.060060 0.884190 -0.595878
O20   O     O_R   0.325020 0.770840 0.885120 -0.648303
O21   O     O_R   0.445840 0.060100 0.175010 -0.636014
O22   O     O_R   0.614900 0.939900 0.885710 -0.645976
O23   O     O_3   0.999960 0.000000 0.500040 -0.496551
O24   O     O_R   0.174930 0.229160 0.614920 -0.641768
O25   O     O_R   0.885720 0.770850 0.445880 -0.647893
O26   O     O_R   0.885050 0.060100 0.614330 -0.630296
Zn1   Zn    Zn3+2 0.542440 0.085830 0.956610 1.010523
Zn2   Zn    Zn3+2 0.543390 0.085850 0.129220 0.992677
Zn3   Zn    Zn3+2 0.543390 0.914160 0.957530 0.961553
Zn4   Zn    Zn3+2 0.370780 0.914160 0.956640 0.982319
Zn5   Zn    Zn3+2 0.957510 0.914170 0.543430 0.972457
Zn6   Zn    Zn3+2 0.956570 0.085840 0.542520 1.010996
Zn7   Zn    Zn3+2 0.956570 0.914150 0.370820 0.972436
Zn8   Zn    Zn3+2 0.129180 0.085840 0.543400 0.970910

loop_
_geom_bond_atom_site_label_1
_geom_bond_atom_site_label_2
_ccdc_geom_bond_type
C15   C18   S    
C21   C26   S    
C3    C42   S    
C9    H20   S    
C35   C36   A    
O1    Zn2   S    
C35   H3    S    
C30   O3    A    
O2    Zn7   S    
O4    Zn4   S    
O8    Zn5   S    
C12   C23   A    
C36   C37   A    
C34   C35   A    
C38   C39   A    
O13   Zn1   S    
C2    H16   S    
C31   O5    A    
C18   C19   D    
O16   Zn2   S    
C12   C37   A    
O18   Zn3   S    
C33   O17   A    
C20   H6    S    
O17   Zn4   S    
C4    O13   A    
C8    C9    D    
O19   Zn1   S    
C28   O20   A    
C2    C27   S    
O23   Zn6   S    
O25   Zn5   S    
O22   Zn3   S    
C11   H22   S    
O24   Zn8   S    
O1    Zn4   S    
C26   O25   A    
C16   C24   S    
C13   C14   D    
C28   O15   A    
C17   C30   S    
O9    Zn8   S    
O23   Zn7   S    
C19   C32   S    
C16   O14   A    
C4    O22   A    
C3    H17   S    
C32   O16   A    
C1    O4    A    
O14   Zn2   S    
C25   O10   A    
C40   H14   S    
C39   C40   A    
C6    C8    S    
C3    C5    D    
C24   H9    S    
C5    H1    S    
C16   O12   A    
C7    H18   S    
C19   H5    S    
C31   O7    A    
O26   Zn6   S    
C23   C34   A    
C32   O18   A    
O7    Zn5   S    
O12   Zn1   S    
O6    Zn7   S    
C12   H13   S    
O5    Zn8   S    
C20   C22   S    
O10   Zn6   S    
C22   C24   D    
O23   Zn8   S    
C27   O8    A    
C21   H7    S    
C22   H8    S    
C29   O2    A    
C13   H23   S    
C10   H21   S    
C15   C17   D    
C40   C41   A    
C25   O24   A    
C1    O21   A    
C31   C41   S    
C34   C38   A    
C33   C38   S    
C6    H12   S    
C4    C5    S    
O1    Zn1   S    
C10   C13   S    
C18   H4    S    
C42   H15   S    
C39   Cl1   S    
C6    C7    D    
O3    Zn6   S    
C26   O11   A    
C7    C25   S    
O21   Zn2   S    
C23   C41   A    
C17   Cl2   S    
C2    C42   D    
C30   O6    A    
C33   O19   A    
C36   H10   S    
C10   C11   D    
C8    H19   S    
C37   H11   S    
C29   O9    A    
C20   C21   D    
C11   C29   S    
O15   Zn3   S    
C14   H24   S    
O11   Zn7   S    
C27   O26   A    
C1    C14   S    
C15   H2    S    
O23   Zn5   S    
O20   Zn4   S    
C9    C28   S    
O1    Zn3   S    
