data_mof_unit_40741.cif
_audit_creation_date              2012-12-10T17:47:14-0500
_audit_creation_method            fapswitch 2.2
_symmetry_space_group_name_H-M    P1
_symmetry_Int_Tables_number       1
_space_group_crystal_system       triclinic
_cell_length_a                    11.70436
_cell_length_b                    14.730212
_cell_length_c                    14.589844
_cell_angle_alpha                 65.347289
_cell_angle_beta                  103.191633
_cell_angle_gamma                 102.671365
_cell_volume                      2203.78071081

loop_
_atom_site_label
_atom_site_type_symbol
_atom_type_description
_atom_site_fract_x
_atom_site_fract_y
_atom_site_fract_z
_atom_type_partial_charge
C1    C     C_R   0.481895 0.119460 0.311504 0.827020
C2    C     C_R   0.516396 0.880707 0.688271 0.807781
C3    C     C_R   0.478235 0.324640 0.998595 0.137470
C4    C     C_R   0.532773 0.678554 0.002322 0.103493
C5    C     C_R   0.510350 0.467418 0.052743 0.096205
C6    C     C_R   0.507225 0.535787 0.949067 0.098186
C7    C     C_R   0.485002 0.495886 0.872735 -0.262324
C8    C     C_R   0.531905 0.507639 0.128806 -0.243244
C9    C     C_R   0.473411 0.393135 0.897234 -0.208254
C10   C     C_R   0.540038 0.610179 0.103925 -0.229694
C11   C     C_R   0.703781 0.288927 0.662592 -0.373903
C12   C     C_R   0.299422 0.713044 0.334228 -0.363275
C13   C     C_R   0.667179 0.203230 0.638302 0.702728
C14   C     C_R   0.330545 0.795375 0.363825 0.696395
C15   C     C_R   0.515047 0.284855 0.509927 -0.060187
C16   C     C_R   0.485998 0.715730 0.489009 -0.060896
C17   C     C_R   0.544950 0.372009 0.534502 -0.053762
C18   C     C_R   0.457261 0.629328 0.463173 -0.055024
C19   C     C_R   0.642608 0.372660 0.612276 -0.003489
C20   C     C_R   0.360772 0.629394 0.384255 -0.006038
C21   C     C_R   0.482907 0.458220 0.484204 0.018185
C22   C     C_R   0.520153 0.543624 0.512590 0.018316
C23   C     C_R   0.284139 0.000306 0.499978 0.811810
C24   C     C_R   0.715858 0.999694 0.499992 0.822420
C25   C     C_R   0.619528 0.540931 0.588952 -0.298715
C26   C     C_R   0.384896 0.461745 0.406466 -0.294313
C27   C     C_R   0.678734 0.456714 0.639391 0.518555
C28   C     C_R   0.326479 0.546413 0.355355 0.516682
C29   C     C_1   0.162573 0.000672 0.500030 -0.183073
C30   C     C_1   0.837399 0.999311 0.499817 -0.163052
C31   C     C_1   0.059973 0.000308 0.499933 -0.001223
C32   C     C_1   0.939967 0.999628 0.499822 0.007119
C33   C     C_R   0.476802 0.186674 0.202176 -0.078972
C34   C     C_R   0.521645 0.814193 0.797491 -0.110842
C35   C     C_R   0.466828 0.220018 0.022248 0.093275
C36   C     C_R   0.536032 0.783038 0.977308 0.125538
C37   C     C_R   0.467721 0.150800 0.124588 0.108772
C38   C     C_R   0.515290 0.848694 0.873117 0.123392
C39   C     C_R   0.486199 0.290277 0.176924 -0.313114
C40   C     C_R   0.528494 0.712599 0.824774 -0.301057
C41   C     C_R   0.492472 0.361213 0.076939 0.043578
C42   C     C_R   0.522111 0.641810 0.924609 0.054820
Cu1   Cu    Cu3+1 0.469550 0.918260 0.475690 0.988374
Cu2   Cu    Cu3+1 0.530450 0.081740 0.524310 0.988568
H1    H     H_    0.458699 0.367716 0.835149 0.184372
H2    H     H_    0.550498 0.634876 0.165988 0.168762
H3    H     H_    0.655359 0.603777 0.611259 0.147729
H4    H     H_    0.350008 0.399495 0.383072 0.148363
H5    H     H_    0.538634 0.690316 0.765911 0.161487
H6    H     H_    0.486550 0.313693 0.237506 0.165540
H7    H     H_    0.474088 0.541832 0.792261 0.150692
H8    H     H_    0.542533 0.462301 0.209345 0.148220
H9    H     H_    0.557134 0.721971 0.548346 0.144129
H10   H     H_    0.443846 0.278476 0.450700 0.145233
H11   H     H_    0.780122 0.290131 0.720324 0.194802
H12   H     H_    0.228547 0.715375 0.271303 0.193095
N1    N     N_R   0.576230 0.204580 0.560790 -0.213417
N2    N     N_R   0.423770 0.795420 0.439210 -0.212635
O1    O     O_R   0.459870 0.022090 0.338120 -0.500052
O2    O     O_R   0.540130 0.977910 0.661880 -0.524050
O3    O     O_R   0.511290 0.160150 0.379180 -0.610401
O4    O     O_R   0.488710 0.839850 0.620820 -0.602466
O5    O     O_R   0.311490 0.930960 0.479480 -0.544412
O6    O     O_R   0.688510 0.069040 0.520520 -0.524334
O7    O     O_R   0.362910 0.069020 0.520540 -0.588901
O8    O     O_R   0.637090 0.930980 0.479460 -0.590005
N3    N     N_3   0.483276 0.947423 0.843744 -0.581464
H13   H     H_    0.411198 0.956687 0.784692 0.219429
H14   H     H_    0.445765 0.949336 0.901210 0.208587
N4    N     N_3   0.460055 0.044692 0.149759 -0.539670
H15   H     H_    0.531232 0.032140 0.126513 0.205212
H16   H     H_    0.380904 0.020552 0.110767 0.233214
N5    N     N_3   0.455761 0.184808 0.941975 -0.625672
H17   H     H_    0.376328 0.135881 0.941195 0.224091
H18   H     H_    0.526395 0.145477 0.956427 0.211705
N6    N     N_3   0.560140 0.820748 0.057717 -0.610675
H19   H     H_    0.580160 0.899209 0.028851 0.216087
H20   H     H_    0.640005 0.797866 0.102867 0.209036
O9    O     O_3   0.778906 0.460093 0.710549 -0.578917
C43   C     C_3   0.743239 0.440800 0.803706 -0.335740
H21   H     H_    0.685299 0.366906 0.830947 0.166391
H22   H     H_    0.698229 0.502779 0.797219 0.170672
H23   H     H_    0.823330 0.436994 0.862304 0.200106
O10   O     O_3   0.227866 0.544005 0.282500 -0.580328
C44   C     C_3   0.266128 0.563421 0.190362 -0.328394
H24   H     H_    0.311775 0.501447 0.197710 0.169801
H25   H     H_    0.324400 0.637246 0.164176 0.174291
H26   H     H_    0.187278 0.567500 0.130537 0.199529
O11   O     O_3   0.274692 0.880673 0.312158 -0.549267
C45   C     C_3   0.151362 0.855452 0.313660 -0.327667
H27   H     H_    0.114467 0.925127 0.296197 0.191992
H28   H     H_    0.129827 0.800719 0.389961 0.162865
H29   H     H_    0.107025 0.826192 0.253581 0.154417
O12   O     O_3   0.727095 0.119779 0.685315 -0.543932
C46   C     C_3   0.750714 0.089972 0.792470 -0.322356
H30   H     H_    0.677306 0.098636 0.823938 0.163648
H31   H     H_    0.835489 0.132311 0.815067 0.155200
H32   H     H_    0.761195 0.008828 0.827606 0.201827

loop_
_geom_bond_atom_site_label_1
_geom_bond_atom_site_label_2
_ccdc_geom_bond_type
C21   C26   A    
C4    C36   A    
C9    H1    S    
C28   O10   S    
C15   N1    A    
N5    H17   S    
C46   H30   S    
C46   H32   S    
Cu1   O5    S    
C39   C41   A    
C44   H24   S    
Cu2   O6    S    
C11   C19   A    
C33   C39   A    
C34   C40   A    
C23   C29   S    
C35   C37   A    
N6    H20   S    
C27   O9    S    
C1    O1    A    
C5    C6    A    
C2    O2    A    
C13   N1    A    
C40   H5    S    
C7    C9    A    
C16   H9    S    
C36   N6    S    
Cu1   N2    S    
O10   C44   S    
C35   N5    S    
C22   C25   A    
C10   H2    S    
N4    H15   S    
C19   C27   A    
C8    H8    S    
C24   O8    A    
C2    C34   S    
C40   C42   A    
C24   O6    A    
C34   C38   A    
C37   N4    S    
N5    H18   S    
Cu2   O7    S    
C43   H23   S    
C44   H25   S    
C14   N2    A    
C1    C33   S    
N3    H13   S    
C15   H10   S    
C26   H4    S    
C43   H22   S    
C20   C28   A    
C33   C37   A    
N3    H14   S    
Cu1   Cu2   S    
C14   O11   S    
C3    C9    A    
C45   H28   S    
C31   C32   S    
C3    C35   A    
Cu2   N1    S    
C12   C20   A    
C16   N2    A    
N6    H19   S    
C12   H12   S    
C16   C18   A    
C12   C14   A    
C4    C10   A    
C11   H11   S    
C45   H29   S    
C44   H26   S    
C15   C17   A    
C5    C41   A    
C25   H3    S    
C3    C41   A    
C18   C22   A    
C43   H21   S    
C1    O3    A    
C5    C8    A    
C46   H31   S    
C6    C7    A    
Cu1   O1    S    
Cu2   O3    S    
C25   C27   A    
C26   C28   A    
C13   O12   S    
C23   O7    A    
C36   C38   A    
C7    H7    S    
C29   C31   T    
C30   C32   T    
C11   C13   A    
C45   H27   S    
C4    C42   A    
Cu2   O2    S    
Cu1   O8    S    
C23   O5    A    
C17   C19   A    
C18   C20   A    
O12   C46   S    
C24   C30   S    
O9    C43   S    
C39   H6    S    
C38   N3    S    
C8    C10   A    
C6    C42   A    
N4    H16   S    
O11   C45   S    
C21   C22   A    
C2    O4    A    
Cu1   O4    S    
C17   C21   A    
