data_mof_unit_21982.cif
_audit_creation_date              2012-12-11T15:11:46-0500
_audit_creation_method            fapswitch 2.2
_symmetry_space_group_name_H-M    P1
_symmetry_Int_Tables_number       1
_space_group_crystal_system       triclinic
_cell_length_a                    20.20927
_cell_length_b                    7.102964
_cell_length_c                    13.539319
_cell_angle_alpha                 89.997633
_cell_angle_beta                  103.555916
_cell_angle_gamma                 89.924064
_cell_volume                      1889.36642575

loop_
_atom_site_label
_atom_site_type_symbol
_atom_type_description
_atom_site_fract_x
_atom_site_fract_y
_atom_site_fract_z
_atom_type_partial_charge
O1    O     O_R   0.449830 0.506740 0.599960 -0.558644
O2    O     O_R   0.550170 0.006740 0.400040 -0.539594
O3    O     O_R   0.588980 0.179860 0.596720 -0.555767
O4    O     O_R   0.411020 0.679860 0.403280 -0.557008
C1    C     C_R   0.616837 0.345262 0.617862 0.748152
C2    C     C_R   0.383642 0.844781 0.380528 0.746159
O5    O     O_R   0.452740 0.177340 0.612040 -0.536414
O6    O     O_R   0.547260 0.677340 0.387960 -0.522556
O7    O     O_R   0.412960 0.002070 0.415460 -0.475925
O8    O     O_R   0.587040 0.502070 0.584540 -0.507597
C3    C     C_R   0.435442 0.345858 0.637153 0.694510
C4    C     C_R   0.564167 0.845452 0.362286 0.735261
O9    O     O_3   0.487110 0.337570 0.435490 -0.343115
O10   O     O_3   0.512890 0.837570 0.564510 -0.384066
V1    V     V_3+5 0.502390 0.064650 0.511970 1.566336
V2    V     V_3+5 0.497610 0.564650 0.488030 1.568185
C5    C     C_R   0.611947 0.801414 0.112599 -0.167183
C6    C     C_R   0.387820 0.330283 0.887825 -0.155575
H1    H     H_    0.519608 0.784140 0.163545 0.134396
H2    H     H_    0.479917 0.299609 0.837152 0.119132
H3    H     H_    0.693536 0.804279 0.985470 0.112314
H4    H     H_    0.306458 0.363801 0.014452 0.187633
H5    H     H_    0.585899 0.776593 0.034124 0.124513
H6    H     H_    0.414010 0.315908 0.967065 0.149805
C7    C     C_R   0.605435 0.850833 0.286571 -0.127482
C8    C     C_R   0.393836 0.354418 0.712223 -0.116270
C9    C     C_R   0.934474 0.853878 0.319461 0.336117
C10   C     C_R   0.065358 0.334186 0.680598 0.345577
C11   C     C_R   0.898936 0.831512 0.395850 -0.225654
C12   C     C_R   0.101417 0.310060 0.604888 -0.235429
C13   C     C_R   0.828174 0.822796 0.371787 -0.072423
C14   C     C_R   0.172246 0.315482 0.628731 -0.133241
C15   C     C_R   0.789893 0.843737 0.270484 0.089685
C16   C     C_R   0.209868 0.352386 0.728859 0.093037
C17   C     C_R   0.826034 0.848962 0.192078 -0.016632
C18   C     C_R   0.173567 0.365360 0.806834 -0.031531
C19   C     C_R   0.716980 0.847472 0.243918 0.060356
C20   C     C_R   0.282648 0.362253 0.755304 0.053830
C21   C     C_R   0.682803 0.821968 0.140332 0.083666
C22   C     C_R   0.316972 0.351141 0.859526 0.058690
C23   C     C_R   0.719466 0.819028 0.064822 -0.179370
C24   C     C_R   0.280383 0.363264 0.934818 -0.149068
C25   C     C_R   0.789678 0.839338 0.089848 -0.184229
C26   C     C_R   0.209976 0.378005 0.908809 -0.160979
C27   C     C_R   0.676753 0.881694 0.315443 0.348035
C28   C     C_R   0.322588 0.387438 0.682763 0.308710
C29   C     C_R   0.574032 0.808168 0.185853 -0.199049
C30   C     C_R   0.425457 0.323049 0.814191 -0.229282
C31   C     C_R   0.898096 0.858751 0.217546 -0.106969
C32   C     C_R   0.101471 0.358841 0.781732 -0.108733
H7    H     H_    0.805069 0.789336 0.433711 0.229754
H8    H     H_    0.196292 0.279738 0.568095 0.218818
H9    H     H_    0.926181 0.817522 0.474562 0.140406
H10   H     H_    0.074620 0.282716 0.527084 0.137384
H11   H     H_    0.815395 0.840923 0.028146 0.106450
H12   H     H_    0.184070 0.392033 0.969799 0.148629
C33   C     C_3   0.214777 0.653321 0.204853 -0.412969
C34   C     C_3   0.762082 0.255553 0.860723 -0.411222
H13   H     H_    0.178900 0.564898 0.235799 0.203344
H14   H     H_    0.780424 0.109610 0.881053 0.190375
H15   H     H_    0.218850 0.589636 0.131426 0.168348
H16   H     H_    0.758645 0.326936 0.932527 0.151403
C35   C     C_3   0.285528 0.650006 0.280061 -0.436531
C36   C     C_3   0.690251 0.247382 0.787394 -0.495219
H17   H     H_    0.321643 0.570701 0.244960 0.229006
H18   H     H_    0.652015 0.307269 0.825944 0.148491
H19   H     H_    0.281607 0.572487 0.349765 0.236213
H20   H     H_    0.676163 0.097382 0.770389 0.202474
H21   H     H_    0.154187 0.850779 0.329450 0.153426
H22   H     H_    0.830074 0.109984 0.727240 0.189901
H23   H     H_    0.259827 0.867071 0.432904 0.100057
H24   H     H_    0.726557 0.112894 0.619232 0.170514
C37   C     C_3   0.186727 0.940780 0.292901 -0.357878
C38   C     C_3   0.814032 0.258804 0.710207 -0.351912
C39   C     C_3   0.238803 0.971147 0.139087 0.207544
C40   C     C_3   0.784461 0.567315 0.786672 0.222284
C41   C     C_3   0.187413 0.858317 0.186925 -0.061753
C42   C     C_3   0.813051 0.362106 0.810971 -0.066710
H25   H     H_    0.238362 0.906696 0.063963 0.083429
H26   H     H_    0.781570 0.633943 0.860026 0.075177
C43   C     C_3   0.312680 0.853446 0.309220 -0.090542
C44   C     C_3   0.688439 0.356708 0.686777 -0.069347
C45   C     C_3   0.259878 0.947507 0.362343 0.267161
C46   C     C_3   0.742183 0.260979 0.636450 0.263458
C47   C     C_3   0.313082 0.953790 0.206195 0.270929
C48   C     C_3   0.710738 0.564437 0.718695 0.280397
H27   H     H_    0.342012 0.861506 0.164677 0.046557
H28   H     H_    0.676035 0.618007 0.765273 0.034870
H29   H     H_    0.162484 0.082223 0.285432 0.189708
H30   H     H_    0.852963 0.320878 0.674136 0.194915
O11   O     O_R   0.912980 0.203550 0.915410 -0.543021
O12   O     O_R   0.087020 0.703550 0.084590 -0.551624
O13   O     O_R   0.047270 0.535570 0.887960 -0.544295
O14   O     O_R   0.952730 0.035570 0.112040 -0.543342
C49   C     C_R   0.063174 0.368065 0.861129 0.762637
C50   C     C_R   0.936392 0.868142 0.138295 0.752879
O15   O     O_R   0.911030 0.532970 0.903270 -0.521222
O16   O     O_R   0.088970 0.032970 0.096730 -0.524783
O17   O     O_R   0.949820 0.708150 0.099970 -0.545286
O18   O     O_R   0.050180 0.208150 0.900030 -0.534047
C51   C     C_R   0.883831 0.365484 0.881929 0.725861
C52   C     C_R   0.116242 0.864637 0.117582 0.733043
O19   O     O_3   0.012900 0.375230 0.064480 -0.382429
O20   O     O_3   0.987100 0.875230 0.935520 -0.369010
V3    V     V_3+5 0.997610 0.648190 0.988040 1.484276
V4    V     V_3+5 0.002390 0.148190 0.011960 1.486951
O21   O     O_3   0.218406 0.159745 0.119521 -0.636505
H31   H     H_    0.222088 0.224769 0.185240 0.349998
O22   O     O_3   0.828575 0.681252 0.745598 -0.612153
H32   H     H_    0.832291 0.626968 0.679755 0.351174
Cl1   Cl    Cl    0.359288 0.172302 0.217500 -0.655707
Cl2   Cl    Cl    0.700446 0.731482 0.615910 -0.634797
Cl3   Cl    Cl    0.280811 0.183989 0.403236 -0.680411
Cl4   Cl    Cl    0.745749 0.362448 0.516464 -0.608748
O23   O     O_3   0.707386 0.956279 0.409265 -0.616374
H33   H     H_    0.673019 0.998445 0.445491 0.333550
O24   O     O_3   0.291848 0.458754 0.587979 -0.645248
H34   H     H_    0.326061 0.493615 0.549859 0.312335
O25   O     O_3   0.004721 0.864134 0.342053 -0.661901
H35   H     H_    0.022275 0.858847 0.416830 0.287055
O26   O     O_3   0.995054 0.328232 0.658302 -0.657286
H36   H     H_    0.977688 0.309604 0.584140 0.296775

loop_
_geom_bond_atom_site_label_1
_geom_bond_atom_site_label_2
_ccdc_geom_bond_type
C34   H16   S    
C12   C14   A    
C35   H17   S    
C39   O21   S    
C40   C48   S    
C9    C11   A    
C45   Cl3   S    
O1    C3    A    
O2    C4    A    
C2    O7    A    
O20   V4    S    
O3    V1    S    
C21   C23   A    
O5    C3    A    
C12   H10   S    
C5    H5    S    
C35   C43   S    
C6    H6    S    
C36   H20   S    
C40   C42   S    
C48   H28   S    
C32   C49   S    
C33   H13   S    
C34   H14   S    
O23   H33   S    
C50   O17   A    
C5    C21   A    
C6    C22   A    
O13   C49   A    
C14   H8    S    
O13   V3    S    
C10   C32   A    
C39   C47   S    
C40   O22   S    
C17   C31   A    
O21   H31   S    
C13   C15   A    
H21   C37   S    
C17   C25   A    
C7    C29   A    
C8    C30   A    
O15   V3    S    
C22   C24   A    
O6    V2    S    
C2    C43   S    
C42   C51   S    
C23   C25   A    
O11   V4    S    
C41   C52   S    
C24   C26   A    
O11   C51   A    
O20   V3    S    
C43   C45   S    
C33   C35   S    
H23   C45   S    
C47   H27   S    
C34   C36   S    
O17   V3    S    
C35   H19   S    
C5    C29   A    
C49   O18   A    
O4    C2    A    
C13   H7    S    
C34   C42   S    
C10   O26   S    
C3    C8    S    
O3    C1    A    
C44   C48   S    
C15   C19   A    
C28   O24   S    
C36   H18   S    
O4    V2    S    
C48   Cl2   S    
H22   C38   S    
C33   C41   S    
C26   H12   S    
O6    C4    A    
H1    C29   S    
O19   V3    S    
O1    V2    S    
H24   C46   S    
O14   C50   A    
O2    V1    S    
C39   C41   S    
C36   C44   S    
O26   H36   S    
H2    C30   S    
H3    C23   S    
C25   H11   S    
C44   C46   S    
C18   C26   A    
C19   C27   A    
C7    C27   A    
C18   C32   A    
O14   V4    S    
C46   Cl4   S    
C16   C20   A    
C40   H26   S    
C38   C46   S    
C27   O23   S    
C47   Cl1   S    
C6    C30   A    
O25   H35   S    
C33   H15   S    
C9    O25   S    
O18   V4    S    
O16   V4    S    
C4    C7    S    
C38   H30   S    
C10   C12   A    
O7    V1    S    
C37   H29   S    
C1    O8    A    
C11   C13   A    
O16   C52   A    
O22   H32   S    
C20   C22   A    
C1    C44   S    
H4    C24   S    
C11   H9    S    
O5    V1    S    
C15   C17   A    
O19   V4    S    
C16   C18   A    
C31   C50   S    
O15   C51   A    
C20   C28   A    
C8    C28   A    
O12   V3    S    
C19   C21   A    
C38   C42   S    
O9    V2    S    
C37   C41   S    
O10   V1    S    
O8    V2    S    
O24   H34   S    
C39   H25   S    
C37   C45   S    
C43   C47   S    
C9    C31   A    
C14   C16   A    
O12   C52   A    
