data_mof_unit_67400.cif
_audit_creation_date              2013-03-05T15:40:01-0500
_audit_creation_method            fapswitch 2.2
_symmetry_space_group_name_H-M    P1
_symmetry_Int_Tables_number       1
_space_group_crystal_system       triclinic
_cell_length_a                    24.467177
_cell_length_b                    17.342498
_cell_length_c                    15.632715
_cell_angle_alpha                 90.062204
_cell_angle_beta                  129.251925
_cell_angle_gamma                 89.843405
_cell_volume                      5136.62016211

loop_
_atom_site_label
_atom_site_type_symbol
_atom_site_description
_atom_site_fract_x
_atom_site_fract_y
_atom_site_fract_z
_atom_type_partial_charge
C1    C     C_R   0.344152 0.367464 0.229668 0.502501
C2    C     C_R   0.655847 0.367625 0.770179 0.545164
C3    C     C_R   0.843412 0.868818 0.228332 0.512607
C4    C     C_R   0.155759 0.867152 0.769532 0.503318
N1    N     N_R   0.389060 0.424180 0.294540 -0.141081
N2    N     N_R   0.610940 0.424180 0.705460 -0.145541
N3    N     N_R   0.889060 0.924180 0.294540 -0.142001
N4    N     N_R   0.110940 0.924180 0.705460 -0.140821
C5    C     C_R   0.616120 0.401762 0.409750 0.558782
C6    C     C_R   0.384667 0.404792 0.591967 0.547368
C7    C     C_R   0.115426 0.905885 0.407753 0.546275
C8    C     C_R   0.884264 0.903723 0.590848 0.536479
N5    N     N_R   0.579670 0.423790 0.443360 -0.107304
N6    N     N_R   0.420330 0.423790 0.556640 -0.104418
N7    N     N_R   0.079670 0.923790 0.443360 -0.108803
N8    N     N_R   0.920330 0.923790 0.556640 -0.109947
C9    C     C_R   0.687205 0.394123 0.591852 -0.049803
C10   C     C_R   0.312655 0.396353 0.410239 -0.066259
C11   C     C_R   0.187718 0.897388 0.589476 -0.061343
C12   C     C_R   0.812072 0.897636 0.409564 -0.085358
H1    H     H_    0.735216 0.392975 0.675478 0.198817
H2    H     H_    0.265535 0.390546 0.326737 0.206976
H3    H     H_    0.235069 0.891984 0.673017 0.204480
H4    H     H_    0.764128 0.895588 0.325925 0.204622
N9    N     N_R   0.625470 0.423490 0.556600 -0.100034
N10   N     N_R   0.374530 0.423490 0.443400 -0.100579
N11   N     N_R   0.125470 0.923490 0.556600 -0.097316
N12   N     N_R   0.874530 0.923490 0.443400 -0.093856
C13   C     C_R   0.565109 0.363260 0.769918 0.457955
C14   C     C_R   0.435624 0.362555 0.231766 0.473301
C15   C     C_R   0.064246 0.862183 0.767498 0.468328
C16   C     C_R   0.934629 0.863197 0.229951 0.464421
N13   N     N_R   0.555250 0.423100 0.705420 -0.116351
N14   N     N_R   0.444750 0.423100 0.294580 -0.120014
N15   N     N_R   0.055250 0.923100 0.705420 -0.122875
N16   N     N_R   0.944750 0.923100 0.294580 -0.118505
C17   C     C_R   0.372055 0.325860 0.189919 -0.267406
C18   C     C_R   0.628258 0.325897 0.809822 -0.248583
C19   C     C_R   0.870760 0.827054 0.188100 -0.289816
C20   C     C_R   0.127559 0.825044 0.808226 -0.282456
C21   C     C_R   0.682939 0.378771 0.502059 -0.062746
C22   C     C_R   0.317263 0.384770 0.501462 -0.075710
C23   C     C_R   0.183197 0.886767 0.498047 -0.079021
C24   C     C_R   0.816826 0.885387 0.500724 -0.064847
C25   C     C_R   0.338049 0.643581 0.411254 0.349559
C26   C     C_R   0.659938 0.644836 0.587935 0.355569
C27   C     C_R   0.839817 0.144667 0.410697 0.354344
C28   C     C_R   0.161495 0.143722 0.588215 0.354681
N17   N     N_R   0.375210 0.577180 0.443400 -0.088561
N18   N     N_R   0.624790 0.577180 0.556600 -0.092798
N19   N     N_R   0.875210 0.077180 0.443400 -0.091537
N20   N     N_R   0.124790 0.077180 0.556600 -0.089158
C29   C     C_R   0.422442 0.606858 0.197157 -0.059793
C30   C     C_R   0.577453 0.606642 0.802871 -0.065277
C31   C     C_R   0.921877 0.105521 0.196088 -0.070190
C32   C     C_R   0.077829 0.107268 0.803112 -0.007332
H5    H     H_    0.451495 0.604740 0.166393 0.137499
H6    H     H_    0.548213 0.604950 0.833333 0.134386
H7    H     H_    0.951212 0.103692 0.165792 0.131631
H8    H     H_    0.048703 0.106118 0.833689 0.116348
N21   N     N_R   0.445430 0.577570 0.294580 -0.063305
N22   N     N_R   0.554570 0.577570 0.705420 -0.062507
N23   N     N_R   0.945430 0.077570 0.294580 -0.060431
N24   N     N_R   0.054570 0.077570 0.705420 -0.059466
C33   C     C_R   0.668006 0.604444 0.802834 -0.094595
C34   C     C_R   0.332141 0.605840 0.197877 -0.129841
C35   C     C_R   0.168103 0.105060 0.802470 -0.122448
C36   C     C_R   0.831462 0.103014 0.196198 -0.079613
H9    H     H_    0.721445 0.600460 0.832894 0.214699
H10   H     H_    0.278814 0.603499 0.168197 0.221988
H11   H     H_    0.221346 0.101801 0.831831 0.220983
H12   H     H_    0.778209 0.098201 0.166755 0.214422
N25   N     N_R   0.611620 0.576500 0.705460 -0.082864
N26   N     N_R   0.388380 0.576500 0.294540 -0.076342
N27   N     N_R   0.111620 0.076500 0.705460 -0.075566
N28   N     N_R   0.888380 0.076500 0.294540 -0.081720
C37   C     C_R   0.417330 0.643703 0.594524 -0.140249
C38   C     C_R   0.582941 0.643119 0.404787 -0.133157
C39   C     C_R   0.914948 0.142924 0.594118 -0.202837
C40   C     C_R   0.082700 0.143218 0.404839 -0.142779
H13   H     H_    0.450462 0.660713 0.679904 0.159956
H14   H     H_    0.550507 0.659238 0.319075 0.161777
H15   H     H_    0.944337 0.155145 0.680171 0.189052
H16   H     H_    0.049607 0.159759 0.319196 0.159069
N29   N     N_R   0.421010 0.576890 0.556640 -0.061318
N30   N     N_R   0.578990 0.576890 0.443360 -0.059449
N31   N     N_R   0.921010 0.076890 0.556640 -0.068965
N32   N     N_R   0.078990 0.076890 0.443360 -0.060227
Ni1   Ni    Ni4+2 0.383200 0.500680 0.370150 0.227348
Ni2   Ni    Ni4+2 0.616800 0.500680 0.629850 0.221006
Ni3   Ni    Ni4+2 0.883200 0.000680 0.370150 0.218164
Ni4   Ni    Ni4+2 0.116800 0.000680 0.629850 0.228235
Ni5   Ni    Ni4+2 0.512440 0.500680 0.370150 0.247862
Ni6   Ni    Ni4+2 0.487560 0.500680 0.629850 0.244607
Ni7   Ni    Ni4+2 0.012440 0.000680 0.370150 0.243997
Ni8   Ni    Ni4+2 0.987560 0.000680 0.629850 0.224495
C41   C     C_R   0.366214 0.687778 0.505615 -0.127492
C42   C     C_R   0.633153 0.687706 0.493435 -0.129564
C43   C     C_R   0.866283 0.189473 0.504175 -0.118290
C44   C     C_R   0.133589 0.187399 0.493387 -0.125865
C45   C     C_R   0.351880 0.626060 0.135490 0.051012
C46   C     C_R   0.648041 0.625181 0.864835 0.051863
C47   C     C_R   0.850751 0.122996 0.133052 0.062850
C48   C     C_R   0.148851 0.125550 0.865560 0.045613
C49   C     C_2   0.656434 0.783352 0.404709 0.128106
C50   C     C_2   0.344681 0.785064 0.594992 0.122632
C51   C     C_2   0.155537 0.283404 0.403290 0.127201
C52   C     C_2   0.857648 0.301743 0.595392 0.076420
C53   C     C_2   0.652946 0.765328 0.485117 0.351547
C54   C     C_2   0.348353 0.766823 0.514527 0.357804
C55   C     C_2   0.151668 0.265877 0.483619 0.350848
C56   C     C_2   0.844571 0.269489 0.505139 0.358522
C57   C     C_2   0.195545 0.351623 0.418453 0.375913
C58   C     C_2   0.806895 0.358734 0.580038 0.338805
C59   C     C_2   0.695648 0.852166 0.419739 0.345470
C60   C     C_2   0.304810 0.853685 0.579775 0.380507
C61   C     C_2   0.265123 0.347202 0.502454 -0.325736
C62   C     C_2   0.737697 0.340531 0.507047 -0.367140
C63   C     C_2   0.765245 0.848437 0.503287 -0.300352
C64   C     C_2   0.235228 0.849331 0.496349 -0.346029
H17   H     H_    0.285959 0.302423 0.564923 0.171614
H18   H     H_    0.720577 0.289155 0.456143 0.173734
H19   H     H_    0.786620 0.803462 0.565643 0.173777
H20   H     H_    0.214357 0.804519 0.433951 0.173515
C65   C     C_2   0.663767 0.259332 0.885101 0.169778
C66   C     C_2   0.338338 0.258742 0.115050 0.123330
C67   C     C_2   0.161308 0.757947 0.882765 0.120225
C68   C     C_2   0.836914 0.759493 0.114843 0.128926
C69   C     C_2   0.687943 0.200706 0.858323 0.326461
C70   C     C_2   0.314070 0.199146 0.140192 0.333120
C71   C     C_2   0.188876 0.700127 0.860626 0.330752
C72   C     C_2   0.809917 0.701905 0.138198 0.309038
C73   C     C_2   0.306895 0.660727 0.023956 0.136440
C74   C     C_2   0.692505 0.660676 0.975605 0.162225
C75   C     C_2   0.805619 0.157736 0.020968 0.176789
C76   C     C_2   0.195049 0.159151 0.978576 0.126943
C77   C     C_2   0.237359 0.642659 0.947879 0.384577
C78   C     C_2   0.762363 0.643801 0.051601 0.384539
C79   C     C_2   0.735525 0.140852 0.944693 0.290879
C80   C     C_2   0.264963 0.141369 0.053341 0.389021
O1    O     O_3   0.275218 0.363428 0.189603 -0.604752
C81   C     C_3   0.233084 0.414398 0.098852 0.227450
H21   H     H_    0.208119 0.381476 0.021226 0.145004
H22   H     H_    0.263928 0.461943 0.099306 0.085278
C82   C     C_3   0.176586 0.452560 0.099471 -0.391094
H23   H     H_    0.196763 0.461792 0.184690 0.268765
H24   H     H_    0.164406 0.510710 0.062407 0.224744
C83   C     C_3   0.108487 0.406279 0.037478 -0.550113
H25   H     H_    0.084942 0.399254 0.949608 0.258204
H26   H     H_    0.069883 0.437528 0.040075 0.240772
H27   H     H_    0.118871 0.349094 0.076879 0.324533
O2    O     O_3   0.724420 0.362811 0.809167 -0.609381
C84   C     C_3   0.767692 0.412295 0.901116 0.211181
H28   H     H_    0.795599 0.377828 0.978159 0.162887
H29   H     H_    0.737850 0.458677 0.905614 0.084319
C85   C     C_3   0.821275 0.452160 0.896003 -0.429235
H30   H     H_    0.793173 0.479420 0.814126 0.256678
H31   H     H_    0.847869 0.498685 0.958113 0.215938
C86   C     C_3   0.877318 0.397190 0.916930 -0.502659
H32   H     H_    0.908632 0.372498 0.001217 0.266149
H33   H     H_    0.913947 0.429374 0.910999 0.246391
H34   H     H_    0.852472 0.350321 0.854647 0.296160
O3    O     O_3   0.775253 0.864405 0.191225 -0.605117
C87   C     C_3   0.731399 0.913842 0.099218 0.225839
H35   H     H_    0.703698 0.879216 0.022416 0.158822
H36   H     H_    0.760847 0.960209 0.094272 0.082845
C88   C     C_3   0.677639 0.953818 0.104464 -0.447139
H37   H     H_    0.705420 0.979946 0.186886 0.261197
H38   H     H_    0.651443 0.001589 0.044001 0.217904
C89   C     C_3   0.620836 0.899187 0.080571 -0.507749
H39   H     H_    0.590255 0.875433 0.995946 0.259630
H40   H     H_    0.583602 0.931497 0.085246 0.246566
H41   H     H_    0.644927 0.851637 0.141858 0.307747
O4    O     O_3   0.224645 0.862929 0.809276 -0.602461
C90   C     C_3   0.267034 0.912674 0.901300 0.225306
H42   H     H_    0.292535 0.878433 0.978044 0.144881
H43   H     H_    0.236319 0.959603 0.902814 0.081260
C91   C     C_3   0.322999 0.952054 0.900734 -0.388538
H44   H     H_    0.301366 0.964760 0.815468 0.266164
H45   H     H_    0.337098 0.008470 0.942829 0.225260
C92   C     C_3   0.390220 0.904600 0.957004 -0.558276
H46   H     H_    0.415412 0.895069 0.045159 0.251059
H47   H     H_    0.428113 0.936489 0.953623 0.242800
H48   H     H_    0.378354 0.848711 0.914057 0.325340
O5    O     O_3   0.671571 0.820633 0.563465 -0.634706
C93   C     C_3   0.611625 0.840394 0.553026 0.268182
H49   H     H_    0.605631 0.798733 0.600690 0.120523
H50   H     H_    0.562070 0.840734 0.465014 0.067744
C94   C     C_3   0.621870 0.921291 0.599257 -0.226570
H51   H     H_    0.670609 0.923189 0.687086 0.218869
H52   H     H_    0.627592 0.962933 0.551321 0.202171
C95   C     C_3   0.558949 0.944616 0.591550 -1.133507
H53   H     H_    0.509470 0.939854 0.505411 0.270393
H54   H     H_    0.564437 0.005336 0.617107 0.271528
H55   H     H_    0.555819 0.907159 0.645904 0.291510
O6    O     O_3   0.328212 0.821665 0.434524 -0.624566
C96   C     C_3   0.382154 0.831472 0.426541 0.308012
H56   H     H_    0.392041 0.777651 0.399365 0.076496
H57   H     H_    0.432053 0.849388 0.507753 0.055359
C97   C     C_3   0.360317 0.894385 0.341834 -0.459535
H58   H     H_    0.352544 0.949792 0.368765 0.214508
H59   H     H_    0.402781 0.902102 0.335836 0.162438
C98   C     C_3   0.292650 0.872919 0.227989 -0.571185
H60   H     H_    0.300656 0.819065 0.198518 0.255574
H61   H     H_    0.277045 0.919635 0.168208 0.187393
H62   H     H_    0.248889 0.864861 0.230911 0.300191
O7    O     O_3   0.171741 0.321086 0.562885 -0.627631
C99   C     C_3   0.116163 0.334809 0.566082 0.312487
H63   H     H_    0.105069 0.282952 0.594746 0.090696
H64   H     H_    0.067164 0.352019 0.482943 0.046998
C100  C     C_3   0.137117 0.400703 0.646309 -0.453773
H65   H     H_    0.146344 0.453600 0.617087 0.202603
H66   H     H_    0.093453 0.412184 0.648641 0.173209
C101  C     C_3   0.203788 0.380897 0.762469 -0.580546
H67   H     H_    0.193971 0.331068 0.795724 0.258182
H68   H     H_    0.220608 0.430829 0.817918 0.183334
H69   H     H_    0.247872 0.367176 0.761928 0.303435
O8    O     O_3   0.800983 0.309232 0.406069 -0.649660
C102  C     C_3   0.843060 0.343969 0.383784 0.279461
H70   H     H_    0.809046 0.353704 0.293205 0.178346
H71   H     H_    0.887283 0.306033 0.405661 0.088887
C103  C     C_3   0.870970 0.422428 0.440879 -0.341793
H72   H     H_    0.825859 0.462058 0.408303 0.214611
H73   H     H_    0.901746 0.416440 0.531364 0.237118
C104  C     C_3   0.918833 0.456607 0.420215 -1.069039
H74   H     H_    0.968665 0.423049 0.465365 0.270080
H75   H     H_    0.931523 0.517076 0.448976 0.282120
H76   H     H_    0.892128 0.455047 0.330819 0.271911
N33   N     N_R   0.162623 0.414271 0.340135 0.229634
O9    O     O_R   0.098277 0.407114 0.248532 -0.392637
O10   O     O_R   0.191047 0.482510 0.368919 -0.388401
N34   N     N_R   0.831786 0.430076 0.641911 0.232341
O11   O     O_R   0.898429 0.438774 0.725245 -0.391131
O12   O     O_R   0.791417 0.490896 0.603252 -0.394698
N35   N     N_R   0.661144 0.916183 0.344199 0.228547
O13   O     O_R   0.594125 0.911916 0.260423 -0.411313
O14   O     O_R   0.691492 0.983361 0.371494 -0.396137
N36   N     N_R   0.337517 0.915804 0.658767 0.232096
O15   O     O_R   0.401602 0.907970 0.750810 -0.399487
O16   O     O_R   0.309067 0.984192 0.630617 -0.380582
O17   O     O_3   0.210293 0.580037 0.966131 -0.678815
C105  C     C_3   0.159049 0.539186 0.867338 0.151584
H77   H     H_    0.168794 0.476939 0.887005 0.123674
H78   H     H_    0.163244 0.548626 0.801184 0.096869
C106  C     C_3   0.084123 0.556143 0.825234 -0.286747
H79   H     H_    0.079040 0.542250 0.888953 0.227901
H80   H     H_    0.072322 0.617925 0.806383 0.187386
C107  C     C_3   0.029294 0.509765 0.721561 -0.945657
H81   H     H_    0.033558 0.521537 0.656250 0.243848
H82   H     H_    0.975561 0.526432 0.689909 0.308756
H83   H     H_    0.036932 0.447104 0.740600 0.301818
O18   O     O_3   0.790111 0.581566 0.033597 -0.681837
C108  C     C_3   0.843603 0.542499 0.132907 0.170386
H84   H     H_    0.837648 0.480081 0.113635 0.128658
H85   H     H_    0.837217 0.547940 0.196970 0.091544
C109  C     C_3   0.917428 0.567885 0.176396 -0.323677
H86   H     H_    0.918339 0.574831 0.106836 0.248177
H87   H     H_    0.930445 0.624181 0.218103 0.159577
C110  C     C_3   0.975177 0.510722 0.258677 -0.935237
H88   H     H_    0.961948 0.451626 0.223388 0.290748
H89   H     H_    0.982867 0.510918 0.336521 0.256878
H90   H     H_    0.025777 0.528210 0.278751 0.301096
O19   O     O_3   0.707902 0.081449 0.967343 -0.677509
C111  C     C_3   0.650108 0.042895 0.871561 0.215431
H91   H     H_    0.652251 0.982082 0.894676 0.130231
H92   H     H_    0.654605 0.038286 0.806061 0.058875
C112  C     C_3   0.579109 0.077588 0.829637 -0.402546
H93   H     H_    0.583450 0.098916 0.900512 0.262084
H94   H     H_    0.565435 0.126327 0.773535 0.182141
C113  C     C_3   0.518676 0.019543 0.767922 -0.849158
H95   H     H_    0.505620 0.003005 0.688628 0.264633
H96   H     H_    0.470780 0.046181 0.748968 0.293710
H97   H     H_    0.532379 0.967310 0.819089 0.284512
O20   O     O_3   0.291695 0.079192 0.033515 -0.681877
C114  C     C_3   0.342335 0.036932 0.131286 0.148489
H98   H     H_    0.334817 0.975201 0.108857 0.121645
H99   H     H_    0.334403 0.041276 0.193718 0.095196
C115  C     C_3   0.417868 0.057947 0.179540 -0.286657
H100  H     H_    0.424006 0.052619 0.115342 0.232662
H101  H     H_    0.429119 0.118149 0.208363 0.166831
C116  C     C_3   0.472483 0.006399 0.277005 -0.967693
H102  H     H_    0.469822 0.013769 0.344762 0.244491
H103  H     H_    0.526203 0.022848 0.308576 0.305127
H104  H     H_    0.463341 0.944951 0.251272 0.286789
O21   O     O_3   0.680983 0.210077 0.762682 -0.602889
C117  C     C_3   0.684138 0.140806 0.718687 0.292111
H105  H     H_    0.633268 0.110219 0.674594 0.073612
H106  H     H_    0.728395 0.103102 0.782973 0.039242
C118  C     C_3   0.695733 0.158731 0.635372 -0.213235
H107  H     H_    0.740497 0.199532 0.672468 0.238601
H108  H     H_    0.709580 0.104477 0.614955 0.143369
C119  C     C_3   0.630015 0.192941 0.528489 -0.934168
H109  H     H_    0.585138 0.151997 0.488269 0.253249
H110  H     H_    0.641173 0.204056 0.471021 0.244394
H111  H     H_    0.615273 0.248112 0.545233 0.275654
O22   O     O_3   0.320403 0.200709 0.235215 -0.595332
C120  C     C_3   0.390217 0.182366 0.329763 0.181707
H112  H     H_    0.431083 0.210972 0.330236 0.051160
H113  H     H_    0.398609 0.119271 0.334985 0.100186
C121  C     C_3   0.400888 0.207145 0.433115 -0.188807
H114  H     H_    0.391556 0.270031 0.429499 0.196222
H115  H     H_    0.362318 0.176751 0.436453 0.226593
C122  C     C_3   0.475585 0.189085 0.537617 -1.094771
H116  H     H_    0.487643 0.126810 0.541387 0.280549
H117  H     H_    0.480396 0.203810 0.611000 0.259070
H118  H     H_    0.514471 0.223890 0.539933 0.282119
O23   O     O_3   0.186485 0.702608 0.769238 -0.573740
C123  C     C_3   0.117724 0.687020 0.670298 0.224896
H119  H     H_    0.087900 0.741575 0.631646 0.088649
H120  H     H_    0.086785 0.650073 0.683309 0.032908
C124  C     C_3   0.122620 0.644869 0.589392 -0.335128
H121  H     H_    0.157863 0.593945 0.630952 0.201335
H122  H     H_    0.069289 0.624132 0.517942 0.145568
C125  C     C_3   0.150696 0.697230 0.546733 -0.711516
H123  H     H_    0.114318 0.746736 0.501420 0.192442
H124  H     H_    0.154373 0.664559 0.489400 0.245355
H125  H     H_    0.203919 0.719133 0.616371 0.319087
O24   O     O_3   0.807414 0.708224 0.224362 -0.588859
C126  C     C_3   0.873460 0.692190 0.327746 0.160099
H126  H     H_    0.911054 0.740173 0.354354 0.081621
H127  H     H_    0.897421 0.638300 0.326590 0.066117
C127  C     C_3   0.861926 0.682490 0.412475 -0.097023
H128  H     H_    0.830175 0.731519 0.406103 0.226667
H129  H     H_    0.832078 0.628412 0.394604 0.202348
C128  C     C_3   0.931631 0.679216 0.529784 -1.171115
H130  H     H_    0.966542 0.634742 0.536129 0.273297
H131  H     H_    0.921646 0.664129 0.587790 0.296494
H132  H     H_    0.958434 0.736029 0.553249 0.253546
N37   N     N_R   0.338643 0.718073 0.001253 0.223768
O25   O     O_R   0.326579 0.717588 0.907413 -0.323482
O26   O     O_R   0.390332 0.759693 0.081718 -0.439800
N38   N     N_R   0.659951 0.718253 0.996798 0.228279
O27   O     O_R   0.667115 0.714654 0.086531 -0.317306
O28   O     O_R   0.610684 0.762129 0.916311 -0.435553
N39   N     N_R   0.837606 0.216104 0.999950 0.224075
O29   O     O_R   0.825713 0.217763 0.906312 -0.390763
O30   O     O_R   0.888290 0.258223 0.081120 -0.431634
N40   N     N_R   0.164337 0.215783 0.004267 0.223665
O31   O     O_R   0.178346 0.214820 0.099589 -0.319616
O32   O     O_R   0.113478 0.259528 0.926286 -0.378870
N41   N     N_R   0.675951 0.261930 0.988079 0.238891
O33   O     O_R   0.686723 0.328002 0.035988 -0.388618
O34   O     O_R   0.664277 0.201772 0.023777 -0.377457
N42   N     N_R   0.332593 0.258803 0.017196 0.231528
O35   O     O_R   0.336232 0.323789 0.979615 -0.399411
O36   O     O_R   0.337526 0.195044 0.978623 -0.386180
N43   N     N_R   0.165282 0.757044 0.979061 0.228990
O37   O     O_R   0.160213 0.821541 0.016119 -0.403263
O38   O     O_R   0.160791 0.692843 0.017118 -0.392582
N44   N     N_R   0.829823 0.759017 0.015879 0.244860
O39   O     O_R   0.822665 0.823903 0.967934 -0.353431
O40   O     O_R   0.840420 0.696304 0.982521 -0.381733
O41   O     O_3   0.593742 0.421938 0.305781 -0.639839
C129  C     C_3   0.649221 0.446652 0.307035 0.138839
H133  H     H_    0.678415 0.395798 0.310932 0.162414
H134  H     H_    0.685783 0.486422 0.377420 0.172413
C130  C     C_3   0.617749 0.489879 0.199630 -0.239650
H135  H     H_    0.579261 0.452092 0.128048 0.208796
H136  H     H_    0.589253 0.541959 0.194692 0.239569
C131  C     C_3   0.674836 0.514323 0.192811 -0.845882
H137  H     H_    0.713520 0.553030 0.262667 0.279914
H138  H     H_    0.650249 0.545746 0.114193 0.281411
H139  H     H_    0.702889 0.462915 0.194988 0.257371
O42   O     O_3   0.409224 0.424663 0.697074 -0.645927
C132  C     C_3   0.356977 0.458559 0.697882 0.154231
H140  H     H_    0.325898 0.412468 0.698862 0.144399
H141  H     H_    0.321162 0.497485 0.625647 0.164849
C133  C     C_3   0.393800 0.506542 0.803247 -0.252389
H142  H     H_    0.434766 0.470884 0.876035 0.208407
H143  H     H_    0.420433 0.556473 0.799033 0.235267
C134  C     C_3   0.341925 0.535879 0.819233 -0.813682
H144  H     H_    0.298290 0.568915 0.745855 0.296742
H145  H     H_    0.369990 0.574008 0.892766 0.289157
H146  H     H_    0.319606 0.486736 0.833317 0.237372
O43   O     O_3   0.089942 0.925610 0.302060 -0.643071
C135  C     C_3   0.141518 0.958482 0.299176 0.164899
H147  H     H_    0.172828 0.911897 0.299252 0.142054
H148  H     H_    0.177111 0.998430 0.369920 0.166070
C136  C     C_3   0.103725 0.004486 0.191873 -0.266129
H149  H     H_    0.063137 0.967594 0.120704 0.211548
H150  H     H_    0.076535 0.054824 0.194413 0.232147
C137  C     C_3   0.154839 0.032858 0.173979 -0.809162
H151  H     H_    0.197823 0.067536 0.245521 0.302336
H152  H     H_    0.125900 0.069229 0.098521 0.281112
H153  H     H_    0.178167 0.983201 0.162327 0.238641
O44   O     O_3   0.908021 0.918642 0.696307 -0.642547
C138  C     C_3   0.866798 0.975813 0.695986 0.192551
H154  H     H_    0.818894 0.949098 0.676844 0.144268
H155  H     H_    0.850644 0.022540 0.635014 0.108281
C139  C     C_3   0.911118 0.011279 0.811425 -0.293709
H156  H     H_    0.927909 0.965283 0.873259 0.223903
H157  H     H_    0.959229 0.037745 0.831188 0.209952
C140  C     C_3   0.870149 0.072629 0.819912 -0.882831
H158  H     H_    0.853607 0.119787 0.759833 0.272818
H159  H     H_    0.904140 0.097233 0.904567 0.301226
H160  H     H_    0.823013 0.046404 0.803426 0.241276
O45   O     O_3   0.532263 0.357961 0.816161 -0.586336
C141  C     C_3   0.501557 0.284332 0.796282 0.311184
H161  H     H_    0.538858 0.237021 0.819195 0.065992
H162  H     H_    0.455203 0.278159 0.707490 0.064489
C142  C     C_3   0.477455 0.275294 0.865226 -0.307971
H163  H     H_    0.524280 0.278212 0.954277 0.226125
H164  H     H_    0.441098 0.323040 0.846722 0.234180
C143  C     C_3   0.439561 0.198772 0.841792 -0.826487
H165  H     H_    0.393576 0.193739 0.752510 0.283548
H166  H     H_    0.420209 0.195523 0.889552 0.308368
H167  H     H_    0.476274 0.149872 0.866924 0.251075
O46   O     O_3   0.473206 0.352289 0.194057 -0.578325
C144  C     C_3   0.503088 0.277457 0.220951 0.311856
H168  H     H_    0.464555 0.231960 0.197567 0.060701
H169  H     H_    0.546727 0.272704 0.311110 0.047653
C145  C     C_3   0.531254 0.261824 0.158872 -0.305352
H170  H     H_    0.486957 0.266543 0.068782 0.229732
H171  H     H_    0.571580 0.305393 0.181560 0.230398
C146  C     C_3   0.564161 0.181659 0.184432 -0.817968
H172  H     H_    0.609232 0.175988 0.274155 0.275323
H173  H     H_    0.583744 0.172489 0.137613 0.307217
H174  H     H_    0.524315 0.136665 0.159463 0.253578
O47   O     O_3   0.028777 0.853641 0.809008 -0.576214
C147  C     C_3   0.997793 0.779617 0.783663 0.326081
H175  H     H_    0.032924 0.733122 0.795982 0.050391
H176  H     H_    0.949454 0.777497 0.696110 0.076674
C148  C     C_3   0.977970 0.763119 0.857028 -0.301251
H177  H     H_    0.026447 0.763476 0.945023 0.239714
H178  H     H_    0.941898 0.808898 0.845313 0.236901
C149  C     C_3   0.941661 0.685068 0.830049 -0.817789
H179  H     H_    0.892374 0.683855 0.742748 0.283588
H180  H     H_    0.927973 0.674981 0.884641 0.299848
H181  H     H_    0.977311 0.638039 0.843618 0.255690
O48   O     O_3   0.970586 0.854130 0.189254 -0.579996
C150  C     C_3   0.001684 0.779966 0.215908 0.306857
H182  H     H_    0.963521 0.733731 0.191582 0.066029
H183  H     H_    0.045385 0.775166 0.306198 0.044856
C151  C     C_3   0.030441 0.766292 0.154183 -0.302627
H184  H     H_    0.986047 0.768585 0.063823 0.225985
H185  H     H_    0.068639 0.812160 0.174945 0.233522
C152  C     C_3   0.067233 0.688158 0.183334 -0.816147
H186  H     H_    0.112678 0.685141 0.273151 0.274887
H187  H     H_    0.087055 0.680087 0.136696 0.311485
H188  H     H_    0.029748 0.640900 0.160912 0.251310
N45   N     N_R   0.268381 0.652747 0.308414 0.232007
O49   O     O_R   0.227830 0.592760 0.262333 -0.408908
O50   O     O_R   0.240277 0.720750 0.272701 -0.367660
N46   N     N_R   0.726331 0.658977 0.693877 0.226072
O51   O     O_R   0.776503 0.608175 0.736694 -0.394064
O52   O     O_R   0.740820 0.726608 0.739413 -0.322741
N47   N     N_R   0.771445 0.154659 0.306361 0.228424
O53   O     O_R   0.721890 0.105477 0.274499 -0.399911
O54   O     O_R   0.757084 0.214233 0.245045 -0.343877
N48   N     N_R   0.230600 0.153676 0.691694 0.232128
O55   O     O_R   0.272940 0.094799 0.737299 -0.403255
O56   O     O_R   0.256321 0.222131 0.729376 -0.359893
N49   N     N_R   0.644661 0.727492 0.326627 0.221113
O57   O     O_R   0.606243 0.745934 0.222757 -0.331667
O58   O     O_R   0.684108 0.666030 0.361836 -0.423923
N50   N     N_R   0.355479 0.728741 0.671924 0.219705
O59   O     O_R   0.390599 0.747394 0.775096 -0.322071
O60   O     O_R   0.316978 0.666732 0.634860 -0.444636
N51   N     N_R   0.144786 0.226692 0.326818 0.223384
O61   O     O_R   0.108306 0.244612 0.223078 -0.319925
O62   O     O_R   0.184788 0.165612 0.364397 -0.426133
N52   N     N_R   0.919989 0.283953 0.705078 0.238381
O63   O     O_R   0.981374 0.292370 0.729864 -0.379615
O64   O     O_R   0.916378 0.274650 0.783940 -0.370427

loop_
_geom_bond_atom_site_label_1
_geom_bond_atom_site_label_2
_geom_bond_distance
_ccdc_geom_bond_type
C127  H129  1.111702 S    
N51   O61   1.300426 A    
C73   C77   1.359684 D    
C130  H135  1.112078 S    
C31   H7    1.081886 S    
N37   O26   1.300997 A    
C14   O46   1.381865 S    
C83   H27   1.108782 S    
C76   C80   1.362031 D    
C138  C139  1.528311 S    
C70   C80   1.493417 S    
C39   N31   1.335780 A    
C82   H23   1.100829 S    
C90   H43   1.116608 S    
C152  H186  1.111178 S    
C116  H104  1.110868 S    
C75   C79   1.364886 D    
C98   H61   1.106315 S    
C39   C43   1.387457 A    
C147  H175  1.101445 S    
N52   O64   1.300798 A    
C127  C128  1.522094 S    
N23   N28   1.395632 A    
C109  C110  1.526087 S    
C70   O22   1.392839 S    
C104  H76   1.106872 S    
C50   N50   1.438528 S    
O20   C114  1.417522 S    
C68   N44   1.443591 S    
C96   H57   1.112939 S    
C5    N5    1.344627 A    
C51   C57   1.458150 S    
C5    O41   1.392086 S    
C7    N7    1.336424 A    
N18   Ni2   1.843259 S    
C8    N8    1.336053 A    
C135  H148  1.115481 S    
C105  H78   1.114258 S    
C86   H33   1.109664 S    
N4    Ni4   1.843010 S    
C21   C62   1.450497 S    
C88   C89   1.522566 S    
C123  C124  1.528934 S    
C1    C17   1.380578 A    
C23   C64   1.442600 S    
C77   O17   1.393962 S    
C26   C42   1.392554 A    
N32   Ni7   1.832542 S    
C3    C19   1.377255 A    
C42   C53   1.465326 S    
C106  H79   1.105974 S    
C133  H143  1.111882 S    
C133  H142  1.112058 S    
C107  H82   1.109882 S    
O41   C129  1.412843 S    
C148  C149  1.526607 S    
C92   H47   1.110450 S    
C109  H86   1.108342 S    
C2    O2    1.377939 S    
C28   C44   1.398670 A    
N36   O16   1.301473 A    
C105  C106  1.533300 S    
C95   H55   1.110694 S    
C136  H149  1.112258 S    
C122  H117  1.106204 S    
N39   O30   1.301235 A    
C139  H157  1.110947 S    
C12   N12   1.340309 A    
C24   C63   1.439952 S    
C53   O5    1.386079 S    
C125  H123  1.109232 S    
C9    H1    1.070475 S    
N4    N15   1.362362 A    
C11   H3    1.068448 S    
N47   O53   1.298511 A    
N47   O54   1.297565 A    
N33   O9    1.300914 A    
C38   H14   1.075767 S    
N7    N11   1.370836 A    
C90   H42   1.110627 S    
C36   H12   1.076165 S    
C7    O43   1.390014 S    
N34   O12   1.301412 A    
N6    N10   1.370843 A    
C84   C85   1.529985 S    
O22   C120  1.416570 S    
C130  C131  1.527660 S    
C63   H19   1.089216 S    
C113  H96   1.110161 S    
C138  H154  1.112116 S    
C82   C83   1.523755 S    
C121  H114  1.107783 S    
C152  H188  1.110125 S    
C117  C118  1.530492 S    
C147  C148  1.529016 S    
O6    C96   1.412838 S    
C110  H89   1.107495 S    
O43   C135  1.412597 S    
C22   C61   1.442837 S    
C45   C73   1.477532 S    
N21   N26   1.395632 A    
C140  H158  1.110673 S    
C5    C21   1.387942 A    
N2    N13   1.362362 A    
C51   N51   1.437558 S    
C9    N9    1.337026 A    
C85   H31   1.104007 S    
C40   N32   1.328645 A    
C132  H140  1.111524 S    
C117  H106  1.109302 S    
C34   H10   1.074003 S    
C119  H110  1.108973 S    
N44   O39   1.301296 A    
C67   C71   1.367913 D    
N39   O29   1.299714 A    
C65   C69   1.366744 D    
C28   N20   1.351021 A    
C44   C55   1.469882 S    
C75   N39   1.440681 S    
C106  C107  1.524778 S    
C56   O8    1.385338 S    
C93   H49   1.112993 S    
C72   C78   1.487288 S    
C103  H72   1.111419 S    
C133  C134  1.526400 S    
N1    Ni1   1.840598 S    
O18   C108  1.417154 S    
N48   O56   1.298417 A    
C126  H127  1.108090 S    
C79   O19   1.396745 S    
C128  H132  1.110739 S    
O47   C147  1.415569 S    
C36   C47   1.381442 A    
N13   Ni6   1.861202 S    
C142  H163  1.111291 S    
O5    C93   1.410625 S    
C88   H38   1.105774 S    
N15   Ni8   1.861202 S    
N51   O62   1.301232 A    
N9    Ni2   1.857628 S    
C16   N16   1.357879 A    
C145  H170  1.110396 S    
C83   H26   1.110480 S    
N25   Ni2   1.824127 S    
C78   O18   1.393625 S    
C10   C22   1.372490 A    
C73   N37   1.439552 S    
C108  H84   1.108329 S    
C112  C113  1.526841 S    
C101  H68   1.104306 S    
C102  H71   1.117525 S    
C89   H39   1.107953 S    
C34   N26   1.342506 A    
C27   C43   1.400494 A    
O42   C132  1.412867 S    
O17   C105  1.418161 S    
C62   H18   1.086849 S    
C128  H131  1.109780 S    
O4    C90   1.415473 S    
C28   N48   1.430104 S    
C29   N21   1.345347 A    
C4    C20   1.380983 A    
C13   N13   1.358278 A    
C111  H91   1.105503 S    
C109  H87   1.103296 S    
C13   C18   1.404269 A    
C32   N24   1.349641 A    
N22   N25   1.395530 A    
C37   C41   1.370243 A    
C119  H111  1.109578 S    
C121  C122  1.525391 S    
C37   N29   1.329222 A    
N31   Ni8   1.827912 S    
C120  H113  1.106320 S    
C34   C45   1.380262 A    
C94   H51   1.111961 S    
C131  H137  1.110363 S    
C12   C24   1.371243 A    
C123  H120  1.105784 S    
N41   O34   1.298476 A    
C27   N47   1.426542 S    
C140  H160  1.108985 S    
N8    Ni8   1.849345 S    
C14   N14   1.355796 A    
C72   O24   1.390735 S    
N20   N32   1.370843 A    
C114  C115  1.534998 S    
N38   O27   1.300523 A    
N24   Ni8   1.849137 S    
C6    N6    1.336674 A    
C132  C133  1.529839 S    
C29   C45   1.382848 A    
C136  C137  1.526671 S    
C103  C104  1.519886 S    
N2    Ni2   1.843010 S    
C60   C64   1.340053 D    
N46   O51   1.298754 A    
C95   H54   1.103859 S    
N30   Ni5   1.832542 S    
C2    C18   1.377109 A    
C150  H182  1.101603 S    
C69   C79   1.504374 S    
C134  H146  1.108199 S    
C118  H107  1.111821 S    
C144  C145  1.528061 S    
C103  H73   1.109353 S    
C57   C61   1.341242 D    
C111  H92   1.099681 S    
N40   O32   1.298956 A    
C124  H122  1.112155 S    
C141  H162  1.110240 S    
C35   N27   1.343502 A    
C55   O7    1.386815 S    
C142  C143  1.526700 S    
C17   C66   1.478410 S    
C102  H70   1.111145 S    
C71   O23   1.393084 S    
C19   C68   1.473899 S    
C48   C76   1.487561 S    
C10   H2    1.067333 S    
C51   C55   1.352658 D    
C49   C59   1.456142 S    
C145  C146  1.525997 S    
C138  H155  1.115619 S    
C108  C109  1.538975 S    
C112  H93   1.107309 S    
C135  C136  1.530151 S    
C57   N33   1.441639 S    
C116  H103  1.110587 S    
C59   C63   1.339714 D    
C147  H176  1.106852 S    
C144  H168  1.101074 S    
O45   C141  1.414375 S    
C102  C103  1.531528 S    
N16   Ni7   1.865887 S    
C16   O48   1.382320 S    
C111  C112  1.537392 S    
C104  H75   1.105610 S    
N24   N27   1.395530 A    
N12   Ni3   1.860255 S    
C96   H56   1.112743 S    
C15   O47   1.381913 S    
C113  H97   1.110547 S    
N28   Ni3   1.826474 S    
C100  C101  1.525184 S    
C32   H8    1.080661 S    
N42   O35   1.300558 A    
C129  H133  1.110564 S    
C81   H21   1.110887 S    
C115  H100  1.108476 S    
C8    C24   1.367004 A    
C131  H139  1.110980 S    
C74   N38   1.438788 S    
C137  H151  1.110005 S    
C6    C22   1.375315 A    
N3    N16   1.362258 A    
C114  H98   1.105243 S    
C10   N10   1.338786 A    
C143  H167  1.109221 S    
C40   H16   1.076149 S    
C59   N35   1.440814 S    
C151  H184  1.111309 S    
O19   C111  1.418531 S    
C148  H178  1.111189 S    
C92   H46   1.109684 S    
C135  H147  1.111317 S    
C1    N1    1.340465 A    
C87   H35   1.110112 S    
C3    N3    1.334672 A    
N7    Ni7   1.844646 S    
N21   Ni5   1.844520 S    
N45   O50   1.298678 A    
C149  H179  1.111149 S    
C66   C70   1.369252 D    
C125  H124  1.110437 S    
C134  H144  1.110051 S    
N23   Ni7   1.844520 S    
C118  C119  1.525217 S    
C15   C20   1.402565 A    
N37   O25   1.300475 A    
C16   C19   1.404855 A    
C52   C58   1.480911 S    
N49   O58   1.301554 A    
C49   C53   1.349729 D    
N19   Ni3   1.840699 S    
O3    C87   1.414135 S    
C121  H115  1.111859 S    
C99   H63   1.113291 S    
C115  C116  1.525199 S    
N35   O13   1.300899 A    
C84   H29   1.116570 S    
C3    O3    1.378348 S    
C125  H125  1.110416 S    
C127  H128  1.111338 S    
C130  H136  1.111957 S    
C4    O4    1.380735 S    
C81   C82   1.536534 S    
C25   N45   1.430606 S    
C76   N40   1.437910 S    
C82   H24   1.105723 S    
C11   C23   1.374227 A    
C91   H44   1.101186 S    
C90   C91   1.536881 S    
C152  H187  1.110533 S    
C98   H62   1.109414 S    
O7    C99   1.411577 S    
C32   C48   1.388816 A    
C150  H183  1.110133 S    
N43   O37   1.300356 A    
C29   H5    1.081834 S    
N52   O63   1.300705 A    
C27   N19   1.347809 A    
C30   N22   1.344990 A    
C137  H153  1.108674 S    
C26   N46   1.427793 S    
C20   C67   1.474359 S    
C65   N41   1.440507 S    
O23   C123  1.415788 S    
C14   C17   1.403191 A    
N5    Ni5   1.844646 S    
C96   C97   1.527760 S    
O21   C117  1.409625 S    
C71   C77   1.486564 S    
C6    O42   1.389294 S    
C86   H32   1.108364 S    
C37   H13   1.075592 S    
N3    Ni3   1.840598 S    
C105  H77   1.106025 S    
C86   H34   1.109151 S    
N44   O40   1.300137 A    
C8    O44   1.382012 S    
N22   Ni6   1.849137 S    
C54   O6    1.389841 S    
C15   N15   1.355347 A    
N20   Ni4   1.843259 S    
C36   N28   1.342768 A    
C93   H50   1.118960 S    
C88   H37   1.104376 S    
C107  H81   1.109221 S    
C92   H48   1.108128 S    
N36   O15   1.300609 A    
C85   H30   1.104716 S    
C30   C46   1.381953 A    
C87   C88   1.532638 S    
N38   O28   1.301132 A    
C91   H45   1.105655 S    
C139  H156  1.112120 S    
C93   C94   1.524436 S    
C49   N49   1.437149 S    
O44   C138  1.410138 S    
C67   N43   1.445901 S    
N33   O10   1.301529 A    
C39   H15   1.071341 S    
C112  H94   1.106492 S    
C13   O45   1.382959 S    
C89   H40   1.109341 S    
C99   C100  1.525810 S    
C33   H9    1.075735 S    
C87   H36   1.116028 S    
N34   O11   1.300552 A    
C35   H11   1.074212 S    
C128  H130  1.106188 S    
C91   C92   1.522967 S    
C1    O1    1.380460 S    
C126  H126  1.109430 S    
C52   C56   1.354226 D    
O46   C144  1.415108 S    
C52   N52   1.432043 S    
C50   C60   1.457768 S    
C122  H118  1.109234 S    
C69   O21   1.403204 S    
N6    Ni6   1.849345 S    
C113  H95   1.104309 S    
C89   H41   1.108964 S    
N8    N12   1.370843 A    
C98   H60   1.111385 S    
C31   C47   1.385305 A    
C120  H112  1.113209 S    
C145  H171  1.109440 S    
N14   Ni5   1.865887 S    
C4    N4    1.337966 A    
C110  H90   1.110585 S    
C139  C140  1.522026 S    
C131  H138  1.110571 S    
N45   O49   1.298137 A    
N41   O33   1.301297 A    
N10   Ni1   1.860255 S    
C140  H159  1.110410 S    
C149  H180  1.110600 S    
N26   Ni1   1.826474 S    
N46   O52   1.299679 A    
C119  H109  1.111217 S    
C114  H99   1.111447 S    
C143  H166  1.110132 S    
C132  H141  1.115784 S    
C58   N34   1.446832 S    
C117  H105  1.105797 S    
C136  H150  1.111961 S    
C60   N36   1.441226 S    
C33   N25   1.341577 A    
C94   H52   1.112302 S    
C80   O20   1.392313 S    
C47   C75   1.484139 S    
O48   C150  1.414725 S    
C61   H17   1.089082 S    
C12   H4    1.070553 S    
C97   H58   1.111840 S    
C134  H145  1.110011 S    
C38   C42   1.369707 A    
C7    C23   1.374043 A    
C25   N17   1.350047 A    
C144  H169  1.108476 S    
C11   N11   1.339717 A    
C107  H83   1.110684 S    
C38   N30   1.329679 A    
N48   O55   1.298169 A    
C126  C127  1.528447 S    
C122  H116  1.110540 S    
C40   C44   1.369436 A    
N35   O14   1.301322 A    
C141  C142  1.529421 S    
N5    N9    1.370836 A    
C2    N2    1.335048 A    
C33   C46   1.380148 A    
C68   C72   1.369890 D    
C142  H164  1.109723 S    
C35   C48   1.380971 A    
C150  C151  1.529748 S    
N17   N29   1.370834 A    
C83   H25   1.110060 S    
C97   H59   1.109139 S    
N19   N31   1.370834 A    
C148  H177  1.111056 S    
C108  H85   1.110861 S    
C101  H67   1.111234 S    
N50   O59   1.300349 A    
C124  H121  1.110732 S    
C116  H102  1.108804 S    
C31   N23   1.347217 A    
C94   C95   1.519920 S    
C46   C74   1.475946 S    
C100  H65   1.110754 S    
O24   C126  1.412155 S    
N43   O38   1.300200 A    
N29   Ni6   1.827912 S    
C146  H172  1.111503 S    
N1    N14   1.362258 A    
C146  H173  1.110710 S    
C104  H74   1.109707 S    
C146  H174  1.110687 S    
N11   Ni4   1.857628 S    
O2    C84   1.414209 S    
C58   C62   1.351151 D    
N27   Ni4   1.824127 S    
C99   H64   1.114742 S    
C100  H66   1.109214 S    
N42   O36   1.300310 A    
C129  H134  1.114797 S    
C120  C121  1.525952 S    
C115  H101  1.101093 S    
C110  H88   1.110887 S    
C18   C65   1.475128 S    
C123  H119  1.110046 S    
C30   H6    1.082010 S    
C143  H165  1.111119 S    
C137  H152  1.110356 S    
C85   C86   1.523783 S    
N17   Ni1   1.840699 S    
C101  H69   1.109179 S    
C74   C78   1.358992 D    
C151  H185  1.109595 S    
C129  C130  1.528915 S    
C26   N18   1.351815 A    
N50   O60   1.301180 A    
C95   H53   1.105927 S    
C106  H80   1.099799 S    
C25   C41   1.397289 A    
O1    C81   1.415542 S    
C41   C54   1.470705 S    
O8    C102  1.414871 S    
C66   N42   1.444875 S    
C97   C98   1.523234 S    
C43   C56   1.487992 S    
C118  H108  1.111947 S    
C81   H22   1.116275 S    
N49   O57   1.300181 A    
C9    C21   1.366057 A    
C151  C152  1.526338 S    
N18   N30   1.370843 A    
C50   C54   1.353673 D    
N40   O31   1.300763 A    
C124  C125  1.525015 S    
C141  H161  1.103305 S    
C84   H28   1.110281 S    
C64   H20   1.089229 S    
C149  H181  1.110564 S    
