data_mof_unit_17940.cif
_audit_creation_date              2012-10-26T18:59:40-0400
_audit_creation_method            fapswitch 2.2
_symmetry_space_group_name_H-M    P1
_symmetry_Int_Tables_number       1
_space_group_crystal_system       triclinic
_cell_length_a                    23.540022
_cell_length_b                    10.823398
_cell_length_c                    9.536009
_cell_angle_alpha                 90.226437
_cell_angle_beta                  89.758885
_cell_angle_gamma                 90.386567
_cell_volume                      2429.51772504

loop_
_atom_site_label
_atom_site_type_symbol
_atom_type_description
_atom_site_fract_x
_atom_site_fract_y
_atom_site_fract_z
_atom_type_partial_charge
C1    C     C_R   0.498717 0.262316 0.499743 0.552316
C2    C     C_R   0.119887 0.598132 0.558866 0.427194
C3    C     C_R   0.239200 0.513741 0.376180 -0.111854
C4    C     C_R   0.390929 0.499710 0.500321 0.556658
C5    C     C_R   0.298316 0.514145 0.375513 -0.161624
C6    C     C_R   0.328363 0.499825 0.501135 -0.032600
C7    C     C_R   0.298216 0.484980 0.627563 -0.144510
C8    C     C_R   0.238427 0.486931 0.629386 0.320594
C9    C     C_R   0.209141 0.499650 0.502118 0.262849
C10   C     C_R   0.760919 0.484681 0.627052 -0.056802
C11   C     C_R   0.701677 0.484991 0.626612 -0.146325
C12   C     C_R   0.970493 0.303744 0.376074 -0.132733
C13   C     C_R   0.671834 0.496826 0.499964 0.002495
C14   C     C_R   0.702567 0.506175 0.373770 -0.143355
C15   C     C_R   0.761770 0.506163 0.374365 -0.058134
C16   C     C_R   0.499041 0.737766 0.500084 0.550987
C17   C     C_R   0.791191 0.495887 0.500988 0.235577
C18   C     C_R   0.491663 0.064259 0.625303 0.021135
C19   C     C_R   0.492740 0.129254 0.499260 0.010561
C20   C     C_R   0.485900 0.063788 0.372758 -0.155422
C21   C     C_R   0.486180 0.934956 0.372997 -0.156685
C22   C     C_R   0.493333 0.870859 0.499730 0.009253
C23   C     C_R   0.029671 0.303806 0.376339 -0.130040
C24   C     C_R   0.492130 0.937073 0.625526 0.027512
C25   C     C_3   0.531567 0.932896 0.747632 -0.271195
C26   C     C_3   0.530604 0.073022 0.748164 -0.264221
C27   C     C_R   0.523661 0.596316 0.073909 0.155435
C28   C     C_R   0.609138 0.499044 0.499815 0.550914
C29   C     C_R   0.471526 0.411742 0.074362 -0.014303
C30   C     C_R   0.471487 0.411778 0.925417 -0.016855
C31   C     C_R   0.523889 0.596041 0.926394 0.157123
C32   C     C_3   0.584523 0.636398 0.921124 -0.273636
C33   C     C_3   0.583993 0.637838 0.079932 -0.275404
C34   C     C_R   0.059962 0.401985 0.437794 0.038772
C35   C     C_R   0.880218 0.595396 0.561399 0.408589
C36   C     C_R   0.880836 0.401560 0.440439 0.398209
C37   C     C_R   0.940317 0.401457 0.437975 0.034692
C38   C     C_R   0.970137 0.501241 0.499224 -0.070343
C39   C     C_R   0.940148 0.600453 0.560932 0.025079
C40   C     C_3   0.936130 0.895351 0.583379 0.024272
C41   C     C_3   0.980682 0.996762 0.603014 -0.388292
C42   C     C_3   0.224779 0.547355 0.859578 0.002392
C43   C     C_3   0.176651 0.560239 0.965470 -0.340927
C44   C     C_R   0.030145 0.501251 0.498895 -0.042723
C45   C     C_R   0.060297 0.599955 0.560358 -0.023552
C46   C     C_R   0.030477 0.698153 0.621474 -0.108963
C47   C     C_R   0.971068 0.700973 0.619497 0.267585
C48   C     C_R   0.119548 0.403280 0.440415 0.409103
Cu1   Cu    Cu3+1 0.500000 0.499980 0.640670 0.939394
Cu2   Cu    Cu3+1 0.500000 0.500020 0.359330 0.939222
H1    H     H_    0.948483 0.226448 0.327814 0.159677
H2    H     H_    0.572331 0.115821 0.721394 0.147354
H3    H     H_    0.449358 0.339023 0.130088 0.115013
H4    H     H_    0.051548 0.226547 0.328524 0.164372
H5    H     H_    0.449255 0.339130 0.869534 0.117440
H6    H     H_    0.612861 0.564478 0.877035 0.148292
H7    H     H_    0.590130 0.729542 0.875150 0.121301
H8    H     H_    0.612120 0.566892 0.125038 0.147786
H9    H     H_    0.588480 0.732003 0.125692 0.128081
H10   H     H_    0.053152 0.773594 0.671502 0.171857
H11   H     H_    0.216526 0.524599 0.278565 0.123890
H12   H     H_    0.679409 0.475230 0.725326 0.118860
H13   H     H_    0.320438 0.525654 0.276561 0.138698
H14   H     H_    0.321070 0.469966 0.724157 0.120996
H15   H     H_    0.783364 0.475615 0.725329 0.135194
H16   H     H_    0.893740 0.936570 0.602989 0.194047
H17   H     H_    0.936044 0.863353 0.471807 0.122840
H18   H     H_    0.023091 0.963813 0.568984 0.148893
H19   H     H_    0.969387 0.077979 0.538558 0.119522
H20   H     H_    0.982500 0.025598 0.714806 0.180371
H21   H     H_    0.235372 0.641617 0.819757 0.158672
H22   H     H_    0.262213 0.508808 0.914538 0.118589
H23   H     H_    0.681113 0.513827 0.274542 0.117271
H24   H     H_    0.166530 0.469025 0.012720 0.170854
H25   H     H_    0.189396 0.625524 0.049935 0.093892
H26   H     H_    0.138162 0.596389 0.913034 0.187550
H27   H     H_    0.784871 0.514728 0.276399 0.133784
H28   H     H_    0.483210 0.111433 0.273356 0.129445
H29   H     H_    0.483606 0.886357 0.273684 0.134712
H30   H     H_    0.511157 0.891517 0.841889 0.137082
H31   H     H_    0.573806 0.894788 0.718928 0.136452
H32   H     H_    0.509174 0.112538 0.842108 0.132811
N1    N     N_R   0.852166 0.497419 0.501385 -0.406633
N2    N     N_R   0.148174 0.500259 0.500631 -0.369354
N3    N     N_R   0.500360 0.500930 0.147930 -0.230500
N4    N     N_R   0.500360 0.500890 0.852020 -0.231091
O1    O     O_R   0.500000 0.319640 0.618810 -0.505436
O2    O     O_R   0.582120 0.500020 0.618760 -0.505282
O3    O     O_R   0.582120 0.500060 0.381180 -0.501479
O4    O     O_2   0.849951 0.687409 0.620490 -0.458973
O5    O     O_3   0.943895 0.799763 0.682496 -0.513909
O6    O     O_3   0.207297 0.466279 0.751164 -0.533725
O7    O     O_2   0.851752 0.305986 0.383578 -0.503040
O8    O     O_2   0.148688 0.308087 0.384225 -0.496789
O9    O     O_2   0.149390 0.693888 0.613921 -0.510867
O10   O     O_R   0.500010 0.319680 0.381230 -0.510550
O11   O     O_R   0.417880 0.499940 0.618820 -0.503581
O12   O     O_R   0.417880 0.499980 0.381240 -0.500629
O13   O     O_R   0.499990 0.680320 0.618770 -0.494974
O14   O     O_R   0.500000 0.680360 0.381190 -0.506194

loop_
_geom_bond_atom_site_label_1
_geom_bond_atom_site_label_2
_ccdc_geom_bond_type
C1    O1    A    
C33   H8    S    
C4    O12   A    
C25   H30   S    
Cu1   O1    S    
C2    N2    A    
C19   C20   A    
C18   C26   S    
C11   H12   S    
C7    C8    A    
C45   C46   A    
C27   C33   S    
C12   C23   A    
C37   C38   A    
C48   O8    S    
C18   C24   A    
C5    C6    A    
C39   C47   A    
C36   C37   A    
C38   C39   A    
C36   N1    A    
C5    H13   S    
C18   C19   A    
C12   C37   A    
C27   N3    A    
Cu2   N3    S    
C36   O7    S    
C8    C9    A    
C40   H17   S    
C28   O2    A    
C13   C28   S    
C28   O3    A    
C8    O6    S    
C13   C14   A    
C30   N4    A    
C29   N3    A    
C43   H24   S    
C33   H9    S    
C31   N4    A    
C40   H16   S    
C4    O11   A    
C25   H31   S    
Cu1   O2    S    
C32   H7    S    
C41   H18   S    
C3    H11   S    
C2    C45   A    
C43   H25   S    
C1    C19   S    
Cu2   O12   S    
C27   C31   A    
C14   H23   S    
C34   C44   A    
C24   C25   S    
C4    C6    S    
C35   N1    A    
C16   O14   A    
C25   C26   S    
C48   N2    A    
C17   N1    S    
C35   C39   A    
C38   C44   A    
C29   C30   A    
C3    C9    A    
C26   H2    S    
Cu1   O13   S    
Cu2   O3    S    
C31   C32   S    
C23   C34   A    
C21   H29   S    
C42   H22   S    
C40   C41   S    
C22   C24   A    
C34   C48   A    
C42   C43   S    
C12   H1    S    
C44   C45   A    
C23   H4    S    
C41   H19   S    
C10   H15   S    
C43   H26   S    
C15   C17   A    
C46   C47   A    
C2    O9    S    
C16   C22   S    
C46   H10   S    
C47   O5    S    
Cu1   N4    S    
C3    C5    A    
C16   O13   A    
C6    C7    A    
C30   H5    S    
Cu2   O14   S    
C20   H28   S    
C32   C33   S    
C11   C13   A    
Cu2   O10   S    
C15   H27   S    
C29   H3    S    
C1    O10   A    
C42   H21   S    
C42   O6    S    
C40   O5    S    
C7    H14   S    
C10   C11   A    
C9    N2    S    
Cu1   O11   S    
C35   O4    S    
C20   C21   A    
C26   H32   S    
Cu1   Cu2   S    
C14   C15   A    
C10   C17   A    
C21   C22   A    
C32   H6    S    
C41   H20   S    
