data_mof_unit_14698.cif
_audit_creation_date              2012-10-26T18:29:55-0400
_audit_creation_method            fapswitch 2.2
_symmetry_space_group_name_H-M    P1
_symmetry_Int_Tables_number       1
_space_group_crystal_system       triclinic
_cell_length_a                    10.786953
_cell_length_b                    12.997971
_cell_length_c                    11.667239
_cell_angle_alpha                 99.854092
_cell_angle_beta                  94.285119
_cell_angle_gamma                 90.918151
_cell_volume                      1606.51545366

loop_
_atom_site_label
_atom_site_type_symbol
_atom_type_description
_atom_site_fract_x
_atom_site_fract_y
_atom_site_fract_z
_atom_type_partial_charge
C1    C     C_R   0.497955 0.299016 0.478571 0.581396
C2    C     C_R   0.500704 0.031282 0.555899 0.052594
C3    C     C_R   0.494642 0.968573 0.443884 0.054978
C4    C     C_R   0.259790 0.496986 0.499631 0.590022
C5    C     C_R   0.493368 0.860514 0.433535 -0.089344
C6    C     C_R   0.504118 0.876831 0.644745 -0.072101
C7    C     C_R   0.505425 0.984982 0.655815 -0.101754
C8    C     C_R   0.381539 0.404123 0.020501 -0.088325
C9    C     C_R   0.392593 0.412106 0.142424 0.565607
C10   C     C_R   0.552586 0.541775 0.158752 0.025381
C11   C     C_R   0.546114 0.536222 0.035259 -0.072056
C12   C     C_3   0.878681 0.495412 0.502946 -0.138478
C13   C     C_R   0.458009 0.466225 0.965926 -0.101880
C14   C     C_R   0.448399 0.459306 0.843189 0.011152
C15   C     C_R   0.609733 0.587305 0.855407 0.560569
C16   C     C_R   0.498156 0.700861 0.521315 0.578793
C17   C     C_R   0.623987 0.597584 0.978655 0.242670
C18   C     C_R   0.740349 0.497101 0.500294 0.601896
C19   C     C_3   0.082867 0.484087 0.623422 0.233999
C20   C     C_3   0.939919 0.475147 0.623585 0.131615
C21   C     C_3   0.073078 0.599052 0.468958 -0.234706
C22   C     C_3   0.061731 0.403734 0.407489 0.660470
C23   C     C_3   0.930438 0.602180 0.475463 0.059429
C24   C     C_3   0.122103 0.495514 0.499819 -0.015042
C25   C     C_3   0.918176 0.406769 0.406437 -0.195637
C26   C     C_R   0.498099 0.814285 0.533632 0.031087
C27   C     C_R   0.496934 0.185591 0.466158 0.035325
C28   C     C_R   0.489980 0.014876 0.343972 -0.093740
C29   C     C_R   0.491010 0.123038 0.355044 -0.086524
C30   C     C_R   0.501891 0.139343 0.566249 -0.079286
Cu1   Cu    Cu3+1 0.509350 0.507730 0.615930 1.147841
Cu2   Cu    Cu3+1 0.490650 0.492270 0.384070 1.098290
F1    F     F_    0.127548 0.568658 0.706322 -0.582414
F2    F     F_    0.682209 0.645694 0.799884 -0.531849
F3    F     F_    0.319218 0.350163 0.192983 -0.534388
F4    F     F_    0.095313 0.411678 0.296784 -0.530337
F5    F     F_    0.102690 0.309013 0.432763 -0.557523
H1    H     H_    0.878886 0.420303 0.319454 0.163881
H2    H     H_    0.380932 0.405617 0.789725 0.148227
H3    H     H_    0.127495 0.414235 0.649534 0.208153
H4    H     H_    0.313737 0.349299 0.969081 0.150612
H5    H     H_    0.617780 0.594654 0.215404 0.202780
H6    H     H_    0.909692 0.536571 0.693453 0.268797
H7    H     H_    0.121983 0.665887 0.528451 0.215407
H8    H     H_    0.879014 0.329827 0.417605 0.202177
H9    H     H_    0.883331 0.791940 0.025555 0.376670
H10   H     H_    0.896882 0.297428 0.831127 0.380168
H11   H     H_    0.944172 0.792422 0.752011 0.395533
H12   H     H_    0.095980 0.606981 0.379345 0.164333
H13   H     H_    0.888313 0.611665 0.387911 0.172882
H14   H     H_    0.489038 0.812661 0.347430 0.153925
H15   H     H_    0.508089 0.842288 0.723046 0.177229
H16   H     H_    0.485463 0.967585 0.257624 0.150022
H17   H     H_    0.510175 0.032266 0.742168 0.129669
H18   H     H_    0.487229 0.157573 0.276744 0.169118
H19   H     H_    0.506487 0.187197 0.652362 0.139510
N1    N     N_R   0.523430 0.519360 0.790130 -0.257059
N2    N     N_R   0.476570 0.480640 0.209880 -0.257008
O1    O     O_R   0.506640 0.354460 0.582000 -0.510440
O2    O     O_2   0.826793 0.626744 0.128529 -0.279481
O3    O     O_3   0.821459 0.746605 0.972089 -0.411775
O4    O     O_2   0.761848 0.321737 0.632871 -0.291499
O5    O     O_2   0.974032 0.264615 0.610973 -0.235978
O6    O     O_3   0.921940 0.365721 0.811860 -0.474685
O7    O     O_2   0.927064 0.812099 0.520977 -0.243048
O8    O     O_2   0.756927 0.720734 0.590931 -0.239314
O9    O     O_3   0.972964 0.727880 0.704637 -0.428460
O10   O     O_R   0.490840 0.341410 0.386200 -0.468447
O11   O     O_R   0.325590 0.506510 0.597900 -0.494847
O12   O     O_R   0.309790 0.493450 0.402100 -0.414294
O13   O     O_R   0.509160 0.658590 0.613800 -0.445045
O14   O     O_R   0.493360 0.645540 0.418000 -0.535103
O15   O     O_R   0.690210 0.506550 0.597900 -0.394485
O16   O     O_R   0.674410 0.493490 0.402100 -0.539380
O17   O     O_2   0.676718 0.766949 0.141891 -0.309089
S1    S     S_3+6 0.739212 0.686060 0.059355 0.055067
S2    S     S_3+6 0.896269 0.351689 0.666017 0.004457
S3    S     S_3+6 0.892949 0.718914 0.573893 0.043091

loop_
_geom_bond_atom_site_label_1
_geom_bond_atom_site_label_2
_ccdc_geom_bond_type
C8    C13   A    
C10   H5    S    
O6    S2    S    
O4    S2    D    
C19   C20   S    
C16   O14   A    
Cu2   N2    S    
C4    O12   A    
Cu2   O14   S    
O9    S3    S    
C12   C23   S    
C20   S2    S    
C28   C29   A    
C10   N2    A    
C1    O1    A    
Cu2   O16   S    
C4    C24   S    
Cu1   O15   S    
C27   C29   A    
C1    O10   A    
C9    N2    A    
Cu1   O1    S    
H11   O9    S    
C14   H2    S    
C11   C17   A    
C2    C7    A    
C8    C9    A    
C22   C25   S    
C17   S1    S    
C15   F2    S    
Cu2   O10   S    
Cu1   O13   S    
C18   O16   A    
C13   C14   A    
C27   C30   A    
C15   N1    A    
C16   O13   A    
C21   H12   S    
C4    O11   A    
O3    S1    S    
C16   C26   S    
O8    S3    D    
H9    O3    S    
C8    H4    S    
C19   H3    S    
H10   O6    S    
C23   H13   S    
Cu2   O12   S    
C29   H18   S    
C22   F5    S    
C30   H19   S    
O2    S1    D    
O17   S1    D    
C25   H1    S    
C21   H7    S    
Cu1   Cu2   S    
C12   C20   S    
C18   O15   A    
C21   C23   S    
C19   F1    S    
C22   C24   S    
C25   H8    S    
C20   H6    S    
C1    C27   S    
O5    S2    D    
C15   C17   A    
C14   N1    A    
C3    C28   A    
O7    S3    D    
C3    C5    A    
C28   H16   S    
C6    C7    A    
C22   F4    S    
C12   C25   S    
C2    C30   A    
Cu1   N1    S    
C19   C24   S    
C11   C13   A    
C6    C26   A    
C2    C3    A    
C23   S3    S    
C10   C11   A    
C5    C26   A    
Cu1   O11   S    
C21   C24   S    
C12   C18   S    
C9    F3    S    
C5    H14   S    
C7    H17   S    
C6    H15   S    
