data_mof_unit_67058.cif
_audit_creation_date              2012-12-11T17:41:20-0500
_audit_creation_method            fapswitch 2.2
_symmetry_space_group_name_H-M    P1
_symmetry_Int_Tables_number       1
_space_group_crystal_system       triclinic
_cell_length_a                    8.193704
_cell_length_b                    12.695589
_cell_length_c                    14.209361
_cell_angle_alpha                 93.081085
_cell_angle_beta                  90.841313
_cell_angle_gamma                 98.089958
_cell_volume                      1460.91800278

loop_
_atom_site_label
_atom_site_type_symbol
_atom_type_description
_atom_site_fract_x
_atom_site_fract_y
_atom_site_fract_z
_atom_type_partial_charge
Ba1   Ba    Ba6+2 0.855630 0.555280 0.454520 1.648679
Ba2   Ba    Ba6+2 0.334200 0.444810 0.545490 1.645697
C1    C     C_3   0.524229 0.911005 0.154280 -0.354668
C2    C     C_R   0.181630 0.499234 0.196741 0.047941
C3    C     C_R   0.336040 0.551224 0.227250 -0.292499
C4    C     C_3   0.123844 0.791044 0.194706 0.370695
C5    C     C_R   0.449225 0.595596 0.163397 0.014179
C6    C     C_R   0.406091 0.595390 0.068237 -0.147472
C7    C     C_R   0.248929 0.549050 0.035223 -0.005498
C8    C     C_R   0.136602 0.496456 0.098551 -0.026278
C9    C     C_R   0.053537 0.501203 0.901854 -0.030350
C10   C     C_R   0.941646 0.447414 0.965024 -0.001922
C11   C     C_R   0.008456 0.499544 0.803728 0.034075
C12   C     C_3   0.611460 0.851520 0.225274 0.364909
C13   C     C_R   0.854846 0.445797 0.773123 -0.297164
C14   C     C_R   0.741128 0.401213 0.836867 0.013724
C15   C     C_R   0.784936 0.399677 0.931900 -0.138186
C16   C     C_3   0.100461 0.820394 0.093281 -0.314142
C17   C     C_R   0.205533 0.553438 0.939233 -0.032372
C18   C     C_R   0.767452 0.175603 0.531071 -0.286282
C19   C     C_R   0.427305 0.813793 0.462688 -0.282059
C20   C     C_R   0.405484 0.994497 0.426543 -0.101355
C21   C     C_R   0.339275 0.887524 0.423473 -0.011109
C22   C     C_R   0.575729 0.846581 0.512503 0.064914
C23   C     C_3   0.476280 0.311838 0.257401 0.304179
C24   C     C_R   0.641881 0.956901 0.520177 -0.052165
C25   C     C_R   0.555781 0.031148 0.474988 -0.053824
C26   C     C_R   0.620635 0.140629 0.481279 0.031243
C27   C     C_R   0.856245 0.104041 0.572249 -0.003589
C28   C     C_3   0.226874 0.762245 0.657321 0.291557
C29   C     C_R   0.791694 0.995715 0.569878 -0.087479
C30   C     C_3   0.235581 0.881468 0.678009 -0.344009
C31   C     C_3   0.951989 0.234281 0.332154 0.302552
C32   C     C_3   0.964019 0.116497 0.311867 0.033488
C33   C     C_3   0.718507 0.674975 0.738474 0.338260
C34   C     C_3   0.451547 0.289476 0.151483 -0.371731
C35   C     C_3   0.785511 0.706445 0.838393 -0.058576
C36   C     C_3   0.046469 0.195413 0.803576 0.333120
C37   C     C_3   0.061418 0.159038 0.903219 -0.334520
C38   C     C_3   0.541274 0.144930 0.760014 0.310756
C39   C     C_3   0.588255 0.052400 0.812489 -0.373575
C40   C     C_R   0.984797 0.443710 0.061163 -0.024573
H1    H     H_    0.691657 0.909941 0.272560 0.077587
H2    H     H_    0.603446 0.617984 0.741931 0.054276
H3    H     H_    0.442627 0.961697 0.191358 0.098608
H4    H     H_    0.912708 0.749685 0.835882 0.114371
H5    H     H_    0.787494 0.634540 0.879002 0.025112
H6    H     H_    0.516424 0.809389 0.270263 -0.071537
H7    H     H_    0.450252 0.852817 0.104071 0.125701
H8    H     H_    0.362912 0.338075 0.286481 0.025879
H9    H     H_    0.581878 0.376365 0.270088 0.052075
H10   H     H_    0.342053 0.228296 0.136516 0.158992
H11   H     H_    0.432232 0.363339 0.117241 0.055631
H12   H     H_    0.314381 0.906137 0.741459 0.133717
H13   H     H_    0.562155 0.260117 0.121261 0.131234
H14   H     H_    0.131840 0.755934 0.043903 0.066178
H15   H     H_    0.128844 0.272197 0.799003 0.095520
H16   H     H_    0.916872 0.207702 0.790377 -0.064230
H17   H     H_    0.191451 0.150323 0.919979 0.157861
H18   H     H_    0.020984 0.218719 0.954480 0.090473
H19   H     H_    0.983047 0.081151 0.910056 0.151349
H20   H     H_    0.653545 0.181588 0.724419 -0.046960
H21   H     H_    0.446106 0.114289 0.705082 0.089408
H22   H     H_    0.690040 0.081293 0.863880 0.137812
H23   H     H_    0.288292 0.925492 0.617816 0.072399
H24   H     H_    0.629209 0.992333 0.761783 0.112950
H25   H     H_    0.032313 0.720808 0.207091 0.105926
H26   H     H_    0.481071 0.015103 0.851713 0.160915
H27   H     H_    0.371770 0.552655 0.300980 0.069565
H28   H     H_    0.496197 0.629877 0.019980 0.119104
H29   H     H_    0.696169 0.362071 0.979912 0.073618
H30   H     H_    0.819492 0.443878 0.699317 0.072663
H31   H     H_    0.897776 0.399684 0.106055 0.105180
H32   H     H_    0.292528 0.597607 0.894435 0.123241
H33   H     H_    0.335865 0.048081 0.392392 0.101837
H34   H     H_    0.110122 0.901690 0.691084 0.140904
H35   H     H_    0.860961 0.943556 0.606155 0.103827
H36   H     H_    0.816594 0.259464 0.534612 0.063531
H37   H     H_    0.248894 0.768934 0.203888 -0.082551
H38   H     H_    0.375551 0.730395 0.458472 0.066250
H39   H     H_    0.970528 0.831175 0.079452 0.198125
H40   H     H_    0.180670 0.895721 0.079613 0.140202
H41   H     H_    0.351058 0.743371 0.641079 0.009562
H42   H     H_    0.142035 0.739346 0.595722 0.068521
H43   H     H_    0.614018 0.961983 0.113050 0.187300
H44   H     H_    0.821359 0.245728 0.332436 0.003567
H45   H     H_    0.011913 0.259769 0.401942 0.010426
H46   H     H_    0.086386 0.099727 0.336281 0.090235
H47   H     H_    0.867369 0.066593 0.349970 0.021714
H48   H     H_    0.811820 0.636159 0.699308 -0.032950
I1    I     I_    0.941466 0.073871 0.163272 -0.487573
I2    I     I_    0.638734 0.808005 0.912857 -0.541709
O1    O     O_2   0.887370 0.460630 0.272300 -0.479882
O2    O     O_2   0.197682 0.111667 0.567301 -0.487311
O3    O     O_3   0.093108 0.117700 0.739230 -0.599721
O4    O     O_3   0.129410 0.451380 0.388510 -0.487873
O5    O     O_3   0.575400 0.626570 0.547370 -0.493333
O6    O     O_2   0.344320 0.238700 0.455090 -0.457612
O7    O     O_3   0.508066 0.218398 0.298028 -0.639096
O8    O     O_2   0.401204 0.408182 0.835596 -0.494469
O9    O     O_3   0.475480 0.214970 0.824479 -0.590867
O10   O     O_3   0.670210 0.653170 0.329170 -0.474224
O11   O     O_2   0.788473 0.591893 0.164259 -0.502709
O12   O     O_3   0.685680 0.766551 0.695466 -0.621697
O13   O     O_3   0.028555 0.290676 0.259656 -0.617860
O14   O     O_3   0.710891 0.785204 0.176934 -0.566540
O15   O     O_2   0.845380 0.761330 0.544970 -0.472850
O16   O     O_3   0.088930 0.704860 0.376040 -0.497846
O17   O     O_2   0.998506 0.889553 0.430419 -0.481689
O18   O     O_3   0.101439 0.877470 0.256966 -0.574911
O19   O     O_2   0.302330 0.539400 0.727760 -0.465322
O20   O     O_3   0.060300 0.548700 0.611500 -0.495413
O21   O     O_3   0.519500 0.346920 0.670840 -0.471194
O22   O     O_3   0.171635 0.710685 0.737794 -0.633482
O23   O     O_3   0.614310 0.373510 0.452640 -0.485665
O24   O     O_3   0.100780 0.295230 0.623970 -0.484435
P1    P     P_3+3 0.054400 0.427280 0.286870 0.981018
P2    P     P_3+3 0.668300 0.742890 0.573060 0.979244
P3    P     P_3+3 0.132195 0.842258 0.372787 0.961125
P4    P     P_3+3 0.135310 0.572810 0.713130 0.974771
P5    P     P_3+3 0.061102 0.156044 0.624596 0.951712
P6    P     P_3+3 0.654911 0.653415 0.206888 0.971700
P7    P     P_3+3 0.525748 0.241746 0.420569 0.934316
P8    P     P_3+3 0.533912 0.345801 0.793168 0.961707

loop_
_geom_bond_atom_site_label_1
_geom_bond_atom_site_label_2
_ccdc_geom_bond_type
C1    H43   S    
Ba1   O16   S    
C1    H7    S    
C26   P7    S    
C5    C6    A    
C13   H30   S    
C9    C17   A    
C24   C25   A    
C38   H21   S    
O7    P7    S    
C33   C35   S    
C22   C24   A    
Ba1   O20   S    
C21   P3    S    
C36   C37   S    
Ba2   O21   S    
C8    C40   A    
C13   C14   A    
C28   H41   S    
C16   H39   S    
C38   H20   S    
Ba1   Ba2   S    
O5    P2    S    
C32   I1    S    
C10   C40   A    
C34   H11   S    
C38   O9    S    
C36   H16   S    
Ba2   O24   S    
C23   O7    S    
Ba2   O5    S    
C6    C7    A    
C27   P5    S    
C36   O3    S    
C32   H46   S    
C3    H27   S    
C35   H5    S    
C7    C8    A    
O15   P2    D    
C34   H10   S    
C16   H14   S    
O3    P5    S    
C24   C29   A    
C28   H42   S    
C4    O18   S    
O16   P3    S    
O13   P1    S    
O1    P1    D    
C20   H33   S    
C37   H19   S    
C30   H12   S    
C7    C17   A    
C29   H35   S    
C39   H26   S    
O12   P2    S    
C18   C27   A    
O6    P7    D    
C4    C16   S    
Ba2   O19   S    
O9    P8    S    
O23   P7    S    
O24   P5    S    
O4    P1    S    
C31   O13   S    
C33   O12   S    
Ba1   O5    S    
C3    C5    A    
Ba2   P4    S    
Ba2   O20   S    
C12   H6    S    
C18   C26   A    
C1    H3    S    
O19   P4    D    
O8    P8    D    
C10   C15   A    
C31   H44   S    
C23   H9    S    
C23   H8    S    
C36   H15   S    
Ba2   O23   S    
C37   H17   S    
O14   P6    S    
C31   C32   S    
Ba1   P1    S    
C33   H2    S    
C1    C12   S    
Ba1   O15   S    
C4    H25   S    
C15   H29   S    
C20   C25   A    
C19   C21   A    
C2    P1    S    
C5    P6    S    
C2    C8    A    
C11   P4    S    
O17   P3    D    
O20   P4    S    
C28   O22   S    
C38   C39   S    
C40   H31   S    
C35   I2    S    
C6    H28   S    
C17   H32   S    
C2    C3    A    
O18   P3    S    
C30   H34   S    
C9    C10   A    
C39   H24   S    
C22   P2    S    
C18   H36   S    
C11   C13   A    
C31   H45   S    
C32   H47   S    
C27   C29   A    
C34   H13   S    
C28   C30   S    
C9    C11   A    
C4    H37   S    
C14   C15   A    
O21   P8    S    
Ba1   O4    S    
C37   H18   S    
C19   H38   S    
Ba2   O4    S    
C16   H40   S    
Ba1   P2    S    
C14   P8    S    
C33   H48   S    
C23   C34   S    
O2    P5    D    
C12   O14   S    
Ba2   O6    S    
Ba1   O1    S    
C19   C22   A    
C25   C26   A    
C20   C21   A    
C12   H1    S    
Ba1   O23   S    
C39   H22   S    
C35   H4    S    
O10   P6    S    
O11   P6    D    
Ba1   O10   S    
O22   P4    S    
C30   H23   S    
