data_mof_unit_60596.cif
_audit_creation_date              2012-12-10T16:53:04-0500
_audit_creation_method            fapswitch 2.2
_symmetry_space_group_name_H-M    P1
_symmetry_Int_Tables_number       1
_space_group_crystal_system       triclinic
_cell_length_a                    26.225234
_cell_length_b                    26.245084
_cell_length_c                    22.269769
_cell_angle_alpha                 90.007534
_cell_angle_beta                  53.901951
_cell_angle_gamma                 90.012814
_cell_volume                      12385.1065517

loop_
_atom_site_label
_atom_site_type_symbol
_atom_type_description
_atom_site_fract_x
_atom_site_fract_y
_atom_site_fract_z
_atom_type_partial_charge
C1    C     C_R   0.650299 0.250040 0.699500 0.817683
C2    C     C_1   0.889546 0.749995 0.221004 -0.143803
C3    C     C_2   0.248927 0.943910 0.503032 -0.297504
C4    C     C_3   0.503108 0.797353 0.975229 -0.162631
C5    C     C_3   0.500041 0.203457 0.975223 -0.162827
C6    C     C_3   0.000464 0.296796 0.975239 -0.162733
C7    C     C_3   0.002436 0.702847 0.975213 -0.162459
C8    C     C_3   0.468472 0.315623 0.485552 -0.390045
C9    C     C_3   0.464001 0.349214 0.432652 -0.865680
C10   C     C_3   0.413204 0.758889 0.595980 -0.389460
C11   C     C_3   0.357350 0.794632 0.645807 -0.866546
C12   C     C_3   0.954181 0.684300 0.514148 -0.391136
C13   C     C_1   0.389526 0.750022 0.221004 -0.144443
C14   C     C_3   0.896875 0.650468 0.566570 -0.865649
C15   C     C_3   0.913206 0.258906 0.595977 -0.389507
C16   C     C_3   0.857345 0.294643 0.645796 -0.866559
C17   C     C_1   0.389568 0.250015 0.221007 -0.143300
C18   C     C_1   0.610530 0.749962 0.778996 -0.142987
C19   C     C_1   0.610599 0.250086 0.778989 -0.142102
C20   C     C_1   0.110505 0.249983 0.778998 -0.143329
C21   C     C_1   0.110587 0.750076 0.778987 -0.142318
C22   C     C_3   0.022237 0.283732 0.024723 -0.160235
C23   C     C_3   0.023643 0.717735 0.024718 -0.160049
C24   C     C_3   0.524083 0.781749 0.024719 -0.160247
C25   C     C_R   0.650275 0.749978 0.699506 0.821766
C26   C     C_3   0.521960 0.215953 0.024721 -0.159823
C27   C     C_3   0.963518 0.250023 0.072980 0.201824
C28   C     C_3   0.963622 0.750044 0.072972 0.201678
C29   C     C_3   0.463555 0.749999 0.072977 0.201783
C30   C     C_3   0.463661 0.250073 0.072975 0.201603
C31   C     C_3   0.558152 0.734366 0.975215 -0.163194
C32   C     C_3   0.559219 0.262605 0.975217 -0.163134
C33   C     C_3   0.058906 0.236936 0.975213 -0.163299
C34   C     C_3   0.058473 0.764971 0.975221 -0.163469
C35   C     C_3   0.536528 0.749970 0.927022 0.201693
C36   C     C_R   0.150297 0.750038 0.699499 0.817954
C37   C     C_3   0.536649 0.250108 0.927018 0.201519
C38   C     C_3   0.036485 0.250000 0.927026 0.201758
C39   C     C_3   0.036617 0.750083 0.927015 0.201628
C40   C     C_3   0.999539 0.203227 0.024767 -0.163318
C41   C     C_3   0.997804 0.797280 0.024774 -0.163214
C42   C     C_3   0.496975 0.702615 0.024770 -0.163058
C43   C     C_3   0.500270 0.296725 0.024772 -0.163174
C44   C     C_3   0.476000 0.718219 0.975279 -0.160169
C45   C     C_3   0.478351 0.284228 0.975273 -0.160145
C46   C     C_3   0.977766 0.216291 0.975283 -0.160145
C47   C     C_R   0.150265 0.249986 0.699507 0.821563
C48   C     C_3   0.976598 0.782392 0.975268 -0.160156
C49   C     C_1   0.922930 0.250032 0.154167 -0.085901
C50   C     C_1   0.922998 0.750016 0.154164 -0.085660
C51   C     C_1   0.422956 0.750014 0.154165 -0.085937
C52   C     C_1   0.423031 0.250043 0.154167 -0.085388
C53   C     C_R   0.849760 0.250021 0.300496 0.821616
C54   C     C_R   0.849762 0.749981 0.300499 0.822054
C55   C     C_R   0.349763 0.750020 0.300495 0.821161
C56   C     C_R   0.349770 0.249989 0.300500 0.822404
C57   C     C_1   0.577116 0.749961 0.845834 -0.084959
C58   C     C_3   0.941096 0.263087 0.024793 -0.163258
C59   C     C_1   0.577219 0.250107 0.845828 -0.085040
C60   C     C_1   0.077079 0.249988 0.845837 -0.085130
C61   C     C_1   0.077196 0.750090 0.845826 -0.085115
C62   C     C_2   0.489968 0.220368 0.464514 -0.217472
C63   C     C_2   0.493535 0.774843 0.457408 -0.217921
C64   C     C_2   0.954339 0.779501 0.535732 -0.217192
C65   C     C_2   0.993539 0.274837 0.457400 -0.217973
C66   C     C_2   0.450639 0.260390 0.484352 0.058328
C67   C     C_2   0.435077 0.760603 0.515450 0.058376
C68   C     C_2   0.934974 0.739519 0.515661 0.057918
C69   C     C_3   0.941770 0.735156 0.024761 -0.163286
C70   C     C_2   0.935079 0.260605 0.515446 0.058416
C71   C     C_2   0.549512 0.222494 0.456636 -0.171671
C72   C     C_2   0.547523 0.780194 0.460640 -0.171263
C73   C     C_2   0.006030 0.777388 0.543563 -0.170755
C74   C     C_2   0.047527 0.280189 0.460630 -0.171450
C75   C     C_2   0.552668 0.246418 0.507336 -0.334168
C76   C     C_2   0.558984 0.745041 0.494702 -0.334247
C77   C     C_2   0.059963 0.753578 0.492747 -0.334811
C78   C     C_2   0.058983 0.245042 0.494705 -0.334197
C79   C     C_2   0.742484 0.971937 0.456844 -0.162490
C80   C     C_3   0.441931 0.765603 0.024782 -0.163540
C81   C     C_2   0.740679 0.028049 0.458376 -0.162289
C82   C     C_2   0.240778 0.471933 0.458305 -0.161978
C83   C     C_2   0.242640 0.528044 0.456712 -0.162900
C84   C     C_2   0.748188 0.943891 0.502957 -0.297845
C85   C     C_2   0.752272 0.056110 0.499469 -0.297551
C86   C     C_2   0.252463 0.443889 0.499319 -0.297174
C87   C     C_2   0.248161 0.556103 0.502965 -0.297814
C88   C     C_R   0.887807 0.251199 0.501712 0.827257
C89   C     C_R   0.887791 0.748801 0.501745 0.827722
C90   C     C_R   0.387807 0.751199 0.501713 0.827387
C91   C     C_3   0.441095 0.237576 0.024771 -0.163347
C92   C     C_R   0.389527 0.251129 0.498275 0.827319
C93   C     C_R   0.610859 0.249345 0.501106 0.864193
C94   C     C_R   0.611894 0.749249 0.499036 0.864109
C95   C     C_R   0.111953 0.750663 0.498918 0.864296
C96   C     C_R   0.111894 0.249249 0.499036 0.864028
C97   C     C_R   0.750225 0.111386 0.499877 0.854708
C98   C     C_R   0.749799 0.888614 0.500247 0.854002
C99   C     C_R   0.249800 0.611384 0.500239 0.854589
C100  C     C_R   0.250279 0.388613 0.499840 0.851526
C101  C     C_R   0.750000 0.388649 0.500278 0.855472
C102  C     C_1   0.889512 0.250032 0.221006 -0.144501
C103  C     C_R   0.749934 0.611353 0.499926 0.851528
C104  C     C_R   0.249996 0.888647 0.500259 0.855539
C105  C     C_R   0.249922 0.111351 0.499879 0.854162
C106  C     C_2   0.801089 0.528066 0.458828 -0.162895
C107  C     C_2   0.800831 0.471963 0.457174 -0.161712
C108  C     C_2   0.301019 0.028057 0.458416 -0.162940
C109  C     C_2   0.300752 0.971955 0.456822 -0.161846
C110  C     C_2   0.748317 0.556088 0.499513 -0.296436
C111  C     C_2   0.748942 0.443914 0.503123 -0.298001
C112  C     C_2   0.248283 0.056085 0.499419 -0.297297
H1    H     H_    0.846767 0.546714 0.424290 0.175381
H2    H     H_    0.528155 0.712185 0.520918 0.158660
H3    H     H_    0.066043 0.735151 0.445193 0.158318
H4    H     H_    0.028147 0.212190 0.520932 0.158653
H5    H     H_    0.738251 0.953301 0.416405 0.174612
H6    H     H_    0.729970 0.046671 0.423451 0.174744
H7    H     H_    0.229943 0.453299 0.423497 0.174655
H8    H     H_    0.238556 0.546664 0.416154 0.175016
H9    H     H_    0.751028 0.960784 0.545164 0.150250
H10   H     H_    0.764558 0.039228 0.533632 0.150221
H11   H     H_    0.264945 0.460791 0.533295 0.150526
H12   H     H_    0.845549 0.453344 0.416802 0.175314
H13   H     H_    0.250802 0.539208 0.545318 0.150627
H14   H     H_    0.701836 0.539180 0.533273 0.150439
H15   H     H_    0.703875 0.460799 0.545346 0.150426
H16   H     H_    0.201808 0.039183 0.533426 0.150370
H17   H     H_    0.203905 0.960798 0.545386 0.150288
H18   H     H_    0.892177 0.273833 0.046184 0.133463
H19   H     H_    0.893306 0.722904 0.046132 0.133444
H20   H     H_    0.393666 0.778439 0.046167 0.133203
H21   H     H_    0.392049 0.227291 0.046147 0.133461
H22   H     H_    0.506137 0.836283 0.953854 0.133708
H23   H     H_    0.346679 0.046698 0.423598 0.174540
H24   H     H_    0.500455 0.165130 0.953846 0.133694
H25   H     H_    0.001353 0.335245 0.953869 0.133665
H26   H     H_    0.004849 0.664043 0.953831 0.133819
H27   H     H_    0.456751 0.692114 0.953946 0.135170
H28   H     H_    0.460940 0.312284 0.953937 0.135234
H29   H     H_    0.960001 0.188578 0.953949 0.135173
H30   H     H_    0.957775 0.808962 0.953932 0.135132
H31   H     H_    0.998650 0.164778 0.046136 0.133340
H32   H     H_    0.995391 0.836085 0.046155 0.133385
H33   H     H_    0.493946 0.663685 0.046145 0.133519
H34   H     H_    0.345419 0.953331 0.416278 0.175183
H35   H     H_    0.499856 0.335051 0.046150 0.133492
H36   H     H_    0.606419 0.721529 0.953829 0.133467
H37   H     H_    0.608269 0.272890 0.953833 0.133314
H38   H     H_    0.107826 0.226190 0.953823 0.133271
H39   H     H_    0.106939 0.777222 0.953841 0.133091
H40   H     H_    0.040001 0.311445 0.046057 0.134784
H41   H     H_    0.042466 0.691165 0.046054 0.134969
H42   H     H_    0.543332 0.807855 0.046053 0.134794
H43   H     H_    0.539371 0.187898 0.046057 0.135145
H44   H     H_    0.477009 0.183217 0.455794 0.156740
H45   H     H_    0.589547 0.201119 0.411749 0.184268
H46   H     H_    0.503263 0.781420 0.403368 0.156987
H47   H     H_    0.932554 0.816622 0.544662 0.157917
H48   H     H_    0.003268 0.281405 0.403358 0.156989
H49   H     H_    0.493655 0.333247 0.375488 0.255813
H50   H     H_    0.414504 0.352446 0.451149 0.262632
H51   H     H_    0.481228 0.388134 0.431420 0.246710
H52   H     H_    0.436526 0.330844 0.542973 0.210685
H53   H     H_    0.517559 0.319727 0.467661 0.227733
H54   H     H_    0.369649 0.834083 0.623467 0.256377
H55   H     H_    0.314904 0.781942 0.650168 0.263028
H56   H     H_    0.580352 0.811307 0.430191 0.184257
H57   H     H_    0.345505 0.794814 0.702607 0.245574
H58   H     H_    0.399307 0.719283 0.617261 0.210674
H59   H     H_    0.450206 0.771069 0.602258 0.227590
H60   H     H_    0.868849 0.666382 0.623779 0.255859
H61   H     H_    0.866311 0.647003 0.547510 0.263225
H62   H     H_    0.913004 0.611645 0.567948 0.246839
H63   H     H_    0.979953 0.669288 0.456587 0.209579
H64   H     H_    0.985189 0.680185 0.532288 0.228029
H65   H     H_    0.869622 0.334086 0.623427 0.256319
H66   H     H_    0.814894 0.281924 0.650192 0.263076
H67   H     H_    0.001129 0.798686 0.588524 0.185071
H68   H     H_    0.845522 0.294859 0.702585 0.245599
H69   H     H_    0.899318 0.219301 0.617267 0.210636
H70   H     H_    0.950208 0.271100 0.602248 0.227589
H71   H     H_    0.080362 0.311296 0.430169 0.184131
H72   H     H_    0.511206 0.264916 0.554835 0.158704
O1    O     O_3   0.750010 0.250010 0.500000 -0.483401
O2    O     O_R   0.613890 0.719960 0.543100 -0.645977
O3    O     O_R   0.113890 0.780040 0.543100 -0.639981
O4    O     O_R   0.113890 0.219960 0.543100 -0.646018
O5    O     O_R   0.697860 0.219970 0.664410 -0.639451
O6    O     O_R   0.697860 0.780030 0.664410 -0.636090
O7    O     O_R   0.197860 0.719970 0.664410 -0.639564
O8    O     O_R   0.197860 0.280030 0.664410 -0.636664
O9    O     O_R   0.802170 0.219970 0.335590 -0.638925
O10   O     O_R   0.802170 0.780030 0.335590 -0.639109
O11   O     O_R   0.302170 0.719970 0.335590 -0.638543
O12   O     O_3   0.750010 0.749990 0.500000 -0.483416
O13   O     O_R   0.302170 0.280030 0.335590 -0.639106
O14   O     O_R   0.637780 0.280050 0.664410 -0.637364
O15   O     O_R   0.637780 0.719950 0.664410 -0.637575
O16   O     O_R   0.137780 0.780050 0.664410 -0.637985
O17   O     O_R   0.137780 0.219950 0.664410 -0.637389
O18   O     O_R   0.862250 0.280060 0.335590 -0.639324
O19   O     O_R   0.862250 0.719940 0.335590 -0.637799
O20   O     O_R   0.362250 0.780060 0.335590 -0.639387
O21   O     O_R   0.362250 0.219940 0.335590 -0.637050
O22   O     O_R   0.843040 0.219980 0.543100 -0.641332
O23   O     O_3   0.250010 0.750010 0.500000 -0.483391
O24   O     O_R   0.843040 0.780020 0.543100 -0.651552
O25   O     O_R   0.343040 0.719980 0.543100 -0.641109
O26   O     O_R   0.343040 0.280020 0.543100 -0.641348
O27   O     O_R   0.656980 0.219970 0.456900 -0.641399
O28   O     O_R   0.656980 0.780030 0.456900 -0.641143
O29   O     O_R   0.156980 0.719970 0.456900 -0.646956
O30   O     O_R   0.156980 0.280030 0.456900 -0.641268
O31   O     O_R   0.758500 0.135440 0.543100 -0.644185
O32   O     O_R   0.758500 0.864560 0.543100 -0.645406
O33   O     O_R   0.258500 0.635440 0.543100 -0.644117
O34   O     O_3   0.250010 0.249990 0.500000 -0.483458
O35   O     O_R   0.258500 0.364560 0.543100 -0.646779
O36   O     O_R   0.698440 0.364590 0.543100 -0.644818
O37   O     O_R   0.698440 0.635410 0.543100 -0.644448
O38   O     O_R   0.198440 0.864590 0.543100 -0.645565
O39   O     O_R   0.198440 0.135410 0.543100 -0.644989
O40   O     O_R   0.741510 0.135430 0.456900 -0.643071
O41   O     O_R   0.741510 0.864570 0.456900 -0.643139
O42   O     O_R   0.241510 0.635430 0.456900 -0.642318
O43   O     O_R   0.241510 0.364570 0.456900 -0.642714
O44   O     O_R   0.801610 0.364600 0.456900 -0.641243
O45   O     O_R   0.886150 0.280070 0.456900 -0.652807
O46   O     O_R   0.801610 0.635400 0.456900 -0.644751
O47   O     O_R   0.301610 0.864600 0.456900 -0.641283
O48   O     O_R   0.301610 0.135400 0.456900 -0.643081
O49   O     O_R   0.886150 0.719930 0.456900 -0.642617
O50   O     O_R   0.386150 0.780070 0.456900 -0.652792
O51   O     O_R   0.386150 0.219930 0.456900 -0.652897
O52   O     O_R   0.613890 0.280040 0.543100 -0.645657
Zn1   Zn    Zn3+2 0.823730 0.292940 0.438410 0.963771
Zn2   Zn    Zn3+2 0.737880 0.792910 0.438410 0.965108
Zn3   Zn    Zn3+2 0.237880 0.707090 0.438410 0.965791
Zn4   Zn    Zn3+2 0.237880 0.292910 0.438410 0.964521
Zn5   Zn    Zn3+2 0.676310 0.292930 0.561590 0.968160
Zn6   Zn    Zn3+2 0.676310 0.707070 0.561590 0.968044
Zn7   Zn    Zn3+2 0.176310 0.792930 0.561590 0.967460
Zn8   Zn    Zn3+2 0.176310 0.207070 0.561590 0.968615
Zn9   Zn    Zn3+2 0.823730 0.707060 0.438410 0.961398
Zn10  Zn    Zn3+2 0.323730 0.792940 0.438410 0.963594
Zn11  Zn    Zn3+2 0.323730 0.207060 0.438410 0.963753
Zn12  Zn    Zn3+2 0.762140 0.207100 0.561590 0.964315
Zn13  Zn    Zn3+2 0.762140 0.792900 0.561590 0.966837
Zn14  Zn    Zn3+2 0.262140 0.707100 0.561590 0.964601
Zn15  Zn    Zn3+2 0.262140 0.292900 0.561590 0.964602
Zn16  Zn    Zn3+2 0.737880 0.207090 0.438410 0.965232

loop_
_geom_bond_atom_site_label_1
_geom_bond_atom_site_label_2
_ccdc_geom_bond_type
C3    C104  S    
O52   Zn5   S    
C5    H24   S    
C83   C87   D    
C94   O28   A    
C54   O10   A    
C31   C42   S    
C5    C37   S    
C29   C42   S    
C36   O7    A    
C53   O9    A    
O34   Zn15  S    
C6    C58   S    
C55   O11   A    
C1    O14   A    
O34   Zn4   S    
C48   C69   S    
C72   C76   D    
C70   C88   S    
C13   C55   S    
O18   Zn1   S    
C108  H23   S    
C95   O3    A    
C21   C36   S    
O12   Zn2   S    
C10   C67   S    
C8    C66   S    
C18   C25   S    
C47   O17   A    
O17   Zn8   S    
C103  C110  S    
C80   H20   S    
C107  H12   S    
O11   Zn3   S    
C58   H18   S    
C4    C80   S    
C14   H61   S    
C25   O6    A    
C106  C110  D    
C79   C84   D    
O12   Zn9   S    
O13   Zn4   S    
C7    C23   S    
C89   O24   A    
C106  C107  S    
C55   O20   A    
C16   H68   S    
C65   C70   D    
C6    C22   S    
C15   H70   S    
C15   H69   S    
C28   C41   S    
O7    Zn14  S    
C96   O30   A    
C108  C109  S    
C90   O50   A    
O9    Zn16  S    
C89   O49   A    
C47   O8    A    
C9    H51   S    
C96   O4    A    
C24   C29   S    
C98   O32   A    
C2    C50   T    
C76   C94   S    
C13   C51   T    
C28   C50   S    
C41   C48   S    
O1    Zn1   S    
C32   H37   S    
C99   O33   A    
C100  O35   A    
C78   C96   S    
O32   Zn13  S    
O19   Zn9   S    
O12   Zn13  S    
C93   O27   A    
C11   H54   S    
C76   H2    S    
C64   C73   S    
C6    C38   S    
O34   Zn8   S    
O27   Zn16  S    
C20   C60   T    
C92   O51   A    
C86   C100  S    
O39   Zn8   S    
C21   C61   T    
O23   Zn3   S    
O25   Zn14  S    
C12   H64   S    
C98   O41   A    
C103  O46   A    
C88   O45   A    
C4    C35   S    
O31   Zn12  S    
O14   Zn5   S    
O29   Zn3   S    
O30   Zn4   S    
C46   C58   S    
O5    Zn12  S    
C11   H55   S    
O41   Zn2   S    
C72   H56   S    
C26   H43   S    
C34   C41   S    
C42   C44   S    
C82   H7    S    
C65   H48   S    
C71   H45   S    
C75   H72   S    
C17   C52   T    
C104  O38   A    
C24   H42   S    
C81   C85   D    
C46   H29   S    
C87   C99   S    
O37   Zn6   S    
C93   O52   A    
C39   C61   S    
C22   H40   S    
C1    C19   S    
C33   C40   S    
C112  H16   S    
C62   C66   D    
C106  H1    S    
C34   C39   S    
C15   C70   S    
C105  O48   A    
C36   O16   A    
C44   C80   S    
C85   C97   S    
C41   H32   S    
C14   H60   S    
C2    C54   S    
C49   C102  T    
O2    Zn6   S    
C26   C32   S    
C8    C9    S    
C104  O47   A    
O1    Zn5   S    
C74   H71   S    
C19   C59   T    
C84   H9    S    
C82   C86   D    
C81   H6    S    
C77   C95   S    
C45   H28   S    
C65   C74   S    
C108  C112  D    
O12   Zn6   S    
C83   H8    S    
C100  O43   A    
C40   C46   S    
C63   C67   D    
C25   O15   A    
O23   Zn7   S    
C7    H26   S    
C12   C68   S    
C18   C57   T    
C91   H21   S    
C53   C102  S    
C69   H19   S    
C23   C34   S    
C28   C69   S    
C68   C89   S    
C67   C90   S    
C48   H30   S    
C85   H10   S    
C5    C91   S    
C32   C37   S    
O10   Zn2   S    
C9    H49   S    
C35   C44   S    
C43   C45   S    
C17   C56   S    
C37   C59   S    
O46   Zn9   S    
C110  H14   S    
C12   H63   S    
C38   C60   S    
C31   H36   S    
C34   H39   S    
O3    Zn7   S    
C16   H66   S    
C105  C112  S    
C12   C14   S    
C11   H57   S    
C44   H27   S    
C22   C27   S    
C23   H41   S    
C8    H52   S    
C95   O29   A    
C31   C35   S    
C30   C43   S    
O4    Zn8   S    
O47   Zn10  S    
C23   C28   S    
C92   O26   A    
C37   C45   S    
O23   Zn10  S    
C64   C68   D    
O26   Zn15  S    
C87   H13   S    
C16   H65   S    
C75   C93   S    
C79   C81   S    
C56   O13   A    
C29   C51   S    
C8    H53   S    
C22   C33   S    
C30   C52   S    
C7    C39   S    
O42   Zn3   S    
O51   Zn11  S    
C27   C40   S    
C54   O19   A    
C3    H17   S    
C107  C111  D    
C78   H4    S    
C94   O2    A    
C88   O22   A    
C30   C91   S    
O21   Zn11  S    
C27   C58   S    
C7    C69   S    
C90   O25   A    
C66   C92   S    
O38   Zn7   S    
C97   O40   A    
C26   C30   S    
C101  O44   A    
C101  C111  S    
O8    Zn15  S    
C4    H22   S    
O36   Zn5   S    
C10   H58   S    
C53   O18   A    
C56   O21   A    
C35   C57   S    
C33   H38   S    
O48   Zn11  S    
C84   C98   S    
O34   Zn11  S    
C6    H25   S    
C10   H59   S    
C24   C31   S    
O44   Zn1   S    
C14   H62   S    
C105  O39   A    
O50   Zn10  S    
O1    Zn16  S    
C71   C75   D    
C101  O36   A    
O49   Zn9   S    
C29   C80   S    
C3    C109  D    
C4    C24   S    
O43   Zn4   S    
C79   H5    S    
C64   H47   S    
C32   C43   S    
C62   H44   S    
C62   C71   S    
O1    Zn12  S    
O24   Zn13  S    
O6    Zn13  S    
C9    H50   S    
C45   C91   S    
O23   Zn14  S    
O28   Zn2   S    
C38   C46   S    
C99   O42   A    
C43   H35   S    
C10   C11   S    
O40   Zn16  S    
C97   O31   A    
C5    C26   S    
C73   H67   S    
C27   C49   S    
C63   C72   S    
O33   Zn14  S    
C74   C78   D    
C40   H31   S    
O16   Zn7   S    
C86   H11   S    
O20   Zn10  S    
C73   C77   D    
C33   C38   S    
O35   Zn15  S    
O22   Zn12  S    
C63   H46   S    
C82   C83   S    
C77   H3    S    
C42   H33   S    
O45   Zn1   S    
C109  H34   S    
C103  O37   A    
C20   C47   S    
C15   C16   S    
O15   Zn6   S    
C39   C48   S    
C111  H15   S    
C1    O5    A    
