data_mof_unit_14957.cif
_audit_creation_date              2012-12-10T20:42:40-0500
_audit_creation_method            fapswitch 2.2
_symmetry_space_group_name_H-M    P1
_symmetry_Int_Tables_number       1
_space_group_crystal_system       triclinic
_cell_length_a                    8.908608
_cell_length_b                    10.743605
_cell_length_c                    9.876696
_cell_angle_alpha                 90.0701
_cell_angle_beta                  89.994418
_cell_angle_gamma                 90.126191
_cell_volume                      945.301154477

loop_
_atom_site_label
_atom_site_type_symbol
_atom_type_description
_atom_site_fract_x
_atom_site_fract_y
_atom_site_fract_z
_atom_type_partial_charge
C1    C     C_R   0.498896 0.260569 0.499784 0.866041
C2    C     C_R   0.472989 0.935233 0.376324 -0.223636
C3    C     C_R   0.496951 0.870793 0.498470 -0.068523
C4    C     C_R   0.518512 0.938160 0.616233 0.031676
C5    C     C_3   0.548986 0.927250 0.764490 -0.548092
C6    C     C_3   0.549170 0.070844 0.765337 0.412842
C7    C     C_R   0.434562 0.404562 0.071038 0.226859
C8    C     C_R   0.576469 0.587946 0.072043 -0.127891
C9    C     C_R   0.576620 0.587857 0.928148 -0.125840
C10   C     C_R   0.434377 0.404679 0.928608 0.258996
C11   C     C_3   0.273330 0.366980 0.923046 -0.523526
C12   C     C_R   0.218735 0.499776 0.499992 0.931309
C13   C     C_3   0.273716 0.366434 0.076846 -0.511553
C14   C     C_R   0.499502 0.739510 0.499895 0.877675
C15   C     C_R   0.781265 0.499836 0.500023 0.927807
C16   C     C_1   0.065406 0.499596 0.500027 -0.210071
C17   C     C_1   0.934599 0.499617 0.500036 -0.205302
C18   C     C_R   0.519629 0.062551 0.615703 -0.003481
C19   C     C_R   0.496682 0.129407 0.498143 -0.123527
C20   C     C_R   0.472622 0.064493 0.376198 -0.201145
H1    H     H_    0.453536 0.112672 0.281456 0.170550
H2    H     H_    0.200579 0.439296 0.121857 0.227355
H3    H     H_    0.659701 0.884148 0.785932 0.207332
N1    N     N_R   0.499010 0.499140 0.142800 -0.109809
N2    N     N_R   0.499010 0.499180 0.857150 -0.107683
O1    O     O_R   0.500020 0.316790 0.614690 -0.611887
O2    O     O_R   0.500000 0.316760 0.385350 -0.622559
O3    O     O_R   0.285350 0.500020 0.614650 -0.621686
O4    O     O_R   0.285340 0.499980 0.385310 -0.618064
O5    O     O_R   0.500000 0.683240 0.614650 -0.620114
O6    O     O_R   0.499980 0.683210 0.385310 -0.634101
O7    O     O_R   0.714660 0.500020 0.614690 -0.611063
O8    O     O_R   0.714650 0.499980 0.385350 -0.611468
Zn1   Zn    Zn3+2 0.500010 0.500020 0.653130 0.954535
Zn2   Zn    Zn3+2 0.499990 0.499980 0.346870 0.945258
H4    H     H_    0.258059 0.272883 0.878242 0.190847
H5    H     H_    0.259471 0.271897 0.120695 0.198946
H6    H     H_    0.454406 0.886666 0.281577 0.169649
H7    H     H_    0.452719 0.885752 0.820172 0.176576
H8    H     H_    0.451971 0.110414 0.821070 0.079376
O9    O     O_3   0.687466 0.124340 0.810110 -0.584054
C21   C     C_3   0.804328 0.120599 0.713245 -0.233866
H9    H     H_    0.783130 0.188177 0.630491 0.160927
H10   H     H_    0.821639 0.025533 0.671765 0.147337
H11   H     H_    0.910375 0.148980 0.763508 0.173848
H12   H     H_    0.635879 0.660373 0.126303 0.150493
H13   H     H_    0.636417 0.659990 0.874074 0.146635
H14   H     H_    0.200316 0.440418 0.879189 0.226073

loop_
_geom_bond_atom_site_label_1
_geom_bond_atom_site_label_2
_ccdc_geom_bond_type
C7    C10   A    
C12   O4    A    
O2    Zn2   S    
O9    C21   S    
O4    Zn2   S    
C13   H5    S    
C19   C20   A    
C5    H3    S    
N2    Zn1   S    
C4    C18   A    
C2    C3    A    
C9    N2    A    
C15   O7    A    
O1    Zn1   S    
C11   C13   S    
C11   H14   S    
C1    O1    A    
C3    C14   S    
C21   H10   S    
C12   O3    A    
C4    C5    S    
C10   N2    A    
C11   H4    S    
C8    N1    A    
C14   O5    A    
C13   H2    S    
C9    H13   S    
C8    H12   S    
C5    H7    S    
C5    C6    S    
C6    C18   S    
C6    H8    S    
C1    C19   S    
N1    Zn2   S    
C21   H9    S    
O5    Zn1   S    
O3    Zn1   S    
C7    N1    A    
C12   C16   S    
C7    C13   S    
C20   H1    S    
C1    O2    A    
C18   C19   A    
C10   C11   S    
C15   C17   S    
C14   O6    A    
C2    H6    S    
C16   C17   T    
O6    Zn2   S    
O8    Zn2   S    
C2    C20   A    
C15   O8    A    
C3    C4    A    
C8    C9    A    
C6    O9    S    
C21   H11   S    
O7    Zn1   S    
