data_mof_unit_20200.cif
_audit_creation_date              2012-12-11T15:08:55-0500
_audit_creation_method            fapswitch 2.2
_symmetry_space_group_name_H-M    P1
_symmetry_Int_Tables_number       1
_space_group_crystal_system       triclinic
_cell_length_a                    19.536222
_cell_length_b                    11.412154
_cell_length_c                    18.717796
_cell_angle_alpha                 90.130037
_cell_angle_beta                  90.574979
_cell_angle_gamma                 90.043881
_cell_volume                      4172.91744436

loop_
_atom_site_label
_atom_site_type_symbol
_atom_type_description
_atom_site_fract_x
_atom_site_fract_y
_atom_site_fract_z
_atom_type_partial_charge
C1    C     C_R   0.272427 0.043349 0.854281 0.535135
C2    C     C_R   0.726530 0.040467 0.144593 0.537881
C3    C     C_R   0.772427 0.543349 0.854281 0.535131
C4    C     C_R   0.226529 0.540463 0.144592 0.537891
C5    C     C_3   0.512686 0.718820 0.967562 -0.114824
C6    C     C_3   0.474857 0.728735 0.038526 -0.126432
C7    C     C_3   0.012669 0.218804 0.967572 -0.114809
C8    C     C_3   0.974844 0.228749 0.038537 -0.126442
C9    C     C_3   0.305546 0.504816 0.037067 -0.138935
C10   C     C_3   0.692304 0.509783 0.960403 -0.135266
C11   C     C_3   0.805546 0.004815 0.037067 -0.138932
C12   C     C_3   0.192301 0.009791 0.960399 -0.135267
C13   C     C_3   0.321934 0.546598 0.960616 -0.265402
C14   C     C_3   0.677843 0.545532 0.038827 -0.263919
C15   C     C_3   0.821934 0.046593 0.960615 -0.265401
C16   C     C_3   0.177843 0.045532 0.038826 -0.263922
C17   C     C_3   0.174327 0.535185 0.022267 -0.054717
C18   C     C_3   0.823958 0.536604 0.975770 -0.051296
C19   C     C_3   0.674328 0.035194 0.022270 -0.054711
C20   C     C_3   0.323956 0.036595 0.975770 -0.051292
C21   C     C_3   0.254589 0.700137 0.056294 -0.265230
C22   C     C_3   0.746142 0.703939 0.944700 -0.264406
C23   C     C_3   0.754595 0.200140 0.056294 -0.265235
C24   C     C_3   0.246146 0.203940 0.944701 -0.264400
C25   C     C_3   0.240791 0.570384 0.068311 0.052415
C26   C     C_3   0.757929 0.574278 0.930572 0.051601
C27   C     C_3   0.740793 0.070388 0.068313 0.052410
C28   C     C_3   0.257929 0.074278 0.930571 0.051611
C29   C     C_3   0.257029 0.606422 0.930256 0.060920
C30   C     C_3   0.742786 0.604882 0.069619 0.059367
C31   C     C_3   0.757030 0.106421 0.930256 0.060918
C32   C     C_3   0.242786 0.104881 0.069618 0.059369
C33   C     C_3   0.194803 0.523868 0.941799 0.159273
C34   C     C_3   0.804169 0.521861 0.056228 0.155582
C35   C     C_3   0.694802 0.023870 0.941801 0.159268
C36   C     C_3   0.304167 0.021856 0.056228 0.155586
C37   C     C_3   0.248098 0.720220 0.974522 -0.236583
C38   C     C_3   0.751664 0.719932 0.026977 -0.233580
C39   C     C_3   0.748104 0.220220 0.974521 -0.236582
C40   C     C_3   0.251669 0.219931 0.026978 -0.233577
C41   C     C_3   0.503933 0.700130 0.460094 -0.224225
C42   C     C_3   0.496010 0.700066 0.539679 -0.224665
C43   C     C_3   0.003930 0.200130 0.460093 -0.224222
C44   C     C_3   0.996009 0.200066 0.539679 -0.224666
C45   C     C_R   0.443139 0.816812 0.862136 0.535000
C46   C     C_R   0.554759 0.817198 0.137867 0.533956
C47   C     C_R   0.943136 0.316811 0.862136 0.535002
C48   C     C_R   0.054756 0.317198 0.137871 0.533980
C49   C     C_3   0.563477 0.901383 0.473540 -0.214718
C50   C     C_3   0.436536 0.901278 0.526770 -0.214359
C51   C     C_3   0.063476 0.401384 0.473539 -0.214714
C52   C     C_3   0.936535 0.401280 0.526770 -0.214360
C53   C     C_3   0.440539 0.883853 0.444704 -0.269661
C54   C     C_3   0.559474 0.883804 0.555546 -0.269537
C55   C     C_3   0.940538 0.383855 0.444704 -0.269664
C56   C     C_3   0.059473 0.383804 0.555545 -0.269538
C57   C     C_3   0.509937 0.827085 0.430650 0.066923
C58   C     C_3   0.490047 0.826946 0.569428 0.066997
C59   C     C_3   0.009935 0.327086 0.430649 0.066927
C60   C     C_3   0.990046 0.326947 0.569428 0.066997
C61   C     C_3   0.174419 0.644309 0.460136 -0.095655
C62   C     C_3   0.825576 0.644329 0.539952 -0.095166
C63   C     C_3   0.674418 0.144312 0.460135 -0.095651
C64   C     C_3   0.325578 0.144326 0.539952 -0.095159
C65   C     C_3   0.184941 0.670141 0.538313 -0.204844
C66   C     C_3   0.814984 0.670392 0.461853 -0.205007
C67   C     C_3   0.684940 0.170141 0.538313 -0.204844
C68   C     C_3   0.314988 0.170385 0.461852 -0.205003
C69   C     C_3   0.252454 0.464463 0.471483 -0.230599
C70   C     C_3   0.747504 0.464369 0.528042 -0.230886
C71   C     C_3   0.752455 0.964467 0.471481 -0.230603
C72   C     C_3   0.247498 0.964373 0.528043 -0.230885
C73   C     C_3   0.300668 0.659470 0.442339 -0.265340
C74   C     C_3   0.699324 0.659156 0.557938 -0.264902
C75   C     C_3   0.800667 0.159476 0.442338 -0.265341
C76   C     C_3   0.199328 0.159165 0.557941 -0.264900
C77   C     C_3   0.238999 0.580138 0.428710 0.072531
C78   C     C_3   0.760995 0.579931 0.571253 0.072699
C79   C     C_3   0.738999 0.080142 0.428709 0.072531
C80   C     C_3   0.260995 0.079934 0.571254 0.072695
C81   C     C_3   0.251668 0.612748 0.566698 0.052266
C82   C     C_3   0.748259 0.612964 0.433324 0.052067
C83   C     C_3   0.751668 0.112751 0.566698 0.052266
C84   C     C_3   0.248259 0.112968 0.433325 0.052065
C85   C     C_3   0.244244 0.482621 0.552618 -0.277881
C86   C     C_3   0.755671 0.482826 0.446948 -0.277190
C87   C     C_3   0.744245 0.982625 0.552617 -0.277888
C88   C     C_3   0.255661 0.982829 0.446948 -0.277185
C89   C     C_R   0.263033 0.642762 0.854567 0.563624
C90   C     C_R   0.737400 0.640682 0.145880 0.562859
C91   C     C_R   0.763033 0.142760 0.854566 0.563622
C92   C     C_R   0.237400 0.140682 0.145880 0.562860
C93   C     C_3   0.315054 0.656042 0.523803 -0.218736
C94   C     C_3   0.684908 0.656012 0.476458 -0.218926
C95   C     C_3   0.815053 0.156046 0.523802 -0.218734
C96   C     C_3   0.184912 0.156028 0.476461 -0.218918
C97   C     C_R   0.272783 0.045663 0.646812 0.535161
C98   C     C_R   0.727255 0.045867 0.353120 0.535304
C99   C     C_R   0.772783 0.545662 0.646811 0.535163
C100  C     C_R   0.227255 0.545865 0.353121 0.535310
C101  C     C_R   0.468977 0.822664 0.645798 0.533934
C102  C     C_R   0.531022 0.822751 0.354233 0.533607
C103  C     C_R   0.968977 0.322664 0.645797 0.533934
C104  C     C_R   0.031021 0.322751 0.354232 0.533605
C105  C     C_R   0.261023 0.642530 0.643180 0.530206
C106  C     C_R   0.738912 0.642796 0.356888 0.530096
C107  C     C_R   0.761023 0.142531 0.643180 0.530208
C108  C     C_R   0.238911 0.142801 0.356889 0.530102
C109  C     C_3   0.482004 0.918313 0.034603 -0.114144
C110  C     C_3   0.520651 0.908886 0.963188 -0.126886
C111  C     C_3   0.982012 0.418321 0.034599 -0.114144
C112  C     C_3   0.020657 0.408867 0.963185 -0.126893
C113  C     C_3   0.429924 0.826378 0.007898 -0.137080
C114  C     C_3   0.565257 0.809396 0.993867 -0.137177
C115  C     C_3   0.929922 0.326399 0.007901 -0.137088
C116  C     C_3   0.065251 0.309368 0.993870 -0.137173
C117  C     C_3   0.468764 0.818476 0.937218 0.038151
C118  C     C_3   0.526470 0.820345 0.064365 0.045997
C119  C     C_3   0.968759 0.318471 0.937221 0.038140
C120  C     C_3   0.026468 0.320345 0.064368 0.046009
Cr1   Cr    Cr6+3 0.229620 0.836040 0.749110 0.974658
Cr2   Cr    Cr6+3 0.770380 0.836040 0.250890 0.974106
Cr3   Cr    Cr6+3 0.729620 0.336040 0.749110 0.974655
Cr4   Cr    Cr6+3 0.270380 0.336040 0.250890 0.974103
Cr5   Cr    Cr6+3 0.387630 0.990680 0.750730 0.964842
Cr6   Cr    Cr6+3 0.612370 0.990680 0.249270 0.964409
Cr7   Cr    Cr6+3 0.887630 0.490680 0.750730 0.964847
Cr8   Cr    Cr6+3 0.112370 0.490680 0.249270 0.964404
Cr9   Cr    Cr6+3 0.386020 0.676590 0.749210 0.980530
Cr10  Cr    Cr6+3 0.613980 0.676590 0.250790 0.981924
Cr11  Cr    Cr6+3 0.886020 0.176590 0.749210 0.980529
Cr12  Cr    Cr6+3 0.113980 0.176590 0.250790 0.981923
H1    H     H_    0.376049 0.822434 0.020057 0.093062
H2    H     H_    0.619654 0.798976 0.986039 0.088852
H3    H     H_    0.876048 0.322466 0.020064 0.093065
H4    H     H_    0.119648 0.298927 0.986054 0.088850
H5    H     H_    0.220088 0.758647 0.086579 0.106808
H6    H     H_    0.782007 0.762544 0.916562 0.102540
H7    H     H_    0.720097 0.258654 0.086579 0.106800
H8    H     H_    0.282011 0.262544 0.916562 0.102540
H9    H     H_    0.306193 0.721009 0.077147 0.106995
H10   H     H_    0.695943 0.729376 0.922716 0.104750
H11   H     H_    0.806200 0.221007 0.077146 0.106997
H12   H     H_    0.195949 0.229389 0.922718 0.104742
H13   H     H_    0.285068 0.786325 0.956675 0.075848
H14   H     H_    0.714309 0.784921 0.045832 0.079706
H15   H     H_    0.785075 0.286322 0.956673 0.075852
H16   H     H_    0.214316 0.284923 0.045833 0.079706
H17   H     H_    0.195149 0.748325 0.962428 0.165973
H18   H     H_    0.804624 0.748030 0.040007 0.163852
H19   H     H_    0.695154 0.248327 0.962429 0.165972
H20   H     H_    0.304631 0.248025 0.040007 0.163864
H21   H     H_    0.547737 0.645458 0.446666 0.136732
H22   H     H_    0.452244 0.645263 0.553006 0.136388
H23   H     H_    0.047731 0.145453 0.446663 0.136732
H24   H     H_    0.952244 0.145263 0.553007 0.136388
H25   H     H_    0.459642 0.654558 0.434750 0.113281
H26   H     H_    0.540316 0.654614 0.564882 0.113165
H27   H     H_    0.959638 0.154561 0.434750 0.113275
H28   H     H_    0.040316 0.154614 0.564880 0.113164
H29   H     H_    0.614901 0.892616 0.453191 0.105591
H30   H     H_    0.385095 0.892601 0.547080 0.105777
H31   H     H_    0.114899 0.392622 0.453189 0.105593
H32   H     H_    0.885095 0.392607 0.547080 0.105780
H33   H     H_    0.601488 0.827430 0.575303 0.107757
H34   H     H_    0.398499 0.827479 0.424747 0.107741
H35   H     H_    0.101488 0.327430 0.575302 0.107760
H36   H     H_    0.898498 0.327481 0.424746 0.107740
H37   H     H_    0.472947 0.000355 0.064100 0.164468
H38   H     H_    0.532867 0.982875 0.928385 0.172680
H39   H     H_    0.972955 0.500374 0.064087 0.164463
H40   H     H_    0.032876 0.482844 0.928376 0.172695
H41   H     H_    0.436076 0.969554 0.416857 0.100491
H42   H     H_    0.563993 0.969459 0.583685 0.100195
H43   H     H_    0.936075 0.469556 0.416856 0.100490
H44   H     H_    0.063993 0.469459 0.583684 0.100193
H45   H     H_    0.452284 0.992975 0.537325 0.117063
H46   H     H_    0.547750 0.993074 0.463359 0.116797
H47   H     H_    0.952284 0.492976 0.537325 0.117063
H48   H     H_    0.047748 0.493076 0.463359 0.116795
H49   H     H_    0.135181 0.579587 0.458232 0.144786
H50   H     H_    0.864850 0.579711 0.541477 0.144309
H51   H     H_    0.635181 0.079589 0.458229 0.144790
H52   H     H_    0.364848 0.079701 0.541479 0.144308
H53   H     H_    0.187135 0.763754 0.547930 0.146117
H54   H     H_    0.812773 0.763978 0.452607 0.145551
H55   H     H_    0.687131 0.263753 0.547933 0.146117
H56   H     H_    0.312787 0.263972 0.452601 0.145548
H57   H     H_    0.139666 0.638322 0.568547 0.106865
H58   H     H_    0.860229 0.638796 0.431443 0.107214
H59   H     H_    0.639666 0.138317 0.568546 0.106862
H60   H     H_    0.360231 0.138772 0.431442 0.107206
H61   H     H_    0.721719 0.891395 0.452008 0.114236
H62   H     H_    0.278274 0.891348 0.547144 0.113841
H63   H     H_    0.221719 0.391393 0.452008 0.114231
H64   H     H_    0.778277 0.391344 0.547146 0.113844
H65   H     H_    0.694114 0.950269 0.571088 0.105240
H66   H     H_    0.305778 0.950601 0.428303 0.105010
H67   H     H_    0.194112 0.450267 0.571088 0.105239
H68   H     H_    0.805791 0.450613 0.428309 0.105016
H69   H     H_    0.345689 0.627406 0.412323 0.103021
H70   H     H_    0.654293 0.626885 0.587823 0.103153
H71   H     H_    0.845687 0.127415 0.412321 0.103018
H72   H     H_    0.154297 0.126900 0.587826 0.103151
H73   H     H_    0.289368 0.749695 0.424527 0.116981
H74   H     H_    0.710610 0.749359 0.576134 0.116667
H75   H     H_    0.789365 0.249702 0.424527 0.116987
H76   H     H_    0.210619 0.249363 0.576139 0.116670
H77   H     H_    0.516859 0.634418 0.939875 0.127378
H78   H     H_    0.460625 0.655547 0.072695 0.130248
H79   H     H_    0.016826 0.134390 0.939895 0.127365
H80   H     H_    0.960592 0.155587 0.072712 0.130248
H81   H     H_    0.335185 0.737474 0.544363 0.114794
H82   H     H_    0.664815 0.737552 0.456354 0.114450
H83   H     H_    0.835188 0.237475 0.544363 0.114794
H84   H     H_    0.164831 0.237579 0.456359 0.114436
H85   H     H_    0.355424 0.589912 0.532554 0.119614
H86   H     H_    0.644469 0.589904 0.467459 0.119583
H87   H     H_    0.855424 0.089914 0.532550 0.119611
H88   H     H_    0.144465 0.089935 0.467460 0.119584
H89   H     H_    0.306617 0.441347 0.461819 0.123118
H90   H     H_    0.693364 0.441045 0.537646 0.122813
H91   H     H_    0.806617 0.941353 0.461818 0.123119
H92   H     H_    0.193359 0.941049 0.537651 0.122815
H93   H     H_    0.284199 0.437137 0.582801 0.118021
H94   H     H_    0.715689 0.437419 0.416577 0.118094
H95   H     H_    0.784201 0.937146 0.582799 0.118025
H96   H     H_    0.215670 0.937438 0.416582 0.118103
H97   H     H_    0.288459 0.418504 0.028632 0.124612
H98   H     H_    0.706704 0.420527 0.962875 0.129509
H99   H     H_    0.788454 0.918506 0.028633 0.124612
H100  H     H_    0.206691 0.920528 0.962861 0.129524
H101  H     H_    0.365436 0.609465 0.961226 0.153441
H102  H     H_    0.633776 0.606818 0.041673 0.156822
H103  H     H_    0.865437 0.109458 0.961225 0.153438
H104  H     H_    0.133776 0.106815 0.041678 0.156825
H105  H     H_    0.337069 0.470672 0.926766 0.106284
H106  H     H_    0.664213 0.466712 0.070660 0.102245
H107  H     H_    0.837066 0.970665 0.926766 0.106280
H108  H     H_    0.164216 0.966708 0.070657 0.102239
H109  H     H_    0.658743 0.948486 0.041065 0.087636
H110  H     H_    0.338062 0.951347 0.953714 0.091174
H111  H     H_    0.158741 0.448474 0.041057 0.087632
H112  H     H_    0.838067 0.451359 0.953711 0.091187
H113  H     H_    0.712310 0.932047 0.934662 0.060251
H114  H     H_    0.285924 0.930179 0.061948 0.061073
H115  H     H_    0.212313 0.432046 0.934658 0.060252
H116  H     H_    0.785927 0.430182 0.061946 0.061067
O1    O     O_R   0.214130 0.708570 0.829890 -0.489524
O2    O     O_R   0.785870 0.708570 0.170110 -0.496415
O3    O     O_R   0.714130 0.208570 0.829890 -0.489532
O4    O     O_R   0.285870 0.208570 0.170110 -0.496417
O5    O     O_R   0.446360 0.919990 0.675230 -0.515288
O6    O     O_R   0.553640 0.919990 0.324770 -0.514695
O7    O     O_R   0.946360 0.419990 0.675230 -0.515289
O8    O     O_R   0.053640 0.419990 0.324770 -0.514698
O9    O     O_R   0.457170 0.717300 0.668380 -0.529947
O10   O     O_R   0.542830 0.717300 0.331620 -0.530472
O11   O     O_R   0.957170 0.217300 0.668380 -0.529947
O12   O     O_R   0.042830 0.217300 0.331620 -0.530473
O13   O     O_R   0.320870 0.624890 0.673130 -0.510200
O14   O     O_R   0.679130 0.624890 0.326870 -0.510298
O15   O     O_R   0.820870 0.124890 0.673130 -0.510200
O16   O     O_R   0.179130 0.124890 0.326870 -0.510299
O17   O     O_3   0.334430 0.834430 0.749680 -0.282895
O18   O     O_3   0.665570 0.834430 0.250320 -0.281477
O19   O     O_3   0.834430 0.334430 0.749680 -0.282898
O20   O     O_3   0.165570 0.334430 0.250320 -0.281481
O21   O     O_R   0.236050 0.959150 0.825270 -0.520995
O22   O     O_R   0.763950 0.959150 0.174730 -0.518746
O23   O     O_R   0.736050 0.459150 0.825270 -0.520988
O24   O     O_R   0.263950 0.459150 0.174730 -0.518749
O25   O     O_R   0.332100 0.076650 0.832310 -0.533801
O26   O     O_R   0.667900 0.076650 0.167690 -0.535345
O27   O     O_R   0.832100 0.576650 0.832310 -0.533799
O28   O     O_R   0.167900 0.576650 0.167690 -0.535348
O29   O     O_R   0.446500 0.918620 0.826240 -0.526824
O30   O     O_R   0.553500 0.918620 0.173760 -0.528575
O31   O     O_R   0.946500 0.418620 0.826240 -0.526812
O32   O     O_R   0.053500 0.418620 0.173760 -0.528585
O33   O     O_R   0.457310 0.715830 0.831280 -0.527280
O34   O     O_R   0.542690 0.715830 0.168720 -0.528239
O35   O     O_R   0.957310 0.215830 0.831280 -0.527278
O36   O     O_R   0.042690 0.215830 0.168720 -0.528249
O37   O     O_R   0.321000 0.623520 0.824130 -0.538032
O38   O     O_R   0.679000 0.623520 0.175870 -0.535089
O39   O     O_R   0.821000 0.123520 0.824130 -0.538032
O40   O     O_R   0.179000 0.123520 0.175870 -0.535087
O41   O     O_R   0.213990 0.710040 0.667000 -0.552373
O42   O     O_R   0.786010 0.710040 0.333000 -0.552028
O43   O     O_R   0.713990 0.210040 0.667000 -0.552373
O44   O     O_R   0.286010 0.210040 0.333000 -0.552029
O45   O     O_R   0.235920 0.960520 0.674260 -0.513265
O46   O     O_R   0.764080 0.960520 0.325740 -0.512926
O47   O     O_R   0.735920 0.460520 0.674260 -0.513265
O48   O     O_R   0.264080 0.460520 0.325740 -0.512927
O49   O     O_R   0.331960 0.078120 0.669410 -0.533782
O50   O     O_R   0.668040 0.078120 0.330590 -0.533273
O51   O     O_R   0.831960 0.578120 0.669410 -0.533783
O52   O     O_R   0.168040 0.578120 0.330590 -0.533276
C121  C     C_3   0.610370 0.115983 0.034834 -0.343454
H117  H     H_    0.578052 0.078625 0.077084 0.153031
H118  H     H_    0.622020 0.205783 0.052712 0.116048
H119  H     H_    0.577401 0.128098 0.987369 0.155039
C122  C     C_3   0.388549 0.116948 0.964790 -0.343082
H120  H     H_    0.427664 0.068938 0.934608 0.141691
H121  H     H_    0.379695 0.195931 0.932415 0.126897
H122  H     H_    0.412279 0.149938 0.014780 0.157549
C123  C     C_3   0.110368 0.615971 0.034830 -0.343454
H123  H     H_    0.078057 0.578625 0.077090 0.153043
H124  H     H_    0.122015 0.705780 0.052695 0.116038
H125  H     H_    0.077392 0.628064 0.987369 0.155037
C124  C     C_3   0.888546 0.616968 0.964793 -0.343086
H126  H     H_    0.927680 0.568947 0.934645 0.141651
H127  H     H_    0.879698 0.695918 0.932389 0.126927
H128  H     H_    0.912251 0.650006 0.014784 0.157552
O53   O     O_3   0.140219 0.549330 0.893473 -0.573632
C125  C     C_3   0.139050 0.469790 0.834913 -0.017097
H129  H     H_    0.116353 0.385010 0.851663 0.133031
H130  H     H_    0.191106 0.452165 0.813637 0.117302
C126  C     C_3   0.095837 0.520563 0.774377 -0.330834
H131  H     H_    0.122407 0.596300 0.750108 0.174468
H132  H     H_    0.087247 0.452939 0.732477 0.099072
H133  H     H_    0.045794 0.550931 0.794724 0.176961
O54   O     O_3   0.859508 0.544373 0.104368 -0.574922
C127  C     C_3   0.860030 0.464541 0.162494 -0.014149
H134  H     H_    0.883724 0.380586 0.145890 0.136585
H135  H     H_    0.807738 0.445559 0.182711 0.113018
C128  C     C_3   0.901968 0.515646 0.224058 -0.331239
H136  H     H_    0.874504 0.590427 0.248443 0.174663
H137  H     H_    0.910460 0.447764 0.265628 0.097757
H138  H     H_    0.952099 0.547357 0.204709 0.177772
O55   O     O_3   0.640217 0.049333 0.893477 -0.573635
C129  C     C_3   0.639046 0.969792 0.834918 -0.017095
H139  H     H_    0.616347 0.885014 0.851669 0.133039
H140  H     H_    0.691102 0.952163 0.813642 0.117299
C130  C     C_3   0.595833 0.020566 0.774382 -0.330833
H141  H     H_    0.622404 0.096303 0.750112 0.174467
H142  H     H_    0.587242 0.952943 0.732482 0.099077
H143  H     H_    0.545791 0.050937 0.794729 0.176957
O56   O     O_3   0.359506 0.044370 0.104368 -0.574931
C131  C     C_3   0.360028 0.964541 0.162496 -0.014162
H144  H     H_    0.383721 0.880584 0.145893 0.136588
H145  H     H_    0.307737 0.945563 0.182715 0.113026
C132  C     C_3   0.401969 0.015648 0.224057 -0.331241
H146  H     H_    0.374509 0.090438 0.248436 0.174671
H147  H     H_    0.410459 0.947773 0.265631 0.097759
H148  H     H_    0.452101 0.047350 0.204705 0.177771
C133  C     C_3   0.142882 0.749826 0.419045 -0.397267
H149  H     H_    0.176688 0.778655 0.375329 0.152676
H150  H     H_    0.093531 0.723576 0.393490 0.144909
H151  H     H_    0.129398 0.824481 0.454155 0.098256
C134  C     C_3   0.857123 0.749887 0.581380 -0.397118
H152  H     H_    0.823162 0.779021 0.624956 0.152225
H153  H     H_    0.906317 0.723596 0.607122 0.145139
H154  H     H_    0.870899 0.824378 0.546423 0.098286
C135  C     C_3   0.642880 0.249831 0.419046 -0.397263
H155  H     H_    0.676675 0.278648 0.375317 0.152689
H156  H     H_    0.593521 0.223590 0.393512 0.144883
H157  H     H_    0.629414 0.324497 0.454153 0.098253
C136  C     C_3   0.357129 0.249882 0.581378 -0.397103
H158  H     H_    0.323176 0.279015 0.624964 0.152232
H159  H     H_    0.406329 0.223588 0.607107 0.145123
H160  H     H_    0.370897 0.324379 0.546421 0.098281
C137  C     C_3   0.370072 0.493137 0.084349 -0.399145
H161  H     H_    0.368352 0.411438 0.116393 0.172851
H162  H     H_    0.416379 0.483083 0.050999 0.107485
H163  H     H_    0.374768 0.568100 0.121829 0.141910
C138  C     C_3   0.626486 0.510798 0.914517 -0.398597
H164  H     H_    0.627241 0.443758 0.871678 0.174408
H165  H     H_    0.582686 0.483673 0.947949 0.107560
H166  H     H_    0.617605 0.597497 0.889737 0.139214
C139  C     C_3   0.870072 0.993128 0.084349 -0.399145
H167  H     H_    0.868356 0.911415 0.116380 0.172837
H168  H     H_    0.916381 0.983099 0.051001 0.107489
H169  H     H_    0.874763 0.068072 0.121842 0.141912
C140  C     C_3   0.126480 0.010839 0.914515 -0.398602
H170  H     H_    0.127233 0.943843 0.871651 0.174407
H171  H     H_    0.082684 0.983677 0.947942 0.107568
H172  H     H_    0.117593 0.097561 0.889768 0.139210

loop_
_geom_bond_atom_site_label_1
_geom_bond_atom_site_label_2
_ccdc_geom_bond_type
C4    O24   A    
C89   O37   A    
C135  H155  S    
C82   C94   S    
C55   C59   S    
C62   C134  S    
C18   C124  S    
C91   O39   A    
C73   C93   S    
C42   C58   S    
C29   C89   S    
C130  H141  S    
C48   O36   A    
C75   C95   S    
C48   C120  S    
Cr5   O25   S    
O55   C129  S    
C24   H8    S    
C57   C102  S    
Cr6   O30   S    
C20   C122  S    
Cr7   O19   S    
C59   C104  S    
C72   H62   S    
C5    C6    S    
Cr11  O19   S    
C22   C38   S    
C17   C123  S    
C30   C38   S    
C77   C100  S    
C9    C13   S    
C140  H172  S    
C75   H75   S    
C12   C16   S    
C101  O9    A    
C95   H87   S    
C127  H134  S    
C21   H5    S    
C36   O56   S    
C60   C103  S    
C41   H21   S    
C100  O48   A    
C138  H166  S    
C92   O4    A    
C71   C87   S    
C113  H1    S    
C23   H11   S    
C55   H36   S    
C134  H153  S    
C47   O31   A    
C109  C118  S    
Cr8   O52   S    
C63   C67   S    
C48   O32   A    
C136  H160  S    
C94   H82   S    
C50   C53   S    
C63   H51   S    
C7    C119  S    
C71   H91   S    
C139  H169  S    
Cr1   O17   S    
C62   C66   S    
C131  H144  S    
C13   H105  S    
C20   C28   S    
C121  H117  S    
C73   H69   S    
Cr4   O20   S    
C101  O5    A    
C43   C44   S    
C66   C82   S    
C90   O2    A    
C11   C27   S    
C127  C128  S    
C58   C101  S    
C132  H148  S    
C65   H57   S    
C135  H157  S    
C45   O29   A    
C66   H54   S    
C54   H33   S    
C130  H143  S    
C121  H119  S    
C11   H99   S    
C125  C126  S    
Cr5   O17   S    
C61   H49   S    
C3    C26   S    
C84   C88   S    
Cr7   O27   S    
Cr4   O44   S    
C131  C132  S    
C96   H84   S    
C17   C25   S    
C54   H42   S    
Cr9   O37   S    
C19   C35   S    
C137  H161  S    
C76   C96   S    
C129  C130  S    
C32   C92   S    
C108  O16   A    
C69   H89   S    
C105  O41   A    
C99   O51   A    
C19   H109  S    
C21   H9    S    
C61   C65   S    
C53   H34   S    
C17   H111  S    
C126  H131  S    
C78   C99   S    
C73   C77   S    
C75   C79   S    
C76   H76   S    
C72   H92   S    
C67   C83   S    
C133  H149  S    
C29   C33   S    
C80   C97   S    
C50   H30   S    
Cr1   O45   S    
C69   C77   S    
C111  C112  S    
Cr2   O42   S    
Cr10  O38   S    
Cr3   O47   S    
Cr11  O35   S    
C4    C25   S    
C53   H41   S    
C7    C8    S    
Cr12  O12   S    
C56   H44   S    
Cr7   O7    S    
C64   C68   S    
C42   H22   S    
C44   C60   S    
Cr9   O9    S    
C124  H127  S    
C1    O21   A    
C11   C139  S    
C39   H19   S    
C106  O14   A    
C49   C57   S    
C40   H20   S    
C93   H85   S    
C38   H14   S    
C125  H130  S    
C52   C60   S    
C46   O30   A    
C61   C77   S    
C122  H121  S    
C90   O38   A    
C110  C114  S    
C49   H29   S    
C43   C59   S    
Cr6   O26   S    
C128  H137  S    
C11   C15   S    
C15   H107  S    
Cr10  O10   S    
C109  H37   S    
Cr11  O15   S    
C123  H124  S    
C81   C105  S    
C30   C34   S    
C44   H24   S    
C6    H78   S    
C10   C14   S    
C137  H163  S    
C75   H71   S    
C129  H139  S    
C102  O10   A    
C20   C36   S    
C7    C116  S    
Cr5   O5    S    
Cr2   O2    S    
C63   C135  S    
C126  H133  S    
C55   H43   S    
C22   H10   S    
C114  H2    S    
C64   C136  S    
Cr6   O6    S    
C47   O35   A    
C113  C117  S    
C133  H151  S    
C115  C119  S    
C74   C78   S    
C46   O34   A    
C85   H93   S    
C29   C37   S    
Cr1   O21   S    
C112  C116  S    
C69   C85   S    
Cr2   O18   S    
C13   H101  S    
Cr3   O23   S    
C21   C25   S    
Cr4   O24   S    
C62   C78   S    
C76   C80   S    
C7    H79   S    
C15   C31   S    
C16   C32   S    
C5    H77   S    
C31   C91   S    
C52   H47   S    
C72   C80   S    
C108  O44   A    
C88   H96   S    
C115  H3    S    
C66   H58   S    
C56   H35   S    
Cr8   O8    S    
C61   C133  S    
C82   C106  S    
C140  H171  S    
Cr7   O51   S    
C64   H52   S    
C68   H56   S    
C70   H64   S    
Cr6   O18   S    
C127  H135  S    
Cr7   O31   S    
Cr4   O48   S    
Cr8   O32   S    
C81   C85   S    
C138  H165  S    
C98   O50   A    
C83   C87   S    
C103  O7    A    
C41   C42   S    
C74   C94   S    
C18   C26   S    
C30   C90   S    
C134  H152  S    
C9    C25   S    
C91   O3    A    
C20   H110  S    
C136  H159  S    
C34   O54   S    
C10   C138  S    
C89   O1    A    
C12   C28   S    
C97   O45   A    
C13   C29   S    
C99   O47   A    
C106  O42   A    
C74   H74   S    
C43   H23   S    
C71   H61   S    
C45   C117  S    
C36   H114  S    
C46   C118  S    
C104  O12   A    
C88   H66   S    
C73   H73   S    
C67   H55   S    
C1    C28   S    
C51   H31   S    
C2    C27   S    
Cr2   O46   S    
C132  H147  S    
Cr3   O43   S    
C116  C120  S    
C52   C55   S    
Cr12  O16   S    
C135  H156  S    
C64   C80   S    
C42   H26   S    
C17   C33   S    
Cr9   O13   S    
C110  C117  S    
C71   C79   S    
C130  H142  S    
C121  H118  S    
C2    O22   A    
C35   H113  S    
C40   H16   S    
C93   H81   S    
C68   C84   S    
C24   C28   S    
C50   H45   S    
C97   O49   A    
C33   O53   S    
C14   H106  S    
C53   C57   S    
C74   H70   S    
C82   C86   S    
C56   C60   S    
C102  O6    A    
C50   C58   S    
C62   H50   S    
Cr5   O49   S    
C65   C81   S    
C38   H18   S    
Cr8   O20   S    
C3    O27   A    
Cr10  O14   S    
C52   H32   S    
C41   H25   S    
C110  H38   S    
Cr12  O36   S    
C87   H95   S    
C44   H28   S    
C31   C35   S    
C87   H65   S    
C32   C36   S    
C134  H154  S    
Cr9   O17   S    
C49   H46   S    
C103  O11   A    
C37   H17   S    
C112  C119  S    
C116  H4    S    
C22   H6    S    
C43   H27   S    
C41   C57   S    
C96   H88   S    
C109  C110  S    
C124  H126  S    
C112  H40   S    
Cr5   O29   S    
C24   H12   S    
C70   H90   S    
C33   H115  S    
C129  H140  S    
O54   C127  S    
Cr2   O22   S    
Cr10  O18   S    
Cr3   O19   S    
C84   C108  S    
C21   C37   S    
Cr4   O4    S    
C122  H120  S    
C22   C26   S    
C15   H103  S    
C16   H104  S    
C5    C114  S    
C70   C78   S    
C95   H83   S    
C128  H136  S    
C79   C98   S    
C10   H98   S    
C92   O40   A    
C3    O23   A    
C63   C79   S    
C123  H123  S    
C23   H7    S    
C137  H162  S    
C67   H59   S    
C2    O26   A    
C68   H60   S    
C49   C54   S    
C94   H86   S    
C9    H97   S    
C51   C56   S    
C84   C96   S    
Cr8   O28   S    
C8    C115  S    
C131  H145  S    
C85   H67   S    
C31   C39   S    
C126  H132  S    
C19   C121  S    
C23   C27   S    
C100  O52   A    
C19   C27   S    
C111  H39   S    
C109  C113  S    
C10   C26   S    
C47   C119  S    
C133  H150  S    
C98   O46   A    
C14   C30   S    
C72   C88   S    
C107  O43   A    
C12   H100  S    
C65   H53   S    
C45   O33   A    
C4    O28   A    
C124  H128  S    
C5    C117  S    
C111  C120  S    
C6    C113  S    
Cr3   O3    S    
C125  H129  S    
Cr12  O20   S    
C81   C93   S    
Cr1   O1    S    
C122  H122  S    
C83   C95   S    
Cr9   O33   S    
C18   C34   S    
C16   H108  S    
C140  H170  S    
C114  C118  S    
C34   H116  S    
C86   H94   S    
C128  H138  S    
Cr11  O11   S    
C51   C59   S    
C51   H48   S    
C70   C86   S    
C14   H102  S    
C8    C120  S    
C138  H164  S    
C54   C58   S    
C123  H125  S    
C1    O25   A    
C12   C140  S    
C35   O55   S    
C107  O15   A    
C76   H72   S    
C69   H63   S    
Cr6   O50   S    
C136  H158  S    
C104  O8    A    
Cr1   O41   S    
Cr10  O34   S    
C8    H80   S    
C139  H167  S    
Cr11  O39   S    
Cr12  O40   S    
C23   C39   S    
C18   H112  S    
C24   C40   S    
C139  H168  S    
C83   C107  S    
C32   C40   S    
C9    C137  S    
O53   C125  S    
C105  O13   A    
C39   H15   S    
O56   C131  S    
C111  C115  S    
C37   H13   S    
C132  H146  S    
C6    C118  S    
C86   H68   S    
