data_mof_unit_23917.cif
_audit_creation_date              2013-03-05T15:50:19-0500
_audit_creation_method            fapswitch 2.2
_symmetry_space_group_name_H-M    P1
_symmetry_Int_Tables_number       1
_space_group_crystal_system       triclinic
_cell_length_a                    12.17848
_cell_length_b                    11.516956
_cell_length_c                    12.610241
_cell_angle_alpha                 92.566815
_cell_angle_beta                  93.386099
_cell_angle_gamma                 88.367529
_cell_volume                      1763.24837461

loop_
_atom_site_label
_atom_site_type_symbol
_atom_site_description
_atom_site_fract_x
_atom_site_fract_y
_atom_site_fract_z
_atom_type_partial_charge
O1    O     O_R   0.578300 0.494420 0.341180 -0.604164
O2    O     O_R   0.421700 0.505580 0.658820 -0.613059
O3    O     O_R   0.390690 0.507830 0.353590 -0.656220
O4    O     O_R   0.609310 0.492170 0.646410 -0.663402
C1    C     C_R   0.478608 0.509423 0.298294 0.870197
C2    C     C_R   0.520021 0.477332 0.697501 0.902523
O5    O     O_R   0.593810 0.327740 0.493800 -0.612309
O6    O     O_R   0.406190 0.672260 0.506200 -0.606686
O7    O     O_R   0.406190 0.341150 0.506220 -0.619944
O8    O     O_R   0.593810 0.658850 0.493780 -0.624071
C3    C     C_R   0.498148 0.282362 0.497524 0.878182
C4    C     C_R   0.501612 0.717574 0.500066 0.901706
Zn1   Zn    Zn3+2 0.625270 0.491050 0.491710 0.905974
Zn2   Zn    Zn3+2 0.374730 0.508950 0.508290 0.906414
C5    C     C_1   0.495608 0.161708 0.496162 -0.203523
C6    C     C_1   0.503961 0.838055 0.498321 -0.200755
C7    C     C_1   0.497562 0.059291 0.496038 -0.005098
C8    C     C_1   0.501892 0.940404 0.496959 -0.006842
C9    C     C_R   0.527751 0.429522 0.804286 -0.225942
C10   C     C_R   0.465002 0.514992 0.181640 -0.212684
C11   C     C_R   0.342396 0.465962 0.028136 0.482373
C12   C     C_R   0.629236 0.388527 0.967060 0.477798
C13   C     C_R   0.358919 0.520678 0.129862 0.010738
C14   C     C_R   0.628728 0.393119 0.855764 0.012479
C15   C     C_R   0.557391 0.494144 0.120546 0.132926
C16   C     C_R   0.429684 0.411036 0.856846 0.148112
C17   C     C_R   0.540967 0.442817 0.018715 -0.160005
C18   C     C_R   0.434734 0.436034 0.968049 -0.136556
N1    N     N_R   0.792200 0.479100 0.480660 -0.134990
N2    N     N_R   0.207800 0.520900 0.519340 -0.134840
C19   C     C_R   0.058588 0.590208 0.621133 0.103627
C20   C     C_R   0.943247 0.421631 0.376763 0.096525
C21   C     C_R   0.169851 0.588592 0.598920 -0.091953
C22   C     C_R   0.832704 0.414884 0.399788 -0.088631
C23   C     C_R   0.137839 0.456472 0.451297 0.229793
C24   C     C_R   0.861158 0.546118 0.549129 0.235493
C25   C     C_R   0.020752 0.471846 0.455251 -0.047535
C26   C     C_R   0.979325 0.536274 0.544432 -0.011288
H1    H     H_    0.775182 0.369827 0.344843 0.157378
H2    H     H_    0.230142 0.632536 0.651722 0.152700
C27   C     C_3   0.335276 0.346341 0.796959 -0.336271
C28   C     C_3   0.375319 0.228587 0.751234 -0.900077
H3    H     H_    0.444636 0.238563 0.699920 0.261060
H4    H     H_    0.403484 0.171632 0.816847 0.246188
H5    H     H_    0.307198 0.185785 0.703369 0.250812
H6    H     H_    0.269846 0.324682 0.847200 0.241274
H7    H     H_    0.293368 0.397776 0.733860 0.236719
C29   C     C_3   0.669835 0.544844 0.153854 -0.299064
C30   C     C_3   0.661614 0.674767 0.184443 -0.882619
H8    H     H_    0.621708 0.722885 0.117494 0.252016
H9    H     H_    0.613789 0.691455 0.255954 0.269382
H10   H     H_    0.745471 0.708595 0.202384 0.242237
H11   H     H_    0.711669 0.496591 0.218548 0.221227
H12   H     H_    0.726554 0.537203 0.088003 0.202244
C31   C     C_3   0.728101 0.360290 0.791172 -0.354424
C32   C     C_3   0.822084 0.290114 0.844936 -0.835004
H13   H     H_    0.859658 0.340685 0.913841 0.291798
H14   H     H_    0.792970 0.205443 0.869189 0.276112
H15   H     H_    0.886915 0.271800 0.787674 0.227039
H16   H     H_    0.699427 0.308034 0.719052 0.222293
H17   H     H_    0.763149 0.441497 0.765726 0.210202
C33   C     C_3   0.265910 0.594219 0.176920 -0.320862
C34   C     C_3   0.220618 0.687094 0.101686 -0.850189
H18   H     H_    0.288761 0.738915 0.075270 0.250250
H19   H     H_    0.174663 0.647855 0.031098 0.296792
H20   H     H_    0.162819 0.746659 0.143910 0.231524
H21   H     H_    0.198353 0.538754 0.197695 0.190399
H22   H     H_    0.295073 0.643480 0.250203 0.222320
O9    O     O_3   0.236213 0.445315 0.988891 -0.631396
C35   C     C_3   0.201399 0.343461 0.035038 0.062173
H23   H     H_    0.196160 0.356241 0.122320 0.138461
H24   H     H_    0.258874 0.268241 0.019653 0.129635
C36   C     C_3   0.088147 0.312036 0.987514 -0.868322
H25   H     H_    0.088748 0.300391 0.899778 0.248296
H26   H     H_    0.063541 0.228838 0.018985 0.220299
H27   H     H_    0.027762 0.382024 0.008696 0.267569
O10   O     O_3   0.704172 0.319982 0.024668 -0.624976
C37   C     C_3   0.651911 0.214379 0.041803 0.110666
H28   H     H_    0.624055 0.170210 0.964744 0.139444
H29   H     H_    0.579565 0.229962 0.091209 0.135525
C38   C     C_3   0.731003 0.131799 0.100282 -0.874106
H30   H     H_    0.750220 0.167547 0.182089 0.256032
H31   H     H_    0.692020 0.046417 0.105676 0.213412
H32   H     H_    0.807554 0.118475 0.057179 0.256270
C39   C     C_3   0.810085 0.641047 0.618483 -0.367081
C40   C     C_3   0.829688 0.762183 0.578933 -0.891734
H33   H     H_    0.918474 0.778293 0.573687 0.253014
H34   H     H_    0.788694 0.771382 0.498581 0.277522
H35   H     H_    0.794430 0.829393 0.633956 0.247045
H36   H     H_    0.722720 0.634170 0.620060 0.274902
H37   H     H_    0.831345 0.631721 0.703452 0.179589
C41   C     C_3   0.186601 0.353926 0.389201 -0.354355
C42   C     C_3   0.166711 0.239430 0.440707 -0.851262
H38   H     H_    0.201447 0.242052 0.524206 0.267847
H39   H     H_    0.077341 0.222873 0.440108 0.264352
H40   H     H_    0.207430 0.166626 0.396036 0.240241
H41   H     H_    0.161740 0.349282 0.305179 0.162995
H42   H     H_    0.273819 0.362102 0.382155 0.260117
C43   C     C_3   0.038371 0.636845 0.733685 -0.418789
C44   C     C_3   0.011518 0.538619 0.804317 -0.859977
H43   H     H_    0.946466 0.483395 0.765956 0.252634
H44   H     H_    0.086379 0.483106 0.818595 0.291631
H45   H     H_    0.984471 0.574905 0.881854 0.254601
H46   H     H_    0.113398 0.676801 0.772613 0.198207
H47   H     H_    0.979777 0.711299 0.737046 0.215329
C45   C     C_3   0.963258 0.399295 0.259841 -0.375207
C46   C     C_3   0.962599 0.269568 0.226440 -0.868267
H48   H     H_    0.046043 0.228924 0.229624 0.254058
H49   H     H_    0.911043 0.220486 0.277636 0.253433
H50   H     H_    0.928457 0.259495 0.143277 0.273188
H51   H     H_    0.895331 0.442535 0.212523 0.197975
H52   H     H_    0.035252 0.444482 0.234161 0.181196

loop_
_geom_bond_atom_site_label_1
_geom_bond_atom_site_label_2
_geom_bond_distance
_ccdc_geom_bond_type
C31   C32   1.525642 S    
C34   H19   1.108746 S    
C42   H38   1.110779 S    
C36   H26   1.108996 S    
C27   C28   1.528069 S    
C38   H30   1.107881 S    
C39   H37   1.096630 S    
C41   H42   1.078229 S    
C1    C10   1.474642 S    
C45   H52   1.104124 S    
O10   C37   1.419461 S    
C14   C31   1.527676 S    
C29   H12   1.110044 S    
C2    C9    1.474382 S    
N1    C24   1.392150 A    
C25   C26   1.428562 A    
C33   H21   1.106335 S    
O1    C1    1.309665 A    
Zn1   N1    2.046232 S    
C23   C25   1.435393 A    
C37   H29   1.114656 S    
C45   C46   1.534152 S    
C32   H13   1.107473 S    
C36   H25   1.108927 S    
O4    Zn1   1.971288 S    
C9    C16   1.425356 A    
C44   H43   1.105456 S    
C3    C5    1.390108 S    
C13   C33   1.527163 S    
C4    C6    1.389867 S    
C30   H9    1.108828 S    
C27   H6    1.087981 S    
C19   C21   1.399214 A    
C35   H23   1.109238 S    
C19   C43   1.526103 S    
C23   C41   1.514187 S    
C43   H46   1.112805 S    
C34   H20   1.110699 S    
C42   H39   1.109832 S    
C20   C45   1.518014 S    
C31   H16   1.112068 S    
C46   H49   1.109661 S    
O2    C2    1.304051 A    
C28   H4    1.111203 S    
Zn2   N2    2.046232 S    
C38   H31   1.110583 S    
C41   H41   1.084016 S    
C45   H51   1.110502 S    
C29   H11   1.099689 S    
C43   H47   1.100781 S    
C21   H2    1.082523 S    
C22   H1    1.082241 S    
O4    C2    1.315281 A    
C40   H33   1.108578 S    
C39   C40   1.532138 S    
N1    C22   1.342161 A    
C40   H35   1.110454 S    
C44   H45   1.110296 S    
C11   O9    1.380245 S    
C28   H5    1.110432 S    
C20   C22   1.398880 A    
O5    C3    1.294583 A    
O7    Zn2   1.958743 S    
C33   C34   1.530978 S    
C43   C44   1.525053 S    
C10   C13   1.413878 A    
O6    C4    1.295217 A    
C30   H10   1.110593 S    
C35   C36   1.517836 S    
C44   H44   1.109091 S    
C7    C8    1.369273 S    
C27   H7    1.105235 S    
C20   C25   1.440305 A    
O7    C3    1.299723 A    
C15   C29   1.532395 S    
O3    Zn2   1.971288 S    
O8    C4    1.298806 A    
N2    C23   1.380359 A    
C29   C30   1.530388 S    
C11   C18   1.418696 A    
C42   H40   1.110531 S    
C12   C17   1.406687 A    
C11   C13   1.409777 A    
C36   H27   1.109954 S    
C12   C14   1.406472 A    
O1    Zn1   1.951671 S    
C28   H3    1.105102 S    
C46   H48   1.105972 S    
C38   H32   1.110109 S    
C5    C7    1.179030 T    
O6    Zn2   1.931765 S    
N2    C21   1.338890 A    
C37   H28   1.115675 S    
C12   O10   1.384123 S    
O3    C1    1.312791 A    
O8    Zn1   1.958745 S    
C39   H36   1.070590 S    
C32   H15   1.110632 S    
C24   C39   1.512248 S    
C15   C17   1.395279 A    
C16   C18   1.416954 A    
C19   C26   1.457123 A    
C33   H22   1.108049 S    
C24   C26   1.444833 A    
C9    C14   1.417795 A    
C37   C38   1.517508 S    
C31   H17   1.107104 S    
C41   C42   1.527361 S    
C46   H50   1.107456 S    
C32   H14   1.108781 S    
C40   H34   1.110865 S    
O9    C35   1.418828 S    
O2    Zn2   1.951670 S    
C34   H18   1.111102 S    
O5    Zn1   1.931764 S    
C6    C8    1.179176 T    
C30   H8    1.110917 S    
C10   C15   1.409832 A    
C17   C18   1.411302 A    
C35   H24   1.115569 S    
C16   C27   1.530754 S    
