data_mof_unit_42012.cif
_audit_creation_date              2012-12-10T17:11:31-0500
_audit_creation_method            fapswitch 2.2
_symmetry_space_group_name_H-M    P1
_symmetry_Int_Tables_number       1
_space_group_crystal_system       triclinic
_cell_length_a                    15.016756
_cell_length_b                    13.030938
_cell_length_c                    11.752176
_cell_angle_alpha                 99.288071
_cell_angle_beta                  94.088147
_cell_angle_gamma                 90.860734
_cell_volume                      2262.94675696

loop_
_atom_site_label
_atom_site_type_symbol
_atom_type_description
_atom_site_fract_x
_atom_site_fract_y
_atom_site_fract_z
_atom_type_partial_charge
C1    C     C_R   0.496755 0.299946 0.479650 0.928477
C2    C     C_R   0.502567 0.700256 0.519971 0.859535
C3    C     C_R   0.050260 0.319317 0.535200 0.060444
C4    C     C_R   0.947825 0.660312 0.420138 0.050463
C5    C     C_R   0.513094 0.812424 0.525745 -0.229749
C6    C     C_R   0.485999 0.187933 0.471304 -0.185481
C7    C     C_R   0.392731 0.031558 0.417729 0.129939
C8    C     C_R   0.606973 0.968731 0.572858 0.207941
C9    C     C_R   0.408620 0.137485 0.413878 0.004970
C10   C     C_R   0.592285 0.863744 0.577911 -0.012673
C11   C     C_R   0.546791 0.134863 0.534817 0.442983
C12   C     C_R   0.451408 0.864391 0.460900 0.426238
C13   C     C_R   0.538783 0.025880 0.524829 -0.116960
C14   C     C_R   0.460251 0.973506 0.467090 -0.097039
C15   C     C_R   0.420026 0.395760 0.023326 0.327261
C16   C     C_R   0.580588 0.603223 0.976672 0.332195
C17   C     C_R   0.422242 0.412713 0.145667 0.549783
C18   C     C_R   0.579068 0.585431 0.854182 0.542841
C19   C     C_R   0.537459 0.541698 0.157754 0.251436
C20   C     C_R   0.462540 0.458215 0.842227 0.245554
C21   C     C_R   0.529903 0.537097 0.034218 -0.238597
C22   C     C_R   0.470169 0.462527 0.965780 -0.237203
C23   C     C_R   0.329198 0.501358 0.500176 0.863125
C24   C     C_R   0.670925 0.496688 0.499838 0.853218
C25   C     C_R   0.810952 0.572750 0.456491 -0.289313
C26   C     C_R   0.188226 0.413585 0.517795 -0.290494
C27   C     C_R   0.767537 0.494332 0.500011 -0.189507
C28   C     C_R   0.232948 0.502966 0.500400 -0.192880
C29   C     C_R   0.815603 0.415183 0.542849 0.462453
C30   C     C_R   0.186452 0.592050 0.481500 0.457358
C31   C     C_R   0.908976 0.410518 0.532462 -0.106450
C32   C     C_R   0.091967 0.588209 0.471487 -0.101388
C33   C     C_R   0.953247 0.495042 0.494932 -0.098748
C34   C     C_R   0.046809 0.497886 0.494518 -0.099145
C35   C     C_R   0.903910 0.576563 0.457258 0.072343
C36   C     C_R   0.095261 0.410044 0.516554 0.064964
C37   C     C_R   0.958819 0.323545 0.556291 0.471660
C38   C     C_R   0.041706 0.671352 0.438363 0.462470
Cu1   Cu    Cu3+1 0.506660 0.507730 0.615930 0.981980
Cu2   Cu    Cu3+1 0.493340 0.492270 0.384070 1.013518
H1    H     H_    0.771253 0.633386 0.426779 0.180874
H2    H     H_    0.227153 0.347531 0.534621 0.181282
N1    N     N_R   0.516670 0.519360 0.790130 -0.248572
N2    N     N_R   0.483330 0.480640 0.209870 -0.246500
O1    O     O_R   0.504720 0.354460 0.582000 -0.573233
O2    O     O_R   0.495280 0.645540 0.418000 -0.561626
O3    O     O_R   0.493480 0.341410 0.386200 -0.537353
O4    O     O_R   0.506520 0.658590 0.613800 -0.572675
O5    O     O_R   0.375880 0.506510 0.597910 -0.583740
O6    O     O_R   0.624120 0.493490 0.402090 -0.572225
O7    O     O_R   0.364640 0.493450 0.402110 -0.533555
O8    O     O_R   0.635360 0.506550 0.597890 -0.551911
O9    O     O_3   0.367890 0.314275 0.961664 -0.596405
C39   C     C_3   0.413079 0.220587 0.966090 -0.357469
H3    H     H_    0.413605 0.198501 0.053604 0.202487
H4    H     H_    0.482602 0.225249 0.939599 0.138211
H5    H     H_    0.376987 0.157559 0.904551 0.180641
O10   O     O_3   0.632550 0.684825 0.038340 -0.595822
C40   C     C_3   0.586685 0.778130 0.034412 -0.365134
H6    H     H_    0.518836 0.774118 0.066358 0.139087
H7    H     H_    0.581997 0.798103 0.945732 0.191560
H8    H     H_    0.624771 0.842216 0.091973 0.190189
O11   O     O_3   0.769910 0.338872 0.586503 -0.505116
C41   C     C_3   0.768437 0.367314 0.707815 -0.169879
H9    H     H_    0.824190 0.421229 0.749221 0.077183
H10   H     H_    0.772953 0.295986 0.747660 0.179713
H11   H     H_    0.703892 0.402008 0.729867 0.174433
O12   O     O_3   0.233530 0.681695 0.470617 -0.506323
C42   C     C_3   0.262832 0.734383 0.582183 -0.212125
H12   H     H_    0.212989 0.731097 0.647508 0.099620
H13   H     H_    0.275116 0.817623 0.577210 0.200340
H14   H     H_    0.326746 0.703092 0.612784 0.149695
O13   O     O_3   0.916600 0.239223 0.590142 -0.529698
C43   C     C_3   0.947041 0.232024 0.705377 -0.303025
H15   H     H_    0.948215 0.308529 0.763610 0.131983
H16   H     H_    0.014219 0.198181 0.710447 0.170029
H17   H     H_    0.900766 0.178944 0.739003 0.181645
O14   O     O_3   0.084702 0.759595 0.414898 -0.532926
C44   C     C_3   0.073522 0.843159 0.505366 -0.268244
H18   H     H_    0.085740 0.820797 0.592539 0.130422
H19   H     H_    0.005901 0.875709 0.497734 0.164006
H20   H     H_    0.122537 0.906178 0.499084 0.187244
N3    N     N_3   0.097444 0.223117 0.530033 -0.611196
H21   H     H_    0.053059 0.160008 0.526204 0.245797
H22   H     H_    0.125319 0.209102 0.450130 0.198442
N4    N     N_3   0.896526 0.733128 0.363757 -0.596721
H23   H     H_    0.937894 0.784141 0.330325 0.253058
H24   H     H_    0.861578 0.690676 0.290602 0.216560
O15   O     O_3   0.380190 0.808081 0.397313 -0.517088
C45   C     C_3   0.394955 0.793001 0.278128 -0.195385
H25   H     H_    0.436954 0.724976 0.254967 0.161362
H26   H     H_    0.425577 0.862055 0.249589 0.112224
H27   H     H_    0.329614 0.775988 0.227776 0.184436
O16   O     O_3   0.613332 0.191084 0.607735 -0.510201
C46   C     C_3   0.590240 0.200882 0.723997 -0.275247
H28   H     H_    0.531597 0.152052 0.738219 0.116453
H29   H     H_    0.576635 0.283274 0.756660 0.173423
H30   H     H_    0.648077 0.179267 0.778386 0.158009
N5    N     N_3   0.660912 0.809976 0.633355 -0.595886
H31   H     H_    0.675708 0.741827 0.578716 0.229602
H32   H     H_    0.636475 0.791982 0.708604 0.284492
N6    N     N_3   0.343725 0.196387 0.358193 -0.546194
H33   H     H_    0.333111 0.162447 0.271324 0.238110
H34   H     H_    0.283729 0.194001 0.397567 0.197233
N7    N     N_3   0.306805 0.984629 0.376670 -0.516521
H35   H     H_    0.258075 0.023342 0.425157 0.209412
H36   H     H_    0.293605 0.992173 0.289936 0.204397
N8    N     N_3   0.692965 0.016051 0.612855 -0.490065
H37   H     H_    0.741256 0.976139 0.564533 0.242593
H38   H     H_    0.706487 0.007979 0.699443 0.216823
N9    N     N_3   0.397463 0.392129 0.769249 -0.495380
H39   H     H_    0.333900 0.407753 0.797573 0.243039
H40   H     H_    0.412830 0.314296 0.769186 0.237763
N10   N     N_3   0.603367 0.606793 0.230534 -0.502631
H41   H     H_    0.589159 0.684960 0.230995 0.236524
H42   H     H_    0.666680 0.590121 0.201876 0.238174
O17   O     O_3   0.635274 0.640750 0.796528 -0.574295
C47   C     C_3   0.726001 0.630795 0.833683 -0.287868
H43   H     H_    0.766265 0.626031 0.757511 0.173358
H44   H     H_    0.739562 0.560160 0.873778 0.119018
H45   H     H_    0.749663 0.701333 0.895070 0.207292
O18   O     O_3   0.367599 0.354269 0.201936 -0.543564
C48   C     C_3   0.277762 0.382054 0.182919 -0.260051
H46   H     H_    0.248419 0.343376 0.097134 0.187719
H47   H     H_    0.269992 0.467907 0.192062 0.149117
H48   H     H_    0.238426 0.354388 0.248983 0.179250

loop_
_geom_bond_atom_site_label_1
_geom_bond_atom_site_label_2
_ccdc_geom_bond_type
C24   O8    A    
Cu2   O3    S    
C29   O11   S    
C8    C13   A    
C27   C29   A    
O13   C43   S    
C46   H28   S    
C24   C27   S    
C6    C9    A    
N10   H41   S    
C46   H30   S    
C48   H46   S    
O9    C39   S    
C2    O2    A    
Cu2   O2    S    
N7    H36   S    
C16   C21   A    
C43   H16   S    
C15   O9    S    
C19   C21   A    
N4    H24   S    
C23   O5    A    
C4    N4    S    
N8    H37   S    
C15   C17   A    
C42   H13   S    
C47   H43   S    
O12   C42   S    
C23   O7    A    
C15   C22   A    
N3    H21   S    
C9    N6    S    
C43   H17   S    
C31   C33   A    
C32   C38   A    
N3    H22   S    
Cu1   O1    S    
Cu1   O8    S    
C4    C35   A    
C40   H6    S    
C21   C22   A    
C42   H12   S    
C8    N8    S    
C7    C14   A    
C24   O6    A    
C39   H4    S    
C40   H7    S    
C43   H15   S    
N6    H33   S    
C41   H11   S    
C12   O15   S    
C44   H18   S    
C5    C12   A    
C25   H1    S    
Cu1   Cu2   S    
C44   H19   S    
N4    H23   S    
C1    O3    A    
C48   H48   S    
Cu1   N1    S    
C38   O14   S    
C19   N10   S    
C2    O4    A    
O10   C40   S    
C1    C6    S    
C47   H45   S    
C41   H10   S    
C42   H14   S    
C20   N9    S    
C45   H26   S    
N5    H31   S    
C7    N7    S    
C33   C34   A    
O16   C46   S    
N9    H40   S    
C16   C18   A    
C16   O10   S    
C23   C28   S    
N6    H34   S    
C18   O17   S    
C25   C35   A    
C11   O16   S    
C26   C36   A    
N5    H32   S    
C12   C14   A    
C3    N3    S    
C2    C5    S    
C6    C11   A    
C20   N1    A    
C19   N2    A    
C26   H2    S    
C45   H27   S    
C7    C9    A    
C37   O13   S    
C39   H3    S    
C40   H8    S    
N9    H39   S    
Cu1   O5    S    
O14   C44   S    
C20   C22   A    
C44   H20   S    
N10   H42   S    
C46   H29   S    
C25   C27   A    
Cu2   O7    S    
N7    H35   S    
C26   C28   A    
C41   H9    S    
C28   C30   A    
O15   C45   S    
C17   N2    A    
C5    C10   A    
C29   C31   A    
O17   C47   S    
C30   C32   A    
C11   C13   A    
C1    O1    A    
C45   H25   S    
C3    C36   A    
Cu2   O6    S    
C33   C35   A    
N8    H38   S    
C34   C36   A    
C10   N5    S    
C47   H44   S    
C48   H47   S    
O11   C41   S    
C31   C37   A    
C17   O18   S    
Cu2   N2    S    
C3    C37   A    
C8    C10   A    
C18   N1    A    
C4    C38   A    
O18   C48   S    
C13   C14   A    
C30   O12   S    
C32   C34   A    
Cu1   O4    S    
C39   H5    S    
