data_mof_unit_18703.cif
_audit_creation_date              2012-12-11T16:30:34-0500
_audit_creation_method            fapswitch 2.2
_symmetry_space_group_name_H-M    P1
_symmetry_Int_Tables_number       1
_space_group_crystal_system       triclinic
_cell_length_a                    6.938425
_cell_length_b                    14.383985
_cell_length_c                    16.18396
_cell_angle_alpha                 89.999958
_cell_angle_beta                  89.810326
_cell_angle_gamma                 90.000011
_cell_volume                      1615.18598046

loop_
_atom_site_label
_atom_site_type_symbol
_atom_type_description
_atom_site_fract_x
_atom_site_fract_y
_atom_site_fract_z
_atom_type_partial_charge
O1    O     O_R   0.611670 0.415650 0.164070 -0.523864
O2    O     O_R   0.388330 0.915650 0.835930 -0.523864
O3    O     O_R   0.940950 0.405490 0.337780 -0.541135
O4    O     O_R   0.059050 0.905490 0.662220 -0.541135
O5    O     O_R   0.111350 0.584350 0.338470 -0.491930
O6    O     O_R   0.888650 0.084350 0.661530 -0.491930
C1    C     C_R   0.771229 0.383320 0.367202 0.857198
C2    C     C_R   0.228771 0.883320 0.632798 0.857198
O7    O     O_R   0.941380 0.404630 0.164680 -0.547684
O8    O     O_R   0.058620 0.904630 0.835320 -0.547684
O9    O     O_R   0.111780 0.583470 0.164130 -0.545493
O10   O     O_R   0.888220 0.083470 0.835870 -0.545492
C3    C     C_R   0.771813 0.380140 0.137766 0.793291
C4    C     C_R   0.228187 0.880140 0.862234 0.793292
O11   O     O_R   0.611240 0.416530 0.338400 -0.529744
O12   O     O_R   0.388760 0.916530 0.661600 -0.529744
O13   O     O_3   0.778020 0.558680 0.251290 -0.365747
O14   O     O_3   0.221980 0.058680 0.748710 -0.365747
V1    V     V_3+5 0.052840 0.489110 0.251260 1.500741
V2    V     V_3+5 0.947160 0.989110 0.748740 1.500741
O15   O     O_R   0.441500 0.594510 0.164760 -0.544588
O16   O     O_R   0.558500 0.094510 0.835240 -0.544588
C5    C     C_R   0.272482 0.617276 0.136836 0.670407
C6    C     C_R   0.727518 0.117276 0.863164 0.670407
O17   O     O_R   0.441080 0.595370 0.337860 -0.556060
O18   O     O_R   0.558920 0.095370 0.662140 -0.556061
C7    C     C_R   0.271531 0.617145 0.367307 0.767748
C8    C     C_R   0.728468 0.117145 0.632693 0.767748
V3    V     V_3+5 0.552850 0.510890 0.251270 1.479270
V4    V     V_3+5 0.447150 0.010890 0.748730 1.479270
O19   O     O_3   0.277800 0.441320 0.251250 -0.375867
O20   O     O_3   0.722200 0.941320 0.748750 -0.375868
C9    C     C_3   0.124516 0.651808 0.509643 0.163389
C10   C     C_3   0.875484 0.151808 0.490356 0.163388
C11   C     C_3   0.099125 0.729363 0.576730 0.043506
C12   C     C_3   0.900875 0.229363 0.423270 0.043506
H1    H     H_    0.950084 0.756048 0.571992 0.153203
H2    H     H_    0.049916 0.256048 0.428007 0.153203
C13   C     C_3   0.186290 0.784504 0.405778 0.196426
C14   C     C_3   0.813710 0.284504 0.594222 0.196426
C15   C     C_3   0.460024 0.703260 0.476850 -0.476667
C16   C     C_3   0.539976 0.203260 0.523150 -0.476668
C17   C     C_3   0.257729 0.687563 0.437935 -0.100582
C18   C     C_3   0.742271 0.187563 0.562065 -0.100582
H3    H     H_    0.559795 0.731716 0.429149 0.212681
H4    H     H_    0.440205 0.231716 0.570851 0.212681
C19   C     C_3   0.241794 0.812528 0.561810 -0.127081
C20   C     C_3   0.758206 0.312528 0.438190 -0.127081
C21   C     C_3   0.195339 0.859472 0.476276 0.087019
C22   C     C_3   0.804661 0.359472 0.523724 0.087019
C23   C     C_3   0.449945 0.770241 0.552033 0.157373
C24   C     C_3   0.550055 0.270241 0.447967 0.157372
H5    H     H_    0.485709 0.728611 0.607569 0.086626
H6    H     H_    0.514290 0.228612 0.392431 0.086626
H7    H     H_    0.288014 0.807090 0.356334 0.082446
H8    H     H_    0.711986 0.307090 0.643665 0.082447
H9    H     H_    0.317868 0.906413 0.461036 0.160517
H10   H     H_    0.682133 0.406413 0.538964 0.160517
H11   H     H_    0.546788 0.578569 0.776470 0.116378
H12   H     H_    0.453212 0.078569 0.223530 0.116378
C25   C     C_R   0.090584 0.926311 0.025018 -0.155331
C26   C     C_R   0.909416 0.426311 0.974982 -0.155331
C27   C     C_R   0.025579 0.952386 0.103185 -0.127069
C28   C     C_R   0.974421 0.452386 0.896814 -0.127069
C29   C     C_R   0.037313 0.890522 0.168789 -0.110818
C30   C     C_R   0.962688 0.390522 0.831211 -0.110817
C31   C     C_R   0.114478 0.802167 0.156722 -0.140026
C32   C     C_R   0.885522 0.302167 0.843277 -0.140027
C33   C     C_R   0.181109 0.773430 0.077997 0.060060
C34   C     C_R   0.818891 0.273430 0.922003 0.060060
C35   C     C_R   0.169106 0.836662 0.010485 0.041139
C36   C     C_R   0.830894 0.336662 0.989515 0.041140
C37   C     C_R   0.261977 0.683962 0.066562 -0.157168
C38   C     C_R   0.738023 0.183962 0.933438 -0.157168
C39   C     C_R   0.331922 0.657428 0.987704 0.008382
C40   C     C_R   0.668078 0.157428 0.012296 0.008382
C41   C     C_R   0.328311 0.721388 0.919957 0.036889
C42   C     C_R   0.671689 0.221388 0.080043 0.036889
C43   C     C_R   0.240805 0.811098 0.931165 -0.184922
C44   C     C_R   0.759195 0.311098 0.068835 -0.184922
C45   C     C_R   0.404446 0.566456 0.975243 -0.162242
C46   C     C_R   0.595555 0.066456 0.024757 -0.162242
C47   C     C_R   0.478307 0.539022 0.899531 -0.166523
C48   C     C_R   0.521693 0.039022 0.100469 -0.166523
C49   C     C_R   0.485691 0.601428 0.834713 -0.197601
C50   C     C_R   0.514309 0.101428 0.165286 -0.197601
C51   C     C_R   0.413819 0.692360 0.843568 0.363125
C52   C     C_R   0.586180 0.192360 0.156432 0.363125
H13   H     H_    0.081421 0.978188 0.976874 0.114022
H14   H     H_    0.918579 0.478188 0.023126 0.114022
H15   H     H_    0.987826 0.911357 0.229538 0.163540
H16   H     H_    0.012175 0.411357 0.770462 0.163540
H17   H     H_    0.403117 0.514574 0.023598 0.127156
H18   H     H_    0.596883 0.014574 0.976402 0.127156
O21   O     O_3   0.943290 0.623659 0.480178 -0.630571
H19   H     H_    0.874057 0.594941 0.527497 0.316733
O22   O     O_3   0.056710 0.123660 0.519822 -0.630571
H20   H     H_    0.125943 0.094941 0.472503 0.316734
O23   O     O_3   0.587936 0.840879 0.540883 -0.661040
H21   H     H_    0.668469 0.843122 0.591412 0.292274
O24   O     O_3   0.412064 0.340879 0.459116 -0.661040
H22   H     H_    0.331531 0.343122 0.408588 0.292274
H23   H     H_    0.967906 0.021435 0.113096 0.143109
H24   H     H_    0.032095 0.521435 0.886904 0.143110
H25   H     H_    0.123052 0.757083 0.209998 0.140558
H26   H     H_    0.876948 0.257083 0.790002 0.140559
H27   H     H_    0.531344 0.468853 0.891202 0.154247
H28   H     H_    0.468656 0.968852 0.108798 0.154247
H29   H     H_    0.195686 0.589520 0.537040 0.124348
H30   H     H_    0.804314 0.089520 0.462959 0.124348
O25   O     O_3   0.429416 0.752463 0.777818 -0.646854
H31   H     H_    0.533698 0.730217 0.740893 0.267261
O26   O     O_3   0.570583 0.252463 0.222182 -0.646853
H32   H     H_    0.466301 0.230217 0.259107 0.267261
O27   O     O_3   0.114282 0.693016 0.657318 -0.641755
H33   H     H_    0.233140 0.655102 0.660793 0.292175
O28   O     O_3   0.885717 0.193017 0.342682 -0.641755
H34   H     H_    0.766860 0.155102 0.339207 0.292174
O29   O     O_3   0.003819 0.779033 0.368183 -0.628394
H35   H     H_    0.905164 0.770723 0.411770 0.343517
O30   O     O_3   0.996180 0.279033 0.631817 -0.628394
H36   H     H_    0.094836 0.270723 0.588230 0.343516
O31   O     O_3   0.033007 0.918090 0.477165 -0.642850
H37   H     H_    0.926735 0.886111 0.505825 0.311807
O32   O     O_3   0.966993 0.418090 0.522835 -0.642850
H38   H     H_    0.073266 0.386111 0.494175 0.311807
H39   H     H_    0.521812 0.635568 0.497053 0.151042
H40   H     H_    0.478188 0.135568 0.502947 0.151043

loop_
_geom_bond_atom_site_label_1
_geom_bond_atom_site_label_2
_ccdc_geom_bond_type
C30   C32   A    
C27   C29   A    
O24   H22   S    
C46   H18   S    
O13   V3    S    
C15   H39   S    
O21   H19   S    
O4    C2    A    
C11   C19   S    
C35   C43   A    
O22   H20   S    
O31   H37   S    
C19   C21   S    
C14   O30   S    
O9    V1    S    
C16   C18   S    
C11   H1    S    
C48   C50   A    
O3    C1    A    
C50   C52   A    
C51   O25   S    
O12   V4    S    
O27   H33   S    
C21   O31   S    
C10   O22   S    
C21   H9    S    
C25   C27   A    
C16   H4    S    
C52   O26   S    
C33   C35   A    
O7    C3    A    
C26   C28   A    
C9    C11   S    
O5    C7    A    
O7    V1    S    
O6    C8    A    
O25   H31   S    
O8    V2    S    
C29   C31   A    
C34   C38   A    
C33   C37   A    
O14   V4    S    
C48   H28   S    
C10   C12   S    
C16   H40   S    
C25   C35   A    
C20   C22   S    
C3    C44   S    
V1    O19   S    
C2    O12   A    
C29   H15   S    
C23   O23   S    
C15   C17   S    
C32   H26   S    
C5    C37   S    
C9    O21   S    
C45   C47   A    
C25   H13   S    
O11   V3    S    
C41   C43   A    
O17   V3    S    
C13   H7    S    
C24   O24   S    
C49   C51   A    
C9    C17   S    
C10   C18   S    
C27   H23   S    
O8    C4    A    
C40   C46   A    
H12   C50   S    
C31   H25   S    
C19   C23   S    
C1    O11   A    
C14   H8    S    
O15   V3    S    
C8    C18   S    
C36   C44   A    
C23   H5    S    
C28   C30   A    
H11   C49   S    
C45   H17   S    
O23   H21   S    
C14   C18   S    
O10   V2    S    
O1    V3    S    
C42   C44   A    
C26   C36   A    
C14   C22   S    
C22   O32   S    
C4    C43   S    
O3    V1    S    
C12   O28   S    
C39   C41   A    
C41   C51   A    
O30   H36   S    
C38   C40   A    
C22   H10   S    
C13   C21   S    
O18   V4    S    
C46   C48   A    
O15   C5    A    
O32   H38   S    
C10   H30   S    
O16   C6    A    
C9    H29   S    
C37   C39   A    
O26   H32   S    
V2    O20   S    
C42   C52   A    
C28   H24   S    
O16   V4    S    
C47   C49   A    
C39   C45   A    
C40   C42   A    
C30   H16   S    
O29   H35   S    
O5    V1    S    
O17   C7    A    
O6    V2    S    
O10   C6    A    
O18   C8    A    
O2    V4    S    
C1    C20   S    
C12   H2    S    
C2    C19   S    
V3    O19   S    
O28   H34   S    
V4    O20   S    
C6    C38   S    
C13   O29   S    
C26   H14   S    
O9    C5    A    
O13   V1    S    
C47   H27   S    
C24   H6    S    
C12   C20   S    
O14   V2    S    
O2    C4    A    
O4    V2    S    
C7    C17   S    
C20   C24   S    
O1    C3    A    
C11   O27   S    
C13   C17   S    
C32   C34   A    
C15   H3    S    
C34   C36   A    
C31   C33   A    
C15   C23   S    
C16   C24   S    
