data_mof_unit_67513.cif
_audit_creation_date              2013-03-05T15:41:20-0500
_audit_creation_method            fapswitch 2.2
_symmetry_space_group_name_H-M    P1
_symmetry_Int_Tables_number       1
_space_group_crystal_system       triclinic
_cell_length_a                    10.704251
_cell_length_b                    8.869879
_cell_length_c                    7.624675
_cell_angle_alpha                 104.031667
_cell_angle_beta                  95.290533
_cell_angle_gamma                 97.961281
_cell_volume                      689.571616566

loop_
_atom_site_label
_atom_site_type_symbol
_atom_site_description
_atom_site_fract_x
_atom_site_fract_y
_atom_site_fract_z
_atom_type_partial_charge
O1    O     O_R   0.509190 0.286130 0.619780 -0.560396
O2    O     O_R   0.490810 0.713870 0.380220 -0.564370
O3    O     O_R   0.485310 0.256770 0.308360 -0.587974
O4    O     O_R   0.514690 0.743230 0.691640 -0.595073
C1    C     C_R   0.495441 0.200053 0.453313 0.810628
C2    C     C_R   0.505332 0.800081 0.546730 0.805457
O5    O     O_R   0.328790 0.514640 0.655680 -0.546563
O6    O     O_R   0.671210 0.485360 0.344320 -0.553288
O7    O     O_R   0.304910 0.485280 0.344260 -0.525157
O8    O     O_R   0.695090 0.514720 0.655740 -0.534244
C3    C     C_R   0.259148 0.494242 0.498624 0.850326
C4    C     C_R   0.740637 0.505729 0.501209 0.851956
Cu1   Cu    Cu3+1 0.514140 0.517380 0.684380 1.101611
Cu2   Cu    Cu3+1 0.485860 0.482620 0.315620 1.107660
N1    N     N_2   0.464560 0.456420 0.038510 0.031908
N2    N     N_2   0.535440 0.543580 0.961490 0.007621
C5    C     C_3   0.059707 0.548213 0.670410 -0.194890
C6    C     C_3   0.939322 0.452055 0.328358 -0.195391
C7    C     C_3   0.949642 0.406073 0.599382 -0.209889
C8    C     C_3   0.049533 0.594146 0.399454 -0.208909
H1    H     H_    0.909583 0.328342 0.681801 0.208066
H2    H     H_    0.089600 0.672269 0.317463 0.208579
H3    H     H_    0.105460 0.602228 0.811803 0.218561
H4    H     H_    0.892026 0.400663 0.187076 0.218605
C9    C     C_3   0.877496 0.506754 0.501992 -0.160621
C10   C     C_3   0.121824 0.493182 0.496921 -0.162430
C11   C     C_3   0.986033 0.646570 0.571917 0.377833
C12   C     C_3   0.012816 0.353238 0.426609 0.383746
C13   C     C_2   0.471192 0.030517 0.435204 -0.039418
C14   C     C_2   0.529761 0.969628 0.564730 -0.054388
S1    S     S_3+6 0.983714 0.845881 0.683043 0.092030
O9    O     O_2   0.891911 0.909752 0.571724 -0.206824
O10   O     O_2   0.944217 0.855885 0.868457 -0.172611
O11   O     O_3   0.130091 0.951176 0.706102 -0.443491
H5    H     H_    0.189727 0.877036 0.717204 0.288519
S2    S     S_3+6 0.010419 0.152525 0.315908 0.095316
O12   O     O_2   0.048558 0.139079 0.129273 -0.180709
O13   O     O_2   0.100532 0.086067 0.426597 -0.210008
O14   O     O_3   0.862449 0.051945 0.295652 -0.427650
H6    H     H_    0.804722 0.125591 0.274243 0.293076
S3    S     S_3+6 0.316697 0.348879 0.940692 0.163688
O15   O     O_2   0.219882 0.456242 0.963544 -0.274259
O16   O     O_2   0.307096 0.260333 0.744760 -0.261892
O17   O     O_3   0.280087 0.216001 0.058652 -0.442184
H7    H     H_    0.296178 0.115312 0.982315 0.351211
S4    S     S_3+6 0.682069 0.655777 0.061597 0.161690
O18   O     O_2   0.692498 0.738908 0.259201 -0.243894
O19   O     O_2   0.783666 0.555417 0.032507 -0.280668
O20   O     O_3   0.712100 0.796153 0.952468 -0.429868
H8    H     H_    0.658512 0.874058 0.002685 0.332340
C15   C     C_3   0.355141 0.940622 0.300174 -0.325717
C16   C     C_3   0.387709 0.878748 0.108115 -0.736468
H9    H     H_    0.450504 0.970941 0.068012 0.220980
H10   H     H_    0.436260 0.776516 0.098933 0.280314
H11   H     H_    0.298976 0.840375 0.010037 0.232326
H12   H     H_    0.302829 0.843774 0.347114 0.198749
H13   H     H_    0.286822 0.021962 0.290572 0.268243
C17   C     C_3   0.647194 0.060319 0.697110 -0.330336
C18   C     C_3   0.616154 0.153596 0.880203 -0.698096
H14   H     H_    0.647399 0.280985 0.897281 0.276351
H15   H     H_    0.512951 0.131916 0.889650 0.245552
H16   H     H_    0.668994 0.124133 0.995701 0.206434
H17   H     H_    0.708793 0.976479 0.726081 0.270854
H18   H     H_    0.706327 0.139322 0.632590 0.197445

loop_
_geom_bond_atom_site_label_1
_geom_bond_atom_site_label_2
_geom_bond_distance
_ccdc_geom_bond_type
O7    Cu2   1.971831 S    
S1    O10   1.498330 D    
C13   C14   1.377805 D    
C15   H13   1.105702 S    
C8    C11   1.537299 S    
O3    Cu2   1.989738 S    
C9    C11   1.529066 S    
S3    O16   1.496518 D    
S3    O15   1.495804 D    
C1    C13   1.460243 S    
S1    O9    1.496879 D    
C16   H11   1.110522 S    
C4    C9    1.463196 S    
O6    C4    1.307653 A    
S2    O13   1.496272 D    
S1    O11   1.680006 S    
C18   H14   1.105202 S    
C5    H3    1.103998 S    
Cu1   Cu2   2.736610 S    
C16   H9    1.104946 S    
O5    C3    1.309736 A    
C7    C12   1.537856 S    
O7    C3    1.305099 A    
S4    O20   1.669383 S    
N1    S3    1.729273 S    
O2    C2    1.296404 A    
C6    C9    1.537902 S    
C8    C10   1.536777 S    
O1    C1    1.296186 A    
C5    C10   1.539210 S    
O8    C4    1.305171 A    
S2    O12   1.498075 D    
C7    H1    1.109966 S    
C8    H2    1.110008 S    
C15   H12   1.110128 S    
C6    C8    1.553369 S    
C17   H18   1.111498 S    
O2    Cu2   1.981879 S    
S3    O17   1.674130 S    
S4    O19   1.497076 D    
C18   H15   1.106847 S    
O1    Cu1   1.981877 S    
C7    C9    1.533675 S    
C11   S1    1.770180 S    
C15   C16   1.524668 S    
C5    C11   1.531692 S    
C17   H17   1.106895 S    
C14   C17   1.529113 S    
O5    Cu1   1.972019 S    
C6    C12   1.532666 S    
O17   H7    0.987472 S    
C12   S2    1.771223 S    
C6    H4    1.105399 S    
O4    C2    1.322441 A    
O11   H5    0.990167 S    
C13   C15   1.526637 S    
Cu1   N2    2.056358 S    
N2    S4    1.736232 S    
O14   H6    0.990005 S    
O20   H8    0.987487 S    
S4    O18   1.494550 D    
C18   H16   1.106538 S    
O6    Cu2   1.972021 S    
C3    C10   1.467521 S    
C5    C7    1.552636 S    
C17   C18   1.531465 S    
Cu2   N1    2.056358 S    
C10   C12   1.533117 S    
C2    C14   1.460541 S    
S2    O14   1.680820 S    
N1    N2    1.287648 D    
O4    Cu1   1.989739 S    
C16   H10   1.097140 S    
O3    C1    1.322493 A    
O8    Cu1   1.971831 S    
