data_mof_unit_25516.cif
_audit_creation_date              2013-03-05T16:12:14-0500
_audit_creation_method            fapswitch 2.2
_symmetry_space_group_name_H-M    P1
_symmetry_Int_Tables_number       1
_space_group_crystal_system       triclinic
_cell_length_a                    10.723497
_cell_length_b                    9.403448
_cell_length_c                    27.79393
_cell_angle_alpha                 90.191069
_cell_angle_beta                  89.905206
_cell_angle_gamma                 90.02053
_cell_volume                      2802.66045047

loop_
_atom_site_label
_atom_site_type_symbol
_atom_site_description
_atom_site_fract_x
_atom_site_fract_y
_atom_site_fract_z
_atom_type_partial_charge
O1    O     O_R   0.317570 0.620260 0.500030 -0.596478
O2    O     O_R   0.317570 0.379740 0.500030 -0.595790
C1    C     C_R   0.259627 0.500188 0.500074 0.764364
O3    O     O_R   0.499900 0.620250 0.430280 -0.591462
O4    O     O_R   0.499900 0.379750 0.430280 -0.594028
C2    C     C_R   0.499606 0.499685 0.407460 0.811867
Cu1   Cu    Cu3+1 0.499860 0.642410 0.500020 0.893231
Cu2   Cu    Cu3+1 0.499860 0.357590 0.500020 0.893248
O5    O     O_R   0.682190 0.620260 0.500010 -0.596345
O6    O     O_R   0.682190 0.379740 0.500010 -0.596028
O7    O     O_R   0.499860 0.620280 0.569750 -0.591047
O8    O     O_R   0.499860 0.379720 0.569750 -0.588582
C3    C     C_R   0.740133 0.500220 0.500031 0.767034
C4    C     C_R   0.499560 0.500297 0.592566 0.809245
C5    C     C_R   0.386146 0.512394 0.178104 0.512236
O9    O     O_2   0.278827 0.526490 0.203108 -0.545883
N1    N     N_R   0.496648 0.498222 0.202078 -0.471111
C6    C     C_R   0.607480 0.487838 0.177961 0.523374
C7    C     C_R   0.523877 0.620810 0.278750 -0.132175
C8    C     C_R   0.523797 0.622865 0.328758 -0.234935
C9    C     C_R   0.472359 0.371690 0.329475 -0.223024
C10   C     C_R   0.470190 0.368419 0.278810 0.135199
C11   C     C_R   0.496553 0.495430 0.253675 0.333282
C12   C     C_R   0.496885 0.500454 0.101921 -0.044641
C13   C     C_R   0.383966 0.511560 0.127614 -0.015806
C14   C     C_R   0.271687 0.521964 0.102500 -0.150498
C15   C     C_R   0.609800 0.489834 0.127470 -0.018801
C16   C     C_R   0.498498 0.498322 0.354514 -0.071992
H1    H     H_    0.453094 0.276678 0.349918 0.138015
H2    H     H_    0.183743 0.532824 0.121408 0.186149
C17   C     C_R   0.498375 0.501501 0.645512 -0.072483
C18   C     C_R   0.381766 0.493805 0.974587 0.043209
C19   C     C_R   0.611903 0.504058 0.974395 0.043271
C20   C     C_R   0.496791 0.498683 0.949224 0.065998
C21   C     C_R   0.270390 0.478086 0.947837 -0.208549
C22   C     C_R   0.271697 0.473890 0.897865 -0.150680
C23   C     C_R   0.383815 0.485817 0.872576 -0.015791
C24   C     C_R   0.496678 0.498341 0.898094 -0.044651
C25   C     C_R   0.609431 0.510476 0.872371 -0.018848
C26   C     C_R   0.606982 0.512539 0.821886 0.523363
N2    N     N_R   0.496203 0.500807 0.797942 -0.471102
C27   C     C_R   0.385892 0.485179 0.822081 0.512189
C28   C     C_R   0.469512 0.630899 0.721317 0.134619
C29   C     C_R   0.471964 0.627930 0.670647 -0.222526
C30   C     C_R   0.523661 0.376851 0.671170 -0.235642
C31   C     C_R   0.523448 0.378582 0.721178 -0.132534
C32   C     C_R   0.495991 0.503808 0.746350 0.333728
O10   O     O_2   0.278658 0.469844 0.797237 -0.546047
C33   C     C_R   0.381774 0.503400 0.025609 0.043191
C34   C     C_R   0.496891 0.500048 0.050792 0.065978
C35   C     C_R   0.611995 0.496164 0.025442 0.043316
C36   C     C_R   0.270312 0.517676 0.052532 -0.208476
H3    H     H_    0.452693 0.723006 0.650273 0.139128
H4    H     H_    0.183822 0.461908 0.879093 0.186027
H5    H     H_    0.180326 0.465195 0.964479 0.135944
H6    H     H_    0.180096 0.529361 0.036031 0.135864
O11   O     O_2   0.714915 0.475265 0.202812 -0.539794
C37   C     C_R   0.722149 0.480015 0.102211 -0.149525
H7    H     H_    0.544849 0.721583 0.347213 0.147710
H8    H     H_    0.545418 0.717081 0.259203 0.142107
H9    H     H_    0.810118 0.469750 0.121004 0.185796
C38   C     C_R   0.723246 0.518380 0.947421 -0.207635
C39   C     C_R   0.721736 0.521722 0.897455 -0.149522
O12   O     O_2   0.714239 0.526529 0.796868 -0.540027
C40   C     C_R   0.723522 0.483314 0.052242 -0.207591
H10   H     H_    0.813480 0.530959 0.963853 0.135670
H11   H     H_    0.544938 0.278279 0.652618 0.150348
H12   H     H_    0.809563 0.533166 0.878525 0.185927
H13   H     H_    0.544858 0.282172 0.740642 0.142002
H14   H     H_    0.813833 0.471896 0.035669 0.135511
C41   C     C_3   0.071293 0.655861 0.500529 -0.376018
C42   C     C_3   0.071595 0.423296 0.545325 -0.376345
H15   H     H_    0.105781 0.714577 0.468413 0.162859
H16   H     H_    0.105783 0.311556 0.545971 0.160128
H17   H     H_    0.105110 0.713356 0.533088 0.158348
H18   H     H_    0.106423 0.476788 0.578472 0.156827
C43   C     C_3   0.928586 0.655887 0.500412 -0.377997
C44   C     C_3   0.927651 0.423488 0.545338 -0.377049
H19   H     H_    0.894153 0.713809 0.532828 0.160327
H20   H     H_    0.892726 0.477287 0.578452 0.158055
H21   H     H_    0.894826 0.714193 0.468148 0.161190
H22   H     H_    0.893153 0.311842 0.546077 0.159929
H23   H     H_    0.107001 0.478879 0.421627 0.157524
H24   H     H_    0.106442 0.312776 0.453240 0.161328
H25   H     H_    0.893344 0.478448 0.421606 0.158378
H26   H     H_    0.893811 0.312565 0.453351 0.161465
C45   C     C_3   0.072039 0.424411 0.454492 -0.378204
C46   C     C_3   0.121702 0.500900 0.500106 0.160032
C47   C     C_3   0.878057 0.500949 0.500075 0.158906
C48   C     C_3   0.928113 0.424271 0.454507 -0.375791
C49   C     C_3   0.618476 0.084048 0.520503 -0.187599
C50   C     C_3   0.618425 0.916454 0.520539 -0.188435
H27   H     H_    0.634285 0.124506 0.557658 0.136107
H28   H     H_    0.634133 0.876820 0.557708 0.138922
H29   H     H_    0.698815 0.120773 0.498485 0.138961
H30   H     H_    0.698760 0.879351 0.498545 0.138030
H31   H     H_    0.405822 0.123626 0.568689 0.140771
H32   H     H_    0.405460 0.877326 0.568614 0.134050
C51   C     C_3   0.397601 0.084116 0.531074 -0.187007
C52   C     C_3   0.397524 0.916377 0.531027 -0.188966
C53   C     C_3   0.484489 0.083211 0.451910 -0.189834
C54   C     C_3   0.484662 0.915964 0.451903 -0.184045
N3    N     N_3   0.500250 0.143650 0.501060 -0.110741
N4    N     N_3   0.500250 0.856350 0.501060 -0.110855
H33   H     H_    0.395796 0.122308 0.435979 0.134349
H34   H     H_    0.396167 0.876296 0.435866 0.140288
H35   H     H_    0.561072 0.121174 0.428145 0.140597
H36   H     H_    0.561555 0.878005 0.428220 0.137137
H37   H     H_    0.305940 0.121799 0.517584 0.137943
H38   H     H_    0.305931 0.878628 0.517414 0.137615
C55   C     C_3   0.441501 0.233583 0.250358 -0.383709
C56   C     C_3   0.411126 0.100904 0.280362 -0.400926
C57   C     C_3   0.378928 0.974630 0.248039 -0.799762
H39   H     H_    0.296546 0.999588 0.225413 0.264300
H40   H     H_    0.459174 0.947789 0.224379 0.249996
H41   H     H_    0.356301 0.880919 0.270622 0.248933
H42   H     H_    0.492827 0.071930 0.302874 0.215611
H43   H     H_    0.329707 0.122678 0.304081 0.224076
H44   H     H_    0.360321 0.255123 0.226701 0.224568
H45   H     H_    0.522988 0.209353 0.226937 0.207015
C58   C     C_3   0.440260 0.765467 0.749878 -0.383986
C59   C     C_3   0.409084 0.898062 0.719986 -0.401140
C60   C     C_3   0.375819 0.023891 0.752393 -0.798470
H46   H     H_    0.293393 0.998068 0.774998 0.264006
H47   H     H_    0.455669 0.051405 0.776075 0.249984
H48   H     H_    0.352814 0.117583 0.729879 0.249111
H49   H     H_    0.490675 0.927998 0.697447 0.216299
H50   H     H_    0.327941 0.875617 0.696289 0.223501
H51   H     H_    0.359277 0.743223 0.773672 0.224139
H52   H     H_    0.521680 0.790244 0.773173 0.207182

loop_
_geom_bond_atom_site_label_1
_geom_bond_atom_site_label_2
_geom_bond_distance
_ccdc_geom_bond_type
C53   H35   1.112524 S    
C51   N3    1.490178 S    
C45   C46   1.550505 S    
C52   H38   1.110841 S    
C53   C54   1.572704 S    
N2    C27   1.367096 A    
H23   C45   1.113174 S    
C21   C22   1.389381 A    
C12   C15   1.408461 A    
C52   N4    1.490003 S    
C4    C17   1.471625 S    
C42   H18   1.113183 S    
C60   H46   1.110853 S    
C30   C31   1.389950 A    
Cu1   O7    1.949901 S    
C43   C47   1.554269 S    
C38   C39   1.389333 A    
O4    C2    1.295773 A    
C22   C23   1.396347 A    
C56   H42   1.111965 S    
O7    C4    1.296100 A    
C44   H20   1.113170 S    
C60   H47   1.110833 S    
C40   H14   1.076970 S    
C51   H37   1.111146 S    
C50   H30   1.111128 S    
C55   H44   1.110902 S    
C35   C40   1.415423 A    
C59   H49   1.111930 S    
O5    C3    1.288701 A    
C31   H13   1.082187 S    
C42   C44   1.543591 S    
C6    O11   1.349666 S    
H31   C51   1.111959 S    
C39   H12   1.083538 S    
C29   H3    1.080085 S    
C2    C16   1.471655 S    
C55   C56   1.537482 S    
C19   C38   1.415416 A    
C30   H11   1.083362 S    
H24   C45   1.113231 S    
C54   H36   1.112399 S    
C58   H52   1.111994 S    
C57   H41   1.110132 S    
C37   H9    1.083538 S    
C53   N3    1.487692 S    
O1    Cu1   1.965778 S    
C9    C10   1.408635 A    
C53   H33   1.112894 S    
O3    Cu1   1.948826 S    
C56   C57   1.526382 S    
C42   C46   1.550627 S    
C34   C35   1.420652 A    
C43   H19   1.113785 S    
C44   C47   1.550702 S    
C12   C34   1.421085 A    
C17   C29   1.405602 A    
C38   H10   1.076983 S    
C21   H5    1.077140 S    
C18   C21   1.415333 A    
Cu1   Cu2   2.678289 S    
C12   C13   1.408484 A    
C42   H16   1.113193 S    
H26   C48   1.113217 S    
C49   N3    1.489390 S    
C49   C50   1.575965 S    
C41   H15   1.113764 S    
C60   H48   1.110394 S    
C27   O10   1.349727 S    
C8    C16   1.400832 A    
C13   C14   1.396361 A    
C9    H1    1.080107 S    
O6    C3    1.291939 A    
C55   H45   1.111991 S    
O1    C1    1.288581 A    
C18   C20   1.420482 A    
C7    C11   1.398783 A    
C28   C29   1.408712 A    
C23   C24   1.408512 A    
C14   C36   1.389355 A    
C49   H27   1.112566 S    
C44   H22   1.113247 S    
C37   C40   1.389336 A    
C51   C52   1.577324 S    
C43   H21   1.113703 S    
Cu2   O8    1.948521 S    
C33   C36   1.415317 A    
C23   C27   1.403579 A    
C50   H28   1.112524 S    
N1    C6    1.366894 A    
N2    C32   1.434325 S    
N1    C11   1.434393 S    
C8    H7    1.082983 S    
C54   N4    1.488229 S    
C58   C59   1.537788 S    
O3    C2    1.297241 A    
C26   N2    1.366845 A    
C9    C16   1.405605 A    
O8    C4    1.297289 A    
C14   H2    1.083536 S    
H32   C52   1.111890 S    
Cu1   N4    2.011888 S    
C41   C43   1.530323 S    
C57   H39   1.110834 S    
Cu1   O5    1.966352 S    
C28   C58   1.523993 S    
C31   C32   1.398890 A    
C3    C47   1.479046 S    
C1    C46   1.479048 S    
C20   C24   1.421102 A    
O2    Cu2   1.965926 S    
C6    C15   1.403708 A    
C58   H51   1.110924 S    
C15   C37   1.396336 A    
O4    Cu2   1.950207 S    
H25   C48   1.113171 S    
C5    N1    1.367205 A    
C7    H8    1.082020 S    
C19   C35   1.421003 A    
C25   C39   1.396340 A    
C26   O12   1.349653 S    
C10   C55   1.523635 S    
C7    C8    1.389982 A    
O2    C1    1.292056 A    
C59   C60   1.526660 S    
C41   H17   1.113731 S    
C24   C25   1.408432 A    
C19   C20   1.420674 A    
C54   H34   1.112839 S    
C59   H50   1.111903 S    
Cu2   N3    2.012084 S    
C18   C33   1.420664 A    
C22   H4    1.083531 S    
C50   N4    1.489365 S    
C49   H29   1.111501 S    
C41   C46   1.554387 S    
C25   C26   1.403679 A    
C36   H6    1.077136 S    
C5    C13   1.403536 A    
Cu2   O6    1.966203 S    
C33   C34   1.420503 A    
C17   C30   1.400862 A    
C45   C48   1.543391 S    
C56   H43   1.111837 S    
C10   C11   1.413889 A    
C47   C48   1.550482 S    
C28   C32   1.413993 A    
C5    O9    1.349741 S    
C57   H40   1.110785 S    
