data_mof_unit_32256.cif
_audit_creation_date              2012-12-10T16:51:32-0500
_audit_creation_method            fapswitch 2.2
_symmetry_space_group_name_H-M    P1
_symmetry_Int_Tables_number       1
_space_group_crystal_system       triclinic
_cell_length_a                    7.831284
_cell_length_b                    8.570589
_cell_length_c                    11.999336
_cell_angle_alpha                 91.763768
_cell_angle_beta                  101.150839
_cell_angle_gamma                 94.052735
_cell_volume                      787.386455886

loop_
_atom_site_label
_atom_site_type_symbol
_atom_type_description
_atom_site_fract_x
_atom_site_fract_y
_atom_site_fract_z
_atom_type_partial_charge
C1    C     C_R   0.044007 0.794623 0.496059 0.962350
C2    C     C_R   0.157075 0.510651 0.835445 -0.171377
C3    C     C_2   0.065620 0.957993 0.491222 -0.382629
C4    C     C_R   0.106475 0.507843 0.711358 0.936897
C5    C     C_2   0.930080 0.041247 0.499864 -0.334067
C6    C     C_R   0.954198 0.205137 0.500112 1.009556
C7    C     C_R   0.893227 0.491179 0.289010 0.872642
C8    C     C_R   0.802933 0.284621 0.004944 -0.148740
C9    C     C_R   0.833859 0.463567 0.167743 -0.063881
C10   C     C_R   0.076652 0.610772 0.901441 0.401699
C11   C     C_R   0.144866 0.635179 0.017083 -0.215501
C12   C     C_R   0.392226 0.486488 0.995838 -0.064777
C13   C     C_R   0.301770 0.574588 0.066026 -0.080939
C14   C     C_3   0.948398 0.830544 0.838758 0.148346
C15   C     C_3   0.778294 0.889915 0.777610 -0.795047
C16   C     C_2   0.349670 0.582724 0.191885 0.414571
C17   C     C_2   0.240247 0.189629 0.751945 0.375636
C18   C     C_R   0.301170 0.431123 0.887233 0.018334
C19   C     C_R   0.567706 0.448881 0.028441 0.097797
C20   C     C_R   0.634038 0.331270 0.966515 0.204311
C21   C     C_R   0.527387 0.255167 0.871672 -0.330188
C22   C     C_R   0.359130 0.299482 0.833845 0.040638
C23   C     C_R   0.681185 0.527690 0.119472 -0.257253
C24   C     C_R   0.900229 0.346352 0.108409 -0.204711
H1    H     H_    0.021008 0.296863 0.144768 0.150316
H2    H     H_    0.048301 0.851412 0.784939 0.139532
H3    H     H_    0.990884 0.898030 0.921464 0.134822
H4    H     H_    0.675461 0.870090 0.828847 0.234023
H5    H     H_    0.796965 0.016903 0.764383 0.242322
H6    H     H_    0.735264 0.827361 0.693453 0.251423
H7    H     H_    0.423175 0.492648 0.235586 0.067831
H8    H     H_    0.292586 0.112781 0.695558 0.061836
H9    H     H_    0.802756 0.989892 0.508972 0.174821
H10   H     H_    0.470422 0.372381 0.418744 0.174552
H11   H     H_    0.529469 0.626106 0.582344 0.190612
H12   H     H_    0.572542 0.156758 0.829813 0.133727
H13   H     H_    0.853934 0.193014 0.959567 0.152656
H14   H     H_    0.647283 0.632055 0.160210 0.151104
H15   H     H_    0.072546 0.699789 0.068989 0.189287
H16   H     H_    0.192807 0.009362 0.481842 0.176037
N1    N     N_2   0.434800 0.456690 0.470850 -0.161091
N2    N     N_2   0.565200 0.543310 0.529150 -0.155490
O1    O     O_R   0.893060 0.738880 0.507150 -0.621229
O2    O     O_2   0.307262 0.689618 0.247849 -0.565514
O3    O     O_2   0.084034 0.177160 0.751617 -0.636536
O4    O     O_R   0.172250 0.711130 0.488470 -0.597053
O5    O     O_R   0.944700 0.520730 0.667600 -0.548011
O6    O     O_R   0.223890 0.492980 0.648920 -0.639128
O7    O     O_R   0.827750 0.288870 0.511530 -0.622573
O8    O     O_R   0.106940 0.261120 0.492850 -0.629356
O9    O     O_R   0.776110 0.507020 0.351080 -0.631584
O10   O     O_R   0.055300 0.479270 0.332400 -0.591753
O11   O     O_3   0.919473 0.669542 0.855836 -0.592515
Zn1   Zn    Zn3+2 0.813580 0.518530 0.512470 0.970628
Zn2   Zn    Zn3+2 0.186420 0.481470 0.487530 0.962637

loop_
_geom_bond_atom_site_label_1
_geom_bond_atom_site_label_2
_ccdc_geom_bond_type
O4    Zn2   S    
C7    O10   A    
O6    Zn2   S    
C2    C4    S    
C9    C24   A    
C17   C22   S    
C14   H3    S    
C2    C18   A    
C23   H14   S    
N1    N2    D    
C16   O2    D    
O1    Zn1   S    
C19   C23   A    
C19   C20   A    
O10   Zn2   S    
O9    Zn1   S    
C20   C21   A    
C7    O9    A    
C21   H12   S    
C21   C22   A    
C14   H2    S    
C16   H7    S    
C11   H15   S    
C12   C13   A    
C11   C13   A    
C15   H4    S    
C8    C20   A    
H10   N1    S    
O5    Zn1   S    
C12   C19   A    
C8    C24   A    
C17   O3    D    
C3    H16   S    
C15   H5    S    
C6    O7    A    
C5    C6    S    
C17   H8    S    
C1    O4    A    
C10   C11   A    
O7    Zn1   S    
C2    C10   A    
C8    H13   S    
C14   O11   S    
C24   H1    S    
C10   O11   S    
C15   H6    S    
C4    O6    A    
C13   C16   S    
C12   C18   A    
C7    C9    S    
H11   N2    S    
C14   C15   S    
N1    Zn2   S    
C9    C23   A    
C6    O8    A    
C3    C5    D    
C18   C22   A    
C1    O1    A    
N2    Zn1   S    
O8    Zn2   S    
C1    C3    S    
C4    O5    A    
C5    H9    S    
