data_mof_unit_19044.cif
_audit_creation_date              2012-10-26T21:08:06-0400
_audit_creation_method            fapswitch 2.2
_symmetry_space_group_name_H-M    P1
_symmetry_Int_Tables_number       1
_space_group_crystal_system       triclinic
_cell_length_a                    15.851408
_cell_length_b                    10.78047
_cell_length_c                    9.615932
_cell_angle_alpha                 90.131025
_cell_angle_beta                  90.068025
_cell_angle_gamma                 92.545404
_cell_volume                      1641.59762288

loop_
_atom_site_label
_atom_site_type_symbol
_atom_type_description
_atom_site_fract_x
_atom_site_fract_y
_atom_site_fract_z
_atom_type_partial_charge
Br1   Br    Br    0.655123 0.152736 0.347194 -0.510388
C1    C     C_R   0.498941 0.262689 0.499845 0.577248
C2    C     C_R   0.291630 0.052865 0.685422 -0.120767
C3    C     C_R   0.291497 0.923860 0.686742 -0.119380
C4    C     C_R   0.339937 0.499566 0.499922 0.527739
C5    C     C_R   0.357930 0.862579 0.626477 -0.090438
C6    C     C_R   0.426648 0.930164 0.564932 0.022523
C7    C     C_R   0.427041 0.061303 0.563904 -0.005553
C8    C     C_R   0.495133 0.128454 0.499422 0.011786
C9    C     C_R   0.560172 0.066466 0.433464 0.136929
C10   C     C_R   0.558718 0.938227 0.433712 -0.122602
C11   C     C_R   0.493843 0.870393 0.500425 -0.023175
C12   C     C_3   0.082678 0.500580 0.500200 0.048393
C13   C     C_R   0.611706 0.665854 0.144358 -0.077390
C14   C     C_R   0.665875 0.747488 0.072559 -0.159280
C15   C     C_R   0.665847 0.747517 0.929260 -0.159726
C16   C     C_R   0.498183 0.737014 0.500138 0.518622
C17   C     C_R   0.611608 0.665971 0.856822 -0.077731
C18   C     C_R   0.554780 0.581632 0.925556 0.159546
C19   C     C_R   0.554798 0.581569 0.075021 0.163397
C20   C     C_R   0.447927 0.422261 0.073515 0.012879
C21   C     C_R   0.447944 0.422291 0.925745 0.006717
C22   C     C_R   0.660058 0.500373 0.500094 0.560880
C23   C     C_3   0.974996 0.596288 0.577619 -0.105224
C24   C     C_3   0.968677 0.393468 0.554110 -0.091934
C25   C     C_3   0.025026 0.405201 0.422943 -0.096436
C26   C     C_1   0.250109 0.499904 0.499893 -0.040081
C27   C     C_1   0.749899 0.500683 0.500251 -0.001750
C28   C     C_3   0.027854 0.488849 0.631372 -0.103704
C29   C     C_3   0.917354 0.500895 0.500350 0.052840
C30   C     C_3   0.031363 0.608022 0.446447 -0.102559
C31   C     C_3   0.972182 0.512636 0.369185 -0.095735
C32   C     C_1   0.174465 0.500248 0.500029 -0.064172
C33   C     C_1   0.825557 0.500861 0.500330 -0.041986
C34   C     C_R   0.358257 0.121365 0.624012 -0.107760
Cu1   Cu    Cu3+1 0.499990 0.499990 0.640660 0.931620
Cu2   Cu    Cu3+1 0.500010 0.500010 0.359340 0.965419
H1    H     H_    0.046904 0.326749 0.359459 0.110130
H2    H     H_    0.405242 0.358475 0.870432 0.113432
H3    H     H_    0.941597 0.305392 0.598296 0.120054
H4    H     H_    0.947975 0.522407 0.261563 0.113589
H5    H     H_    0.058459 0.696098 0.402285 0.108958
H6    H     H_    0.953106 0.674723 0.641117 0.106449
H7    H     H_    0.052057 0.479087 0.738995 0.106395
H8    H     H_    0.354408 0.221220 0.622548 0.121494
H9    H     H_    0.239477 0.100099 0.730983 0.108425
H10   H     H_    0.239259 0.870953 0.733352 0.111377
H11   H     H_    0.354091 0.762249 0.626995 0.140646
H12   H     H_    0.609731 0.890980 0.384254 0.131589
H13   H     H_    0.405208 0.358446 0.128268 0.117521
H14   H     H_    0.617539 0.673019 0.253964 0.172670
H15   H     H_    0.708423 0.810989 0.128877 0.136186
H16   H     H_    0.708405 0.811007 0.873456 0.128232
H17   H     H_    0.617284 0.673192 0.747223 0.180169
N1    N     N_R   0.500800 0.501210 0.147910 -0.238886
N2    N     N_R   0.500830 0.501290 0.852040 -0.243004
O1    O     O_R   0.499990 0.319640 0.618810 -0.499289
O2    O     O_R   0.500000 0.319660 0.381240 -0.463069
O3    O     O_R   0.379070 0.499980 0.618770 -0.513839
O4    O     O_R   0.379080 0.500000 0.381190 -0.497569
O5    O     O_R   0.500000 0.680340 0.618760 -0.526082
O6    O     O_R   0.500010 0.680360 0.381190 -0.520018
O7    O     O_R   0.620920 0.500000 0.618810 -0.511444
O8    O     O_R   0.620930 0.500020 0.381230 -0.492887

loop_
_geom_bond_atom_site_label_1
_geom_bond_atom_site_label_2
_ccdc_geom_bond_type
C11   C16   S    
C18   N2    A    
C10   C11   A    
C1    O2    A    
C12   C32   S    
C5    C6    A    
C10   H12   S    
C30   H5    S    
C16   O6    A    
Cu1   O7    S    
C8    C9    A    
C2    H9    S    
C18   C19   A    
C13   C14   A    
C2    C34   A    
C31   H4    S    
Cu1   O3    S    
C22   O8    A    
C22   O7    A    
Cu2   O6    S    
C23   C30   S    
C27   C33   T    
C6    C7    A    
C28   H7    S    
C4    C26   S    
C14   H15   S    
C26   C32   T    
C29   C31   S    
C3    H10   S    
C5    H11   S    
C19   N1    A    
Cu1   N2    S    
C21   H2    S    
C4    O3    A    
C20   C21   A    
Cu1   Cu2   S    
Cu1   O1    S    
C23   C29   S    
C24   H3    S    
C24   C28   S    
C6    C11   A    
Cu2   O2    S    
C12   C25   S    
C1    O1    A    
Cu2   O4    S    
C9    C10   A    
C29   C33   S    
C3    C5    A    
C2    C3    A    
C34   H8    S    
C13   C19   A    
C14   C15   A    
Cu2   O8    S    
Cu2   N1    S    
C13   H14   S    
C15   C17   A    
C17   C18   A    
C12   C28   S    
C24   C29   S    
C20   N1    A    
C23   H6    S    
C17   H17   S    
C23   C28   S    
C20   H13   S    
C21   N2    A    
C4    O4    A    
C16   O5    A    
C24   C25   S    
C22   C27   S    
C1    C8    S    
C12   C30   S    
C25   C31   S    
C25   H1    S    
Br1   C9    S    
C30   C31   S    
C7    C8    A    
C15   H16   S    
C7    C34   A    
Cu1   O5    S    
