data_mof_unit_40477.cif
_audit_creation_date              2012-12-10T20:36:41-0500
_audit_creation_method            fapswitch 2.2
_symmetry_space_group_name_H-M    P1
_symmetry_Int_Tables_number       1
_space_group_crystal_system       triclinic
_cell_length_a                    10.492082
_cell_length_b                    10.68353
_cell_length_c                    9.891659
_cell_angle_alpha                 90.38326
_cell_angle_beta                  89.861243
_cell_angle_gamma                 90.215701
_cell_volume                      1108.74467012

loop_
_atom_site_label
_atom_site_type_symbol
_atom_type_description
_atom_site_fract_x
_atom_site_fract_y
_atom_site_fract_z
_atom_type_partial_charge
C1    C     C_R   0.499680 0.260235 0.499561 0.897841
C2    C     C_R   0.430910 0.937205 0.604845 0.079825
C3    C     C_3   0.454996 0.930787 0.753709 0.323928
C4    C     C_R   0.257543 0.502439 0.500146 0.914608
C5    C     C_3   0.463152 0.073136 0.753182 -0.521388
C6    C     C_R   0.389086 0.512789 0.070717 0.087187
C7    C     C_R   0.611077 0.494872 0.071522 -0.054202
C8    C     C_R   0.611029 0.494067 0.927879 -0.109738
C9    C     C_R   0.389789 0.517111 0.928957 0.259218
C10   C     C_3   0.270844 0.442196 0.916416 -0.531498
C11   C     C_3   0.271105 0.431707 0.069909 0.259801
C12   C     C_3   0.960128 0.441098 0.386840 -0.167156
C13   C     C_R   0.497373 0.739817 0.500059 0.884177
C14   C     C_R   0.742471 0.497945 0.499834 0.856988
C15   C     C_3   0.040619 0.559594 0.613598 -0.196486
C16   C     C_3   0.959071 0.438592 0.610244 -0.222678
C17   C     C_3   0.877383 0.497451 0.499503 -0.041894
C18   C     C_3   0.957964 0.615374 0.502218 0.239792
C19   C     C_3   0.041700 0.562151 0.388921 -0.170696
C20   C     C_3   0.998258 0.840100 0.503088 -0.712198
C21   C     C_3   0.044217 0.382144 0.497605 -0.122259
C22   C     C_3   0.122749 0.503073 0.500326 -0.018257
C23   C     C_R   0.435200 0.065193 0.605287 0.051663
C24   C     C_R   0.488859 0.128490 0.496540 -0.081197
C25   C     C_R   0.523216 0.063492 0.378895 -0.150594
C26   C     C_R   0.521016 0.934790 0.378833 -0.179847
C27   C     C_R   0.484858 0.871588 0.496792 -0.167089
H1    H     H_    0.921359 0.387685 0.699382 0.163889
H2    H     H_    0.075864 0.610402 0.704265 0.186891
H3    H     H_    0.079154 0.613928 0.300277 0.136224
H4    H     H_    0.923309 0.392254 0.295436 0.160394
H5    H     H_    0.085010 0.286393 0.495991 0.173479
H6    H     H_    0.560337 0.111178 0.290899 0.192184
H7    H     H_    0.556237 0.885637 0.290201 0.190990
H8    H     H_    0.436265 0.133307 0.075319 0.390321
H9    H     H_    0.836813 0.751955 0.579378 0.218732
H10   H     H_    0.948772 0.931651 0.498506 0.240669
H11   H     H_    0.060639 0.831304 0.412662 0.246461
H12   H     H_    0.546014 0.883874 0.779855 0.085162
H13   H     H_    0.057488 0.837853 0.596033 0.272941
H14   H     H_    0.283514 0.814494 0.049376 0.373430
H15   H     H_    0.386518 0.122166 0.810030 0.269609
H16   H     H_    0.560858 0.108929 0.774084 0.181825
H17   H     H_    0.700676 0.488934 0.124726 0.136222
H18   H     H_    0.700591 0.487122 0.874206 0.143014
H19   H     H_    0.190447 0.499196 0.878447 0.183343
H20   H     H_    0.286366 0.353273 0.859679 0.241792
H21   H     H_    0.187732 0.477828 0.118241 0.072406
N1    N     N_R   0.499140 0.499140 0.142800 -0.079629
N2    N     N_R   0.499140 0.499180 0.857150 -0.095043
N3    N     N_2   0.904947 0.740237 0.505116 -0.323201
O1    O     O_R   0.500020 0.316790 0.614690 -0.629071
O2    O     O_2   0.199370 0.190820 0.046431 -0.274370
O3    O     O_3   0.442039 0.225487 0.085052 -0.575175
O4    O     O_2   0.206994 0.957947 0.826960 -0.274899
O5    O     O_2   0.284526 0.744872 0.788978 -0.348820
O6    O     O_3   0.355603 0.860982 0.008405 -0.561168
O7    O     O_R   0.500000 0.316760 0.385350 -0.552293
O8    O     O_R   0.313960 0.499990 0.614650 -0.605540
O9    O     O_R   0.313940 0.499950 0.385310 -0.608888
O10   O     O_R   0.500000 0.683240 0.614650 -0.595926
O11   O     O_R   0.499980 0.683210 0.385310 -0.624207
O12   O     O_R   0.686060 0.500050 0.614690 -0.643266
O13   O     O_R   0.686040 0.500010 0.385350 -0.636337
O14   O     O_2   0.267991 0.260336 0.270277 -0.290064
S1    S     S_3+6 0.292907 0.272369 0.121453 0.043344
S2    S     S_3+6 0.318959 0.872001 0.843534 0.010218
Zn1   Zn    Zn3+2 0.500010 0.500020 0.653130 0.984133
Zn2   Zn    Zn3+2 0.499990 0.499980 0.346870 1.012372

loop_
_geom_bond_atom_site_label_1
_geom_bond_atom_site_label_2
_ccdc_geom_bond_type
C12   C17   S    
C10   H19   S    
C15   C18   S    
O4    S2    D    
C23   C24   A    
O7    Zn2   S    
C16   H1    S    
C2    C27   A    
O3    S1    S    
O10   Zn1   S    
O8    Zn1   S    
O5    S2    D    
C20   H11   S    
C9    C10   S    
O1    Zn1   S    
C11   S1    S    
C5    H15   S    
C14   O13   A    
C4    O9    A    
C6    C9    A    
C2    C3    S    
C11   H21   S    
H14   O6    S    
C7    C8    A    
C12   H4    S    
N1    Zn2   S    
O13   Zn2   S    
H8    O3    S    
C20   H10   S    
C14   C17   S    
C7    N1    A    
C26   C27   A    
C16   C21   S    
H9    N3    S    
C1    O7    A    
O9    Zn2   S    
O6    S2    S    
C6    C11   S    
C14   O12   A    
C12   C19   S    
C21   C22   S    
C21   H5    S    
C18   N3    S    
C15   H2    S    
C20   N3    S    
O14   S1    D    
C6    N1    A    
C5    H16   S    
C20   H13   S    
C1    O1    A    
C10   C11   S    
C13   O11   A    
C3    H12   S    
C15   C16   S    
C8    N2    A    
C10   H20   S    
C19   C22   S    
C13   O10   A    
C24   C25   A    
C4    O8    A    
C1    C24   S    
C17   C18   S    
C18   C19   S    
C2    C23   A    
C4    C22   S    
O2    S1    D    
O12   Zn1   S    
C13   C27   S    
C25   C26   A    
C7    H17   S    
C19   H3    S    
N2    Zn1   S    
C12   C21   S    
C26   H7    S    
C15   C22   S    
C3    S2    S    
C9    N2    A    
C8    H18   S    
O11   Zn2   S    
C25   H6    S    
C16   C17   S    
C3    C5    S    
C5    C23   S    
