data_mof_unit_14881.cif
_audit_creation_date              2012-10-26T18:34:47-0400
_audit_creation_method            fapswitch 2.2
_symmetry_space_group_name_H-M    P1
_symmetry_Int_Tables_number       1
_space_group_crystal_system       triclinic
_cell_length_a                    10.835473
_cell_length_b                    9.500536
_cell_length_c                    17.751719
_cell_angle_alpha                 89.99939
_cell_angle_beta                  90.158117
_cell_angle_gamma                 89.997357
_cell_volume                      1827.4047214

loop_
_atom_site_label
_atom_site_type_symbol
_atom_type_description
_atom_site_fract_x
_atom_site_fract_y
_atom_site_fract_z
_atom_type_partial_charge
C1    C     C_R   0.261998 0.500002 0.499952 0.551541
C2    C     C_R   0.500084 0.500017 0.644458 0.545300
C3    C     C_R   0.871813 0.499998 0.500106 0.019369
C4    C     C_R   0.128187 0.500002 0.499970 0.019394
C5    C     C_R   0.529195 0.625380 0.846118 0.017777
C6    C     C_R   0.491210 0.370607 0.154213 0.018892
C7    C     C_R   0.506226 0.628418 0.153992 0.019487
C8    C     C_R   0.466978 0.376333 0.845344 0.021123
C9    C     C_R   0.529027 0.623202 0.766926 -0.115246
C10   C     C_R   0.491676 0.372567 0.233011 -0.129230
C11   C     C_R   0.506603 0.626948 0.232807 -0.129781
C12   C     C_R   0.738001 0.499998 0.500075 0.551405
C13   C     C_R   0.469564 0.377454 0.766648 -0.129994
C14   C     C_R   0.499745 0.500144 0.727250 -0.024395
C15   C     C_R   0.499411 0.499864 0.272608 -0.021076
C16   C     C_R   0.424030 0.074488 0.452639 0.007383
C17   C     C_R   0.575940 0.925509 0.547382 0.008269
C18   C     C_R   0.575951 0.074472 0.547373 0.007749
C19   C     C_R   0.424034 0.925524 0.452638 0.007518
C20   C     C_R   0.497521 0.500534 0.885108 0.046917
C21   C     C_R   0.498522 0.499390 0.114504 0.060674
C22   C     C_3   0.562321 0.757703 0.890565 -0.272836
C23   C     C_1   0.497837 0.499580 0.966068 -0.051379
C24   C     C_3   0.599317 0.886478 0.844121 -0.461432
C25   C     C_3   0.482255 0.230018 0.114228 -0.278613
C26   C     C_3   0.608287 0.181555 0.086107 -0.443413
C27   C     C_3   0.514565 0.768763 0.113706 -0.277111
C28   C     C_3   0.387978 0.817266 0.086111 -0.445876
C29   C     C_3   0.431577 0.241372 0.885263 -0.277281
C30   C     C_3   0.298961 0.247398 0.913863 -0.437647
C31   C     C_1   0.498136 0.499260 0.033612 -0.041336
C32   C     C_R   0.063847 0.372085 0.499995 -0.141559
C33   C     C_R   0.936154 0.627915 0.500103 -0.141498
C34   C     C_R   0.936166 0.372084 0.500082 -0.141075
C35   C     C_R   0.063835 0.627917 0.500014 -0.140929
C36   C     C_R   0.499834 0.499989 0.355487 0.547276
Cu1   Cu    Cu3+1 0.500000 0.640660 0.500000 0.930123
Cu2   Cu    Cu3+1 0.500000 0.359340 0.500000 0.929752
H1    H     H_    0.552698 0.716425 0.735258 0.131031
H2    H     H_    0.888117 0.727917 0.500155 0.126314
H3    H     H_    0.888138 0.272081 0.500115 0.126559
H4    H     H_    0.111862 0.727919 0.499981 0.126682
H5    H     H_    0.682565 0.863242 0.809932 0.147958
H6    H     H_    0.522078 0.919769 0.806942 0.142604
H7    H     H_    0.621584 0.975031 0.882679 0.132985
H8    H     H_    0.481901 0.787637 0.925785 0.148126
H9    H     H_    0.640592 0.732656 0.928876 0.143542
H10   H     H_    0.647860 0.259060 0.046120 0.157531
H11   H     H_    0.672665 0.167934 0.134360 0.153688
H12   H     H_    0.486261 0.273957 0.263514 0.123839
H13   H     H_    0.598572 0.079077 0.056603 0.127395
H14   H     H_    0.445448 0.147952 0.152780 0.130472
H15   H     H_    0.416214 0.236971 0.066500 0.146011
H16   H     H_    0.347508 0.739578 0.046416 0.157583
H17   H     H_    0.324647 0.831188 0.134645 0.150275
H18   H     H_    0.397137 0.919613 0.056435 0.128495
H19   H     H_    0.552325 0.850943 0.151972 0.133370
H20   H     H_    0.579518 0.761462 0.065609 0.138520
H21   H     H_    0.286798 0.334769 0.954654 0.156545
H22   H     H_    0.234182 0.262617 0.865937 0.155503
H23   H     H_    0.512209 0.725732 0.263152 0.125031
H24   H     H_    0.275944 0.146906 0.942522 0.128177
H25   H     H_    0.439216 0.150195 0.846407 0.131175
H26   H     H_    0.496079 0.220473 0.932623 0.145375
H27   H     H_    0.445869 0.282562 0.735953 0.125927
H28   H     H_    0.363221 0.130769 0.414738 0.103333
H29   H     H_    0.636713 0.869229 0.585310 0.101978
H30   H     H_    0.636755 0.130739 0.585279 0.105746
H31   H     H_    0.363225 0.869253 0.414736 0.104369
H32   H     H_    0.111884 0.272084 0.499947 0.126341
N1    N     N_R   0.500000 0.852070 0.500000 -0.222327
N2    N     N_R   0.500000 0.147930 0.500000 -0.222934
O1    O     O_R   0.319640 0.618740 0.499990 -0.506482
O2    O     O_R   0.680360 0.381260 0.500010 -0.506729
O3    O     O_R   0.680360 0.618740 0.500010 -0.507856
O4    O     O_R   0.319640 0.381260 0.499990 -0.507883
O5    O     O_R   0.500000 0.618830 0.391250 -0.504428
O6    O     O_R   0.500000 0.381170 0.608750 -0.503846
O7    O     O_R   0.500000 0.618830 0.608750 -0.504198
O8    O     O_R   0.500000 0.381170 0.391250 -0.504034

loop_
_geom_bond_atom_site_label_1
_geom_bond_atom_site_label_2
_ccdc_geom_bond_type
C29   H25   S    
C8    C13   A    
C12   O2    A    
C19   N1    A    
C16   N2    A    
C28   H18   S    
C5    C20   A    
C13   H27   S    
C7    C11   A    
C21   C31   S    
C8    C20   A    
C24   H7    S    
Cu1   Cu2   S    
C25   H15   S    
C36   O5    A    
C6    C25   S    
C3    C33   A    
C18   H30   S    
C9    H1    S    
C7    C27   S    
C35   H4    S    
C2    O7    A    
C11   C15   A    
C5    C22   S    
C30   H22   S    
C3    C12   S    
C26   H10   S    
C22   H9    S    
Cu1   O3    S    
C29   H26   S    
C13   C14   A    
Cu2   O4    S    
C34   H3    S    
C28   H17   S    
C18   N2    A    
Cu2   N2    S    
C17   H29   S    
C33   H2    S    
C27   H19   S    
C26   H11   S    
C28   H16   S    
C32   H32   S    
Cu2   O6    S    
C3    C34   A    
C25   C26   S    
C7    C21   A    
C6    C21   A    
Cu1   O5    S    
C23   C31   T    
C9    C14   A    
C5    C9    A    
C29   C30   S    
C2    O6    A    
Cu1   O7    S    
C20   C23   S    
C30   H21   S    
C17   C18   A    
C4    C32   A    
C22   H8    S    
C17   N1    A    
Cu1   N1    S    
C36   O8    A    
C24   H6    S    
C22   C24   S    
C19   H31   S    
C16   H28   S    
C8    C29   S    
C10   H12   S    
C15   C36   S    
Cu2   O2    S    
Cu1   O1    S    
C1    O4    A    
C11   H23   S    
C27   H20   S    
C6    C10   A    
C10   C15   A    
C1    C4    S    
C1    O1    A    
C30   H24   S    
C25   H14   S    
C26   H13   S    
Cu2   O8    S    
C16   C19   A    
C33   C35   A    
C2    C14   S    
C4    C35   A    
C12   O3    A    
C27   C28   S    
C24   H5    S    
C32   C34   A    
