data_mof_unit_17281.cif
_audit_creation_date              2012-12-10T20:03:06-0500
_audit_creation_method            fapswitch 2.2
_symmetry_space_group_name_H-M    P1
_symmetry_Int_Tables_number       1
_space_group_crystal_system       triclinic
_cell_length_a                    8.571211
_cell_length_b                    18.928579
_cell_length_c                    18.452066
_cell_angle_alpha                 89.260343
_cell_angle_beta                  98.467108
_cell_angle_gamma                 90.371358
_cell_volume                      2960.7708434

loop_
_atom_site_label
_atom_site_type_symbol
_atom_type_description
_atom_site_fract_x
_atom_site_fract_y
_atom_site_fract_z
_atom_type_partial_charge
C1    C     C_R   0.497501 0.365032 0.500205 0.919143
C2    C     C_R   0.499753 0.634692 0.499638 0.949229
C3    C     C_R   0.358748 0.968686 0.571878 0.560365
C4    C     C_R   0.292336 0.028781 0.431230 0.560031
C5    C     C_R   0.363837 0.041632 0.562380 -0.381006
C6    C     C_R   0.308083 0.955986 0.440054 -0.380383
C7    C     C_R   0.336242 0.072578 0.491993 -0.031874
C8    C     C_R   0.347095 0.925248 0.510030 -0.033653
C9    C     C_R   0.588774 0.548746 0.730874 -0.104582
C10   C     C_R   0.413420 0.449971 0.270140 -0.062359
C11   C     C_R   0.593729 0.549762 0.807669 0.415817
C12   C     C_R   0.402886 0.449515 0.193379 0.410181
C13   C     C_R   0.498981 0.501590 0.841334 0.009367
C14   C     C_R   0.490070 0.499730 0.157929 -0.009254
C15   C     C_R   0.408573 0.452063 0.796722 -0.373365
C16   C     C_R   0.579350 0.550353 0.201637 -0.356876
C17   C     C_R   0.410906 0.452085 0.720912 0.003545
C18   C     C_R   0.582449 0.549676 0.277838 -0.008199
C19   C     C_R   0.507775 0.437455 0.962816 -0.243965
C20   C     C_R   0.477989 0.563725 0.036107 -0.244388
C21   C     C_R   0.505388 0.436784 0.038736 -0.141009
C22   C     C_R   0.480591 0.564405 0.960204 -0.127266
C23   C     C_R   0.200896 0.499313 0.480935 0.965175
C24   C     C_R   0.799060 0.498962 0.519056 0.971260
C25   C     C_R   0.490100 0.499910 0.076540 0.148167
C26   C     C_R   0.496037 0.501286 0.922455 0.157567
C27   C     C_2   0.035990 0.498059 0.470500 -0.395556
C28   C     C_2   0.963926 0.497100 0.529422 -0.418521
C29   C     C_R   0.330079 0.734472 0.460646 -0.291207
C30   C     C_R   0.363793 0.262342 0.544305 -0.267844
C31   C     C_R   0.285874 0.803557 0.469033 -0.294233
C32   C     C_R   0.312731 0.193177 0.537413 -0.293166
C33   C     C_R   0.383210 0.849117 0.515235 0.034887
C34   C     C_R   0.363237 0.149369 0.484890 0.017002
C35   C     C_R   0.523927 0.823332 0.557228 0.452326
C36   C     C_R   0.457260 0.177680 0.434172 0.455594
C37   C     C_R   0.572365 0.753772 0.544804 0.291158
C38   C     C_R   0.516544 0.247326 0.444353 0.300770
C39   C     C_R   0.471857 0.709684 0.498555 -0.163449
C40   C     C_R   0.465164 0.289661 0.498234 -0.180977
H1    H     H_    0.974366 0.498684 0.414539 0.181470
H2    H     H_    0.025588 0.496309 0.585373 0.183661
H3    H     H_    0.334770 0.414075 0.820254 0.163995
H4    H     H_    0.648533 0.589605 0.177151 0.164582
H5    H     H_    0.340364 0.414048 0.686981 0.131382
H6    H     H_    0.651307 0.588792 0.310980 0.138043
H7    H     H_    0.521587 0.387959 0.935738 0.141012
H8    H     H_    0.464238 0.613255 0.063125 0.141878
H9    H     H_    0.518851 0.386816 0.068110 0.170515
H10   H     H_    0.467396 0.614367 0.930790 0.166496
H11   H     H_    0.251069 0.699571 0.426299 0.167626
H12   H     H_    0.320296 0.295165 0.584606 0.176443
H13   H     H_    0.175468 0.821885 0.438589 0.163424
H14   H     H_    0.235282 0.173232 0.574451 0.168283
H15   H     H_    0.391328 0.073808 0.610746 0.185448
H16   H     H_    0.291095 0.923707 0.391446 0.186251
H17   H     H_    0.656595 0.586954 0.704267 0.156789
H18   H     H_    0.349424 0.410859 0.297527 0.146300
N1    N     N_R   0.500020 0.499980 0.689440 -0.110191
N2    N     N_R   0.499980 0.500020 0.310560 -0.116988
O1    O     O_R   0.500010 0.398180 0.560840 -0.635884
O2    O     O_R   0.499990 0.601820 0.439160 -0.635170
O3    O     O_R   0.499930 0.398180 0.439210 -0.579724
O4    O     O_R   0.500070 0.601820 0.560790 -0.597455
O5    O     O_R   0.271780 0.500000 0.546590 -0.617852
O6    O     O_R   0.728220 0.500000 0.453410 -0.617846
O7    O     O_R   0.271710 0.499990 0.424960 -0.634719
O8    O     O_R   0.728290 0.500010 0.575040 -0.621891
Zn1   Zn    Zn3+2 0.500050 0.500000 0.581210 0.937215
Zn2   Zn    Zn3+2 0.499950 0.500000 0.418790 0.934104
O9    O     O_3   0.616108 0.869155 0.604217 -0.640586
C41   C     C_3   0.669548 0.840526 0.675330 0.181496
H19   H     H_    0.698887 0.886473 0.711744 0.172346
H20   H     H_    0.782469 0.812248 0.675885 0.160551
C42   C     C_3   0.549590 0.793638 0.709312 -0.392925
H21   H     H_    0.430413 0.817007 0.698496 0.243383
H22   H     H_    0.542245 0.740257 0.684935 0.238593
C43   C     C_3   0.597920 0.784255 0.791804 -0.932093
H23   H     H_    0.716811 0.760001 0.803567 0.275130
H24   H     H_    0.512017 0.748995 0.814153 0.277204
H25   H     H_    0.599487 0.836072 0.819476 0.256183
O10   O     O_3   0.500784 0.134005 0.380553 -0.636431
C44   C     C_3   0.479447 0.164212 0.308567 0.191664
H26   H     H_    0.473920 0.119158 0.270277 0.171367
H27   H     H_    0.585051 0.194984 0.299057 0.161003
C45   C     C_3   0.328637 0.208910 0.286999 -0.404638
H28   H     H_    0.226511 0.183341 0.306872 0.242175
H29   H     H_    0.343528 0.261994 0.311942 0.235763
C46   C     C_3   0.292187 0.219228 0.204081 -0.916977
H30   H     H_    0.391030 0.247538 0.183421 0.286922
H31   H     H_    0.183219 0.250906 0.190164 0.273215
H32   H     H_    0.273201 0.167405 0.176541 0.249231
O11   O     O_3   0.711666 0.726336 0.581354 -0.641212
C47   C     C_3   0.835500 0.742563 0.541147 0.082698
H33   H     H_    0.869294 0.799278 0.547547 0.149604
H34   H     H_    0.801757 0.731489 0.481603 0.085574
C48   C     C_3   0.978188 0.696467 0.569109 -0.328184
H35   H     H_    0.944406 0.640060 0.561910 0.221381
H36   H     H_    0.073457 0.707789 0.535934 0.183670
C49   C     C_3   0.040979 0.709125 0.649728 -0.824102
H37   H     H_    0.074286 0.765394 0.658462 0.230980
H38   H     H_    0.147266 0.676179 0.666421 0.240924
H39   H     H_    0.950694 0.694401 0.684756 0.272990
O12   O     O_3   0.612235 0.276329 0.397448 -0.652043
C50   C     C_3   0.771715 0.269879 0.429012 0.083597
H40   H     H_    0.806298 0.213153 0.432999 0.145706
H41   H     H_    0.793115 0.293750 0.484556 0.124924
C51   C     C_3   0.873105 0.309100 0.379688 -0.316355
H42   H     H_    0.853521 0.285719 0.324099 0.212231
H43   H     H_    0.837163 0.365507 0.374635 0.242525
C52   C     C_3   0.048191 0.305186 0.410100 -0.977333
H44   H     H_    0.070871 0.328933 0.465409 0.272334
H45   H     H_    0.117472 0.334906 0.373337 0.260881
H46   H     H_    0.087854 0.249388 0.413420 0.263201
O13   O     O_3   0.369610 0.941198 0.642055 -0.626279
C53   C     C_3   0.215423 0.932792 0.659756 0.028713
H47   H     H_    0.165891 0.881685 0.637732 0.142644
H48   H     H_    0.134069 0.976167 0.636846 0.132927
C54   C     C_3   0.222613 0.933016 0.743083 -0.308034
H49   H     H_    0.307717 0.892883 0.768852 0.229604
H50   H     H_    0.263994 0.985711 0.764073 0.220165
C55   C     C_3   0.061432 0.917305 0.765481 -0.993707
H51   H     H_    0.973163 0.956411 0.740072 0.268129
H52   H     H_    0.069577 0.920281 0.825975 0.268032
H53   H     H_    0.021931 0.863313 0.748304 0.253695
O14   O     O_3   0.237781 0.055622 0.362424 -0.625042
C56   C     C_3   0.073416 0.066631 0.356871 0.035296
H54   H     H_    0.052410 0.119469 0.379236 0.144544
H55   H     H_    0.012589 0.025893 0.387276 0.128261
C57   C     C_3   0.000217 0.063426 0.276225 -0.309467
H56   H     H_    0.069522 0.096361 0.242148 0.235529
H57   H     H_    0.002567 0.007992 0.257268 0.214497
C58   C     C_3   0.830594 0.089618 0.265044 -0.985583
H58   H     H_    0.758485 0.058103 0.299158 0.282507
H59   H     H_    0.778682 0.084489 0.206563 0.260827
H60   H     H_    0.828404 0.146135 0.280177 0.257998
O15   O     O_3   0.683458 0.600034 0.849141 -0.669029
C59   C     C_3   0.846126 0.585157 0.852842 0.069994
H61   H     H_    0.911747 0.635068 0.867149 0.168276
H62   H     H_    0.879095 0.568360 0.799449 0.121540
C60   C     C_3   0.898887 0.529791 0.912797 -0.358161
H63   H     H_    0.863149 0.546767 0.965403 0.237607
H64   H     H_    0.841016 0.478307 0.897563 0.214133
C61   C     C_3   0.077304 0.519905 0.923306 -0.951536
H65   H     H_    0.115968 0.503367 0.871236 0.269055
H66   H     H_    0.111943 0.478448 0.965574 0.262117
H67   H     H_    0.137693 0.570020 0.941655 0.266224
O16   O     O_3   0.311675 0.398219 0.154509 -0.671237
C62   C     C_3   0.160525 0.425680 0.127960 0.076726
H68   H     H_    0.112601 0.394764 0.078824 0.173190
H69   H     H_    0.163897 0.481971 0.109388 0.132149
C63   C     C_3   0.048856 0.416970 0.185362 -0.385753
H70   H     H_    0.055622 0.362090 0.207597 0.231357
H71   H     H_    0.084375 0.453715 0.231369 0.211149
C64   C     C_3   0.878653 0.432645 0.152492 -0.934458
H72   H     H_    0.868028 0.487792 0.131060 0.268205
H73   H     H_    0.801411 0.425873 0.195422 0.271375
H74   H     H_    0.838341 0.395618 0.107286 0.259602

loop_
_geom_bond_atom_site_label_1
_geom_bond_atom_site_label_2
_ccdc_geom_bond_type
C38   C40   A    
O11   C47   S    
C64   H73   S    
C50   H40   S    
C10   N2    A    
C52   H44   S    
C21   H9    S    
C48   H35   S    
C53   H47   S    
C50   H41   S    
O14   C56   S    
C10   H18   S    
C17   H5    S    
C61   H67   S    
C43   H24   S    
C20   C25   A    
O13   C53   S    
C18   H6    S    
C51   H42   S    
O2    Zn2   S    
C23   O7    A    
C19   C26   A    
C38   O12   S    
C1    C40   S    
C2    C39   S    
C36   O10   S    
O3    Zn2   S    
C58   H60   S    
C31   C33   A    
C23   C27   S    
C46   H31   S    
C16   H4    S    
C34   C36   A    
C24   O6    A    
C22   H10   S    
C35   O9    S    
C18   N2    A    
C64   H74   S    
C41   C42   S    
C1    O3    A    
C32   H14   S    
O12   C50   S    
C48   H36   S    
C2    O4    A    
C54   H50   S    
C50   C51   S    
C45   H29   S    
C30   C40   A    
O16   C62   S    
C41   H20   S    
C3    C8    A    
C62   C63   S    
C6    H16   S    
C5    C7    A    
C43   H23   S    
O8    Zn1   S    
C6    C8    A    
C47   C48   S    
C4    C7    A    
C59   C60   S    
C49   H39   S    
C9    N1    A    
C60   H64   S    
C32   C34   A    
C57   H57   S    
C42   H21   S    
C56   H55   S    
C9    C11   A    
C27   H1    S    
N1    Zn1   S    
C44   H26   S    
C63   C64   S    
N2    Zn2   S    
C29   C39   A    
C49   H38   S    
C37   O11   S    
C52   H45   S    
C16   C18   A    
O4    Zn1   S    
C31   H13   S    
C46   H32   S    
C47   H34   S    
C42   H22   S    
C20   H8    S    
C10   C12   A    
C17   N1    A    
C61   H66   S    
C44   H27   S    
C20   C22   A    
C13   C15   A    
C58   H58   S    
C7    C34   S    
C14   C16   A    
C13   C26   S    
C60   C61   S    
C4    C6    A    
C55   H52   S    
C56   H54   S    
C46   H30   S    
C64   H72   S    
C48   C49   S    
C29   H11   S    
C54   C55   S    
O1    Zn1   S    
C15   C17   A    
C21   C25   A    
C35   C37   A    
C45   H28   S    
C5    H15   S    
C24   C28   S    
C63   H71   S    
C41   H19   S    
C3    C5    A    
C45   C46   S    
C1    O1    A    
C54   H49   S    
C51   C52   S    
C59   H62   S    
O15   C59   S    
C53   C54   S    
C4    O14   S    
C61   H65   S    
O7    Zn2   S    
C12   O16   S    
C55   H53   S    
C62   H69   S    
C57   H56   S    
C12   C14   A    
C56   C57   S    
C15   H3    S    
O9    C41   S    
C37   C39   A    
C3    O13   S    
C62   H68   S    
C36   C38   A    
C30   C32   A    
C11   C13   A    
C43   H25   S    
C23   O5    A    
O6    Zn2   S    
C30   H12   S    
O5    Zn1   S    
C28   H2    S    
C49   H37   S    
C33   C35   A    
C51   H43   S    
C52   H46   S    
C9    H17   S    
C8    C33   S    
C14   C25   S    
C11   O15   S    
C47   H33   S    
C42   C43   S    
C59   H61   S    
C24   O8    A    
C57   C58   S    
C44   C45   S    
C63   H70   S    
C29   C31   A    
O10   C44   S    
C22   C26   A    
C19   H7    S    
C27   C28   D    
C58   H59   S    
C55   H51   S    
C60   H63   S    
C2    O2    A    
C19   C21   A    
C53   H48   S    
