data_mof_unit_13582.cif
_audit_creation_date              2012-12-10T19:21:00-0500
_audit_creation_method            fapswitch 2.2
_symmetry_space_group_name_H-M    P1
_symmetry_Int_Tables_number       1
_space_group_crystal_system       triclinic
_cell_length_a                    26.026338
_cell_length_b                    34.562497
_cell_length_c                    21.691006
_cell_angle_alpha                 89.999608
_cell_angle_beta                  127.356305
_cell_angle_gamma                 90.006836
_cell_volume                      15509.5114643

loop_
_atom_site_label
_atom_site_type_symbol
_atom_type_description
_atom_site_fract_x
_atom_site_fract_y
_atom_site_fract_z
_atom_type_partial_charge
C1    C     C_R   0.000108 0.021551 0.999965 -0.177180
C2    C     C_R   0.745606 0.352916 0.167345 -0.135128
C3    C     C_R   0.380793 0.246924 0.665148 0.422278
C4    C     C_R   0.850753 0.250995 0.704624 -0.255668
C5    C     C_R   0.147398 0.750143 0.295318 -0.247351
C6    C     C_R   0.149477 0.251146 0.295443 -0.256047
C7    C     C_R   0.852624 0.750159 0.704685 -0.247317
C8    C     C_R   0.352909 0.749468 0.706022 -0.203588
C9    C     C_R   0.646851 0.250788 0.295364 -0.239126
C10   C     C_R   0.647114 0.749486 0.293973 -0.203168
C11   C     C_R   0.353533 0.251019 0.704636 -0.221657
C12   C     C_R   0.819743 0.216710 0.662354 0.435075
C13   C     C_R   0.678352 0.623866 0.055434 -0.108964
C14   C     C_R   0.212888 0.760820 0.337071 0.436217
C15   C     C_R   0.181031 0.216986 0.337902 0.435685
C16   C     C_R   0.787160 0.760884 0.662926 0.436124
C17   C     C_R   0.379214 0.744134 0.666084 0.393935
C18   C     C_R   0.714064 0.256795 0.337519 0.436836
C19   C     C_R   0.620791 0.744292 0.333916 0.393951
C20   C     C_R   0.286119 0.255979 0.662220 0.427371
C21   C     C_R   0.777299 0.217929 0.581612 -0.279675
C22   C     C_R   0.252031 0.762726 0.417628 -0.275862
C23   C     C_R   0.223813 0.218364 0.418637 -0.279743
C24   C     C_R   0.251729 0.351434 0.828469 -0.139153
C25   C     C_R   0.748045 0.762817 0.582375 -0.275944
C26   C     C_R   0.338108 0.742813 0.585287 -0.267744
C27   C     C_R   0.753248 0.259074 0.418268 -0.279579
C28   C     C_R   0.661902 0.742970 0.414716 -0.268536
C29   C     C_R   0.247142 0.258487 0.581561 -0.277502
C30   C     C_R   0.769074 0.252155 0.542308 0.015107
C31   C     C_R   0.228763 0.750527 0.458208 0.037716
C32   C     C_R   0.231854 0.252601 0.457804 0.014259
C33   C     C_R   0.771289 0.750577 0.541793 0.037777
C34   C     C_R   0.271741 0.750115 0.543767 0.044249
C35   C     C_R   0.692783 0.195356 0.813451 -0.174665
C36   C     C_R   0.727115 0.252477 0.457697 0.019064
C37   C     C_R   0.728305 0.750157 0.456230 0.044589
C38   C     C_R   0.273767 0.253026 0.542430 0.033057
C39   C     C_R   0.042819 0.041911 0.069677 0.357424
C40   C     C_R   0.941882 0.958710 0.967145 0.405168
C41   C     C_R   0.957376 0.041902 0.930251 0.357561
C42   C     C_R   0.058264 0.958686 0.032850 0.405250
C43   C     C_R   0.513662 0.542716 0.065113 0.367756
C44   C     C_R   0.444281 0.459106 0.940025 0.398079
C45   C     C_R   0.485833 0.542635 0.935039 0.368100
C46   C     C_R   0.235173 0.846731 0.070820 -0.140942
C47   C     C_R   0.555283 0.459153 0.060343 0.397369
C48   C     C_R   0.047682 0.082105 0.067831 0.271130
C49   C     C_R   0.941129 0.918713 0.958211 0.306018
C50   C     C_R   0.952424 0.082089 0.932112 0.270826
C51   C     C_R   0.058955 0.918696 0.041812 0.306073
C52   C     C_R   0.517322 0.583108 0.066501 0.258970
C53   C     C_R   0.446255 0.418735 0.937580 0.280558
C54   C     C_R   0.482414 0.583035 0.933613 0.258656
C55   C     C_R   0.553416 0.418771 0.062727 0.280981
C56   C     C_R   0.000023 0.102537 0.999979 -0.360728
C57   C     C_R   0.308416 0.196519 0.187941 -0.175561
C58   C     C_R   0.000028 0.897971 0.000008 -0.422396
C59   C     C_R   0.499942 0.603083 0.000054 -0.354010
C60   C     C_R   0.499908 0.398121 0.000091 -0.385419
C61   C     C_R   0.105426 0.250113 0.210285 0.811105
C62   C     C_R   0.894827 0.750008 0.789749 0.819175
C63   C     C_R   0.894603 0.250097 0.789740 0.811373
C64   C     C_R   0.105176 0.750009 0.210254 0.819066
C65   C     C_R   0.604846 0.749793 0.209783 0.907759
C66   C     C_R   0.395250 0.250366 0.789745 0.841544
C67   C     C_R   0.395162 0.749785 0.790214 0.907819
C68   C     C_R   0.764715 0.846878 0.929532 -0.142012
C69   C     C_R   0.604848 0.250293 0.210262 0.817346
C70   C     C_R   0.000000 0.144884 0.999993 0.920798
C71   C     C_R   0.000005 0.855289 0.000006 0.895663
C72   C     C_R   0.499992 0.645091 0.000001 0.982515
C73   C     C_R   0.499988 0.355333 0.000021 0.883101
C74   C     C_R   0.000004 0.355075 0.000003 0.757888
C75   C     C_R   0.000002 0.644921 0.000002 0.774615
C76   C     C_R   0.499999 0.855078 0.999998 0.787880
C77   C     C_R   0.499999 0.144921 0.999999 0.771623
C78   C     C_R   0.026406 0.458119 0.969317 -0.180718
C79   C     C_R   0.315202 0.656565 0.977293 -0.093270
C80   C     C_R   0.011453 0.541868 0.063168 -0.180141
C81   C     C_R   0.973679 0.458117 0.030768 -0.180677
C82   C     C_R   0.988619 0.541862 0.936898 -0.180100
C83   C     C_R   0.526907 0.958135 0.969937 -0.180771
C84   C     C_R   0.511006 0.041862 0.062909 -0.182358
C85   C     C_R   0.473063 0.958128 0.030034 -0.180769
C86   C     C_R   0.488962 0.041863 0.937067 -0.182300
C87   C     C_R   0.025946 0.417850 0.968779 -0.190743
C88   C     C_R   0.010952 0.582140 0.062880 -0.187030
C89   C     C_R   0.974116 0.417848 0.031282 -0.191379
C90   C     C_R   0.733509 0.329809 0.106963 -0.060812
C91   C     C_R   0.989091 0.582134 0.937161 -0.187040
C92   C     C_R   0.526481 0.917863 0.969428 -0.188331
C93   C     C_R   0.510546 0.082133 0.062647 -0.189532
C94   C     C_R   0.473499 0.917857 0.030551 -0.188306
C95   C     C_R   0.489432 0.082134 0.937337 -0.190030
C96   C     C_R   0.000021 0.397456 0.000020 -0.003693
C97   C     C_R   0.000013 0.602533 0.000013 0.000738
C98   C     C_R   0.499994 0.897465 0.999993 0.003594
C99   C     C_R   0.499992 0.102530 0.999995 0.003170
C100  C     C_R   0.000046 0.478647 0.000044 0.112484
C101  C     C_R   0.684625 0.656564 0.022448 -0.093538
C102  C     C_R   0.000042 0.521335 0.000038 0.112078
C103  C     C_R   0.499984 0.978656 0.999985 0.114103
C104  C     C_R   0.499983 0.021338 0.999986 0.113538
C105  C     C_3   0.837342 0.336703 0.731119 0.133811
C106  C     C_3   0.779177 0.361017 0.668385 -0.394646
C107  C     C_3   0.747525 0.381051 0.700284 -0.956203
C108  C     C_3   0.020806 0.758227 0.283359 0.101397
C109  C     C_3   0.950898 0.744429 0.238276 -0.303725
C110  C     C_3   0.904602 0.778161 0.214992 -0.988642
C111  C     C_3   0.161329 0.337101 0.268242 0.135155
C112  C     C_R   0.000085 0.979154 0.999979 -0.193392
C113  C     C_R   0.264501 0.328903 0.889843 -0.058404
C114  C     C_3   0.219156 0.361745 0.330622 -0.395543
C115  C     C_3   0.250000 0.382256 0.298159 -0.956371
C116  C     C_3   0.979218 0.758225 0.716658 0.101456
C117  C     C_3   0.049118 0.744429 0.761726 -0.303750
C118  C     C_3   0.095422 0.778164 0.784997 -0.988634
C119  C     C_3   0.213764 0.732075 0.685727 0.101613
C120  C     C_3   0.149540 0.752015 0.653443 -0.348156
C121  C     C_3   0.095384 0.722636 0.623566 -0.984677
C122  C     C_3   0.522636 0.273437 0.280851 0.077200
C123  C     C_3   0.463367 0.266828 0.278418 -0.299193
C124  C     C_R   0.725837 0.229431 0.853687 0.153366
C125  C     C_3   0.419509 0.302315 0.247487 -0.980909
C126  C     C_3   0.786260 0.731866 0.314310 0.101644
C127  C     C_3   0.850493 0.751777 0.346502 -0.348204
C128  C     C_3   0.904610 0.722378 0.376387 -0.984759
C129  C     C_3   0.474222 0.270791 0.690321 0.069510
C130  C     C_3   0.547280 0.271043 0.753419 -0.303086
C131  C     C_3   0.580030 0.302892 0.739892 -0.977537
C132  C     C_3   0.888505 0.165071 0.721347 0.114077
C133  C     C_3   0.875037 0.134781 0.661722 -0.362888
C134  C     C_3   0.936980 0.114116 0.687539 -0.967387
C135  C     C_R   0.250810 0.808048 0.095059 0.145837
C136  C     C_3   0.258875 0.732721 0.285911 0.104705
C137  C     C_3   0.332548 0.728836 0.341462 -0.374425
C138  C     C_3   0.355642 0.694297 0.320440 -0.959380
C139  C     C_3   0.112608 0.165151 0.279508 0.112963
C140  C     C_3   0.126475 0.134978 0.339504 -0.363552
C141  C     C_3   0.064710 0.114275 0.314257 -0.966980
C142  C     C_3   0.740874 0.732787 0.713722 0.104138
C143  C     C_3   0.667161 0.729160 0.658294 -0.374043
C144  C     C_3   0.643814 0.694614 0.678979 -0.959567
C145  C     C_3   0.475745 0.771621 0.708319 0.128917
C146  C     C_R   0.274373 0.230217 0.146843 0.157671
C147  C     C_3   0.503602 0.765414 0.664028 -0.362233
C148  C     C_3   0.536359 0.802069 0.664220 -0.984183
C149  C     C_3   0.750215 0.223699 0.279116 0.121134
C150  C     C_3   0.818181 0.208108 0.341508 -0.382395
C151  C     C_3   0.830842 0.170798 0.315136 -0.962291
C152  C     C_3   0.524595 0.771939 0.292556 0.128347
C153  C     C_3   0.496160 0.765268 0.336078 -0.361124
C154  C     C_3   0.464208 0.801950 0.337327 -0.985193
C155  C     C_3   0.250740 0.221483 0.720090 0.116236
C156  C     C_3   0.183403 0.205202 0.657315 -0.379345
C157  C     C_R   0.749378 0.808181 0.905281 0.145777
C158  C     C_3   0.171911 0.167262 0.683187 -0.961884
C159  C     C_3   0.050231 0.016791 0.172161 0.094998
C160  C     C_3   0.099161 0.016265 0.260534 -0.317790
C161  C     C_3   0.066896 0.005681 0.298017 -0.987622
C162  C     C_3   0.881466 0.991607 0.995893 0.091712
C163  C     C_3   0.880877 0.959243 0.044163 -0.363898
C164  C     C_3   0.873506 0.975822 0.103595 -0.984788
C165  C     C_3   0.950105 0.016651 0.827949 0.094947
C166  C     C_3   0.901309 0.016042 0.739563 -0.317872
C167  C     C_3   0.933717 0.005341 0.702310 -0.987459
C168  C     C_R   0.264573 0.682996 0.930499 0.149901
C169  C     C_3   0.118795 0.991539 0.004205 0.091880
C170  C     C_3   0.119423 0.959161 0.955990 -0.364123
C171  C     C_3   0.126814 0.975724 0.896563 -0.984637
C172  C     C_3   0.470753 0.513095 0.118550 0.113222
C173  C     C_3   0.486724 0.501269 0.196241 -0.310140
C174  C     C_3   0.426253 0.488158 0.186690 -0.990467
C175  C     C_3   0.352683 0.494030 0.898706 0.117283
C176  C     C_3   0.311519 0.463237 0.901088 -0.354626
C177  C     C_3   0.270451 0.481111 0.922187 -0.987821
C178  C     C_3   0.528684 0.512989 0.881578 0.112706
C179  C     C_R   0.764482 0.293829 0.123045 0.136037
C180  C     C_3   0.512600 0.500912 0.803944 -0.310040
C181  C     C_3   0.573062 0.487869 0.813419 -0.990693
C182  C     C_3   0.646707 0.494404 0.101998 0.118573
C183  C     C_3   0.688656 0.463905 0.100461 -0.356358
C184  C     C_3   0.729549 0.482030 0.079324 -0.987030
C185  C     C_3   0.155427 0.095619 0.148378 0.148092
C186  C     C_3   0.210238 0.107815 0.231232 -0.282162
C187  C     C_3   0.275654 0.094284 0.254565 -1.014558
C188  C     C_3   0.864154 0.894004 0.837633 0.179581
C189  C     C_3   0.824480 0.928099 0.784305 -0.359307
C190  C     C_R   0.735309 0.682961 0.069316 0.149901
C191  C     C_3   0.794190 0.918737 0.699889 -1.011627
C192  C     C_3   0.844593 0.095438 0.851334 0.150923
C193  C     C_3   0.789797 0.106730 0.767849 -0.283066
C194  C     C_3   0.724581 0.092691 0.744441 -1.015611
C195  C     C_3   0.135826 0.893986 0.162417 0.179363
C196  C     C_3   0.175557 0.928064 0.215782 -0.359392
C197  C     C_3   0.205710 0.918722 0.300166 -1.011526
C198  C     C_3   0.599352 0.605700 0.186086 0.118734
C199  C     C_3   0.615183 0.634695 0.248635 -0.290461
C200  C     C_3   0.687707 0.642380 0.305496 -0.983894
C201  C     C_R   0.234741 0.292603 0.875345 0.136204
C202  C     C_3   0.401277 0.393729 0.817912 0.145457
C203  C     C_3   0.343065 0.371420 0.750630 -0.304949
C204  C     C_3   0.351846 0.360788 0.689294 -0.991322
C205  C     C_3   0.400500 0.605641 0.813987 0.118802
C206  C     C_3   0.384811 0.634642 0.751514 -0.290513
C207  C     C_3   0.312320 0.642426 0.694648 -0.983644
C208  C     C_3   0.597363 0.393552 0.181942 0.144909
C209  C     C_3   0.655242 0.371177 0.249509 -0.302557
C210  C     C_3   0.645380 0.360167 0.309782 -0.994260
C211  C     C_R   0.740143 0.256657 0.817718 -0.114888
C212  C     C_R   0.499703 0.522233 0.000090 -0.188802
C213  C     C_R   0.281536 0.798817 0.173152 -0.110214
C214  C     C_R   0.258915 0.257232 0.181945 -0.120303
C215  C     C_R   0.718953 0.798979 0.827248 -0.109150
C216  C     C_R   0.219577 0.675812 0.850670 -0.167223
C217  C     C_R   0.810123 0.282335 0.200587 -0.198582
C218  C     C_R   0.780286 0.675729 0.149127 -0.167010
C219  C     C_R   0.189709 0.280135 0.798351 -0.197906
C220  C     C_R   0.723188 0.249421 0.744054 -0.111134
C221  C     C_R   0.295622 0.827779 0.226266 -0.112935
C222  C     C_R   0.275746 0.250144 0.255600 -0.120675
C223  C     C_R   0.499757 0.479589 0.000165 -0.193648
C224  C     C_R   0.704829 0.827986 0.774198 -0.113998
C225  C     C_R   0.225987 0.643127 0.817804 -0.151042
C226  C     C_R   0.822874 0.305901 0.260867 -0.044408
C227  C     C_R   0.773803 0.643030 0.181902 -0.151122
C228  C     C_R   0.176256 0.303119 0.737058 -0.041454
C229  C     C_R   0.690708 0.215397 0.704881 -0.075837
C230  C     C_R   0.281210 0.866270 0.202272 -0.151360
C231  C     C_R   0.309234 0.216500 0.295625 -0.075253
C232  C     C_R   0.718920 0.866487 0.798196 -0.150672
C233  C     C_R   0.276849 0.617195 0.864523 -0.127665
C234  C     C_R   0.674929 0.188622 0.739201 -0.148262
C235  C     C_R   0.790190 0.340969 0.244239 -0.106227
C236  C     C_R   0.722886 0.617133 0.135111 -0.127441
C237  C     C_R   0.207695 0.338548 0.752131 -0.106345
C238  C     C_R   0.204163 0.720058 0.964315 -0.256593
C239  C     C_R   0.807359 0.268656 0.057520 -0.253083
C240  C     C_R   0.795790 0.720041 0.035609 -0.256699
C241  C     C_R   0.192370 0.268154 0.941924 -0.252524
C242  C     C_R   0.689974 0.236381 0.935872 -0.257113
C243  C     C_R   0.298802 0.777270 0.040735 -0.256567
C244  C     C_R   0.310434 0.237148 0.064819 -0.249791
C245  C     C_R   0.250700 0.875750 0.124606 -0.068746
C246  C     C_R   0.701290 0.777328 0.959432 -0.256891
C247  C     C_R   0.197838 0.750019 0.002850 -0.050384
C248  C     C_R   0.801169 0.252308 0.994425 -0.056765
C249  C     C_R   0.802181 0.750034 0.997187 -0.050352
C250  C     C_R   0.198833 0.252329 0.005558 -0.057099
C251  C     C_R   0.696274 0.252379 0.999521 -0.056792
C252  C     C_R   0.304870 0.747641 0.001910 -0.056351
C253  C     C_R   0.303751 0.252444 0.000490 -0.059172
C254  C     C_R   0.695139 0.747655 0.998111 -0.056226
C255  C     C_R   0.247048 0.778388 0.043512 -0.011501
C256  C     C_R   0.326137 0.189950 0.262168 -0.148905
C257  C     C_R   0.740447 0.238305 0.930056 0.003127
C258  C     C_R   0.753054 0.778454 0.956671 -0.011332
C259  C     C_R   0.259813 0.238892 0.070422 0.004736
C260  C     C_R   0.755081 0.270686 0.059359 -0.009275
C261  C     C_R   0.258007 0.717780 0.965242 -0.008986
C262  C     C_R   0.244593 0.270141 0.939964 -0.011135
C263  C     C_R   0.741942 0.717766 0.034676 -0.008885
C264  C     C_R   0.801082 0.285879 0.583593 -0.273493
C265  C     C_R   0.164523 0.737906 0.416602 -0.280990
C266  C     C_R   0.199299 0.286185 0.416377 -0.275098
C267  C     C_R   0.749169 0.875938 0.875813 -0.068294
C268  C     C_R   0.835502 0.737913 0.583405 -0.281071
C269  C     C_R   0.246471 0.756746 0.584441 -0.297070
C270  C     C_R   0.661247 0.244883 0.416526 -0.270285
C271  C     C_R   0.753592 0.756675 0.415543 -0.297243
C272  C     C_R   0.339997 0.246582 0.583833 -0.299459
C273  C     C_R   0.141012 0.250695 0.001906 0.778677
C274  C     C_R   0.859499 0.750151 0.999421 0.782608
C275  C     C_R   0.858979 0.250701 0.998070 0.779109
C276  C     C_R   0.140509 0.750146 0.000594 0.782608
C277  C     C_R   0.639666 0.749160 0.999187 0.801684
C278  C     C_R   0.321402 0.623881 0.944217 -0.109157
C279  C     C_R   0.359626 0.250428 0.999751 0.776624
C280  C     C_R   0.360333 0.749157 0.000813 0.801929
C281  C     C_R   0.640381 0.250420 0.000249 0.773083
C282  C     C_R   0.839822 0.286047 0.664439 0.440184
C283  C     C_R   0.123170 0.738955 0.335887 0.414545
C284  C     C_R   0.160175 0.286218 0.335500 0.440098
C285  C     C_R   0.876848 0.738957 0.664121 0.414522
C286  C     C_R   0.286082 0.754354 0.665359 0.416459
C287  C     C_R   0.620570 0.244972 0.335662 0.421285
C288  C     C_R   0.713964 0.754263 0.334624 0.416362
H1    H     H_    0.752587 0.191750 0.549438 0.165778
H2    H     H_    0.294301 0.888743 0.244151 0.132300
H3    H     H_    0.094748 0.797973 0.824838 0.262678
H4    H     H_    0.230223 0.716338 0.739478 0.171896
H5    H     H_    0.206270 0.709632 0.643850 0.125608
H6    H     H_    0.155134 0.769789 0.699843 0.231731
H7    H     H_    0.135986 0.771569 0.605048 0.220501
H8    H     H_    0.086381 0.706347 0.573704 0.268550
H9    H     H_    0.050259 0.737940 0.603909 0.271066
H10   H     H_    0.108349 0.701936 0.670112 0.257858
H11   H     H_    0.506982 0.284150 0.223449 0.139194
H12   H     H_    0.552815 0.296238 0.325379 0.115025
H13   H     H_    0.322684 0.211208 0.352902 0.128941
H14   H     H_    0.435628 0.241576 0.241039 0.233260
H15   H     H_    0.479442 0.260247 0.337885 0.212525
H16   H     H_    0.446764 0.328142 0.283252 0.262313
H17   H     H_    0.378682 0.297252 0.249916 0.274506
H18   H     H_    0.399662 0.307888 0.186277 0.262302
H19   H     H_    0.769772 0.716069 0.260605 0.171905
H20   H     H_    0.793751 0.709478 0.356267 0.125586
H21   H     H_    0.844885 0.769509 0.300050 0.231811
H22   H     H_    0.864097 0.771366 0.394873 0.220502
H23   H     H_    0.913593 0.706105 0.426252 0.268586
H24   H     H_    0.705777 0.888989 0.756355 0.132168
H25   H     H_    0.949755 0.737663 0.396042 0.271063
H26   H     H_    0.891619 0.701667 0.329843 0.257862
H27   H     H_    0.454914 0.299818 0.689175 0.122728
H28   H     H_    0.464477 0.265258 0.633576 0.141460
H29   H     H_    0.557690 0.275674 0.810739 0.218641
H30   H     H_    0.567475 0.242598 0.754009 0.229929
H31   H     H_    0.572797 0.297854 0.684520 0.268416
H32   H     H_    0.632674 0.302904 0.788088 0.269849
H33   H     H_    0.560067 0.331644 0.738044 0.260548
H34   H     H_    0.911398 0.150556 0.778070 0.210573
H35   H     H_    0.281697 0.591901 0.838993 0.104568
H36   H     H_    0.924642 0.186538 0.730430 0.096347
H37   H     H_    0.839955 0.113144 0.653929 0.222288
H38   H     H_    0.853581 0.149041 0.605021 0.216742
H39   H     H_    0.971958 0.135123 0.693268 0.263163
H40   H     H_    0.925591 0.092031 0.643702 0.272659
H41   H     H_    0.959384 0.099488 0.744135 0.269485
H42   H     H_    0.242297 0.733125 0.225212 0.159277
H43   H     H_    0.236431 0.706368 0.290532 0.106466
H44   H     H_    0.355114 0.755501 0.339304 0.223793
H45   H     H_    0.348585 0.725194 0.401685 0.213701
H46   H     H_    0.799849 0.359037 0.290963 0.120615
H47   H     H_    0.334316 0.667088 0.323070 0.267931
H48   H     H_    0.409127 0.692203 0.362165 0.267405
H49   H     H_    0.341688 0.697894 0.261149 0.259012
H50   H     H_    0.089695 0.150501 0.222901 0.210518
H51   H     H_    0.076357 0.186535 0.270365 0.097072
H52   H     H_    0.161515 0.113350 0.347181 0.222136
H53   H     H_    0.148132 0.149345 0.396163 0.216856
H54   H     H_    0.029849 0.135265 0.308827 0.263257
H55   H     H_    0.076394 0.092210 0.358252 0.272638
H56   H     H_    0.042023 0.099618 0.257623 0.269552
H57   H     H_    0.717978 0.591831 0.160572 0.104332
H58   H     H_    0.757581 0.733030 0.774474 0.159024
H59   H     H_    0.762987 0.706401 0.708669 0.106748
H60   H     H_    0.644904 0.755855 0.660884 0.223880
H61   H     H_    0.650971 0.725686 0.597979 0.213649
H62   H     H_    0.664858 0.667382 0.675966 0.267942
H63   H     H_    0.590309 0.692690 0.637312 0.267273
H64   H     H_    0.657882 0.698063 0.738346 0.259188
H65   H     H_    0.516338 0.777788 0.769978 0.178022
H66   H     H_    0.444274 0.797960 0.685474 0.124054
H67   H     H_    0.539493 0.741492 0.691427 0.234874
H68   H     H_    0.197507 0.356157 0.704621 0.121033
H69   H     H_    0.464336 0.757274 0.603038 0.215798
H70   H     H_    0.500791 0.826046 0.634976 0.267657
H71   H     H_    0.556728 0.796746 0.632506 0.260444
H72   H     H_    0.575995 0.810757 0.724674 0.271411
H73   H     H_    0.743927 0.227069 0.223995 0.169457
H74   H     H_    0.713319 0.201996 0.267005 0.098409
H75   H     H_    0.854781 0.230004 0.354561 0.222484
H76   H     H_    0.823566 0.202274 0.395533 0.217900
H77   H     H_    0.795291 0.148228 0.302676 0.266434
H78   H     H_    0.880202 0.160092 0.361700 0.267738
H79   H     H_    0.648298 0.162773 0.707907 0.140304
H80   H     H_    0.827345 0.176116 0.262184 0.259594
H81   H     H_    0.484350 0.778647 0.231035 0.177677
H82   H     H_    0.556487 0.798096 0.316583 0.123753
H83   H     H_    0.459664 0.741694 0.307359 0.234518
H84   H     H_    0.535001 0.756406 0.396740 0.216110
H85   H     H_    0.500380 0.825552 0.367906 0.267662
H86   H     H_    0.443403 0.796298 0.368447 0.260388
H87   H     H_    0.425012 0.811362 0.277222 0.271468
H88   H     H_    0.256540 0.224382 0.774989 0.168264
H89   H     H_    0.288487 0.200425 0.732435 0.097585
H90   H     H_    0.240302 0.905685 0.106675 0.139803
H91   H     H_    0.145984 0.226440 0.644266 0.221959
H92   H     H_    0.178443 0.199981 0.603388 0.217598
H93   H     H_    0.208305 0.145338 0.695635 0.266260
H94   H     H_    0.122985 0.156076 0.636359 0.267597
H95   H     H_    0.175007 0.171933 0.736032 0.259645
H96   H     H_    0.025242 0.988344 0.151940 0.136920
H97   H     H_    0.013987 0.039866 0.156278 0.116259
H98   H     H_    0.137900 0.994954 0.278963 0.230797
H99   H     H_    0.121897 0.045275 0.281192 0.232322
H100  H     H_    0.046460 0.975995 0.280635 0.267885
H101  H     H_    0.353494 0.164392 0.294081 0.140074
H102  H     H_    0.027527 0.026428 0.280227 0.266903
H103  H     H_    0.103206 0.006634 0.362112 0.270193
H104  H     H_    0.836008 0.008458 0.967428 0.154873
H105  H     H_    0.921074 0.012337 0.034050 0.103202
H106  H     H_    0.840241 0.939174 0.005264 0.236887
H107  H     H_    0.926718 0.942547 0.075704 0.199930
H108  H     H_    0.914290 0.995647 0.143908 0.263545
H109  H     H_    0.873609 0.951890 0.137819 0.270515
H110  H     H_    0.827187 0.991866 0.073983 0.266668
H111  H     H_    0.975038 0.988197 0.848324 0.136849
H112  H     H_    0.301165 0.772941 0.448029 0.153773
H113  H     H_    0.759320 0.905879 0.893747 0.139020
H114  H     H_    0.986408 0.039693 0.843843 0.116091
H115  H     H_    0.862517 0.994760 0.721104 0.230796
H116  H     H_    0.878624 0.045051 0.718752 0.231988
H117  H     H_    0.954125 0.975657 0.719858 0.267854
H118  H     H_    0.973128 0.026065 0.720122 0.266869
H119  H     H_    0.897502 0.006228 0.638197 0.270180
H120  H     H_    0.164268 0.008387 0.032713 0.154941
H121  H     H_    0.079212 0.012269 0.966013 0.103198
H122  H     H_    0.160070 0.939111 0.994926 0.236680
H123  H     H_    0.073592 0.942447 0.924451 0.199973
H124  H     H_    0.360768 0.603768 0.980308 0.119486
H125  H     H_    0.086027 0.995533 0.856218 0.263574
H126  H     H_    0.126733 0.951783 0.862372 0.270514
H127  H     H_    0.173128 0.991781 0.926176 0.266668
H128  H     H_    0.448568 0.487774 0.078962 0.121717
H129  H     H_    0.435498 0.537546 0.094343 0.130177
H130  H     H_    0.522324 0.477169 0.221520 0.217888
H131  H     H_    0.508675 0.526226 0.236867 0.231370
H132  H     H_    0.390336 0.512016 0.162582 0.268833
H133  H     H_    0.439376 0.479759 0.244038 0.269825
H134  H     H_    0.404196 0.462777 0.147262 0.263713
H135  H     H_    0.720877 0.380233 0.154546 0.163588
H136  H     H_    0.319641 0.515670 0.853659 0.149709
H137  H     H_    0.382115 0.510290 0.954010 0.091027
H138  H     H_    0.279304 0.449237 0.843264 0.234886
H139  H     H_    0.343166 0.440785 0.944907 0.218464
H140  H     H_    0.301944 0.494604 0.980622 0.264106
H141  H     H_    0.240879 0.458237 0.922950 0.271257
H142  H     H_    0.237533 0.503406 0.878854 0.269088
H143  H     H_    0.551140 0.487808 0.921503 0.121497
H144  H     H_    0.563749 0.537537 0.905360 0.130845
H145  H     H_    0.477185 0.476713 0.779091 0.217573
H146  H     H_    0.638944 0.603781 0.019287 0.119642
H147  H     H_    0.490384 0.525728 0.762991 0.231343
H148  H     H_    0.608790 0.511823 0.837099 0.268929
H149  H     H_    0.559853 0.479283 0.756113 0.269719
H150  H     H_    0.595383 0.462624 0.853176 0.263589
H151  H     H_    0.679184 0.516284 0.146818 0.149156
H152  H     H_    0.617209 0.510433 0.046424 0.090731
H153  H     H_    0.721033 0.450219 0.158584 0.234525
H154  H     H_    0.657554 0.441185 0.057016 0.218128
H155  H     H_    0.697918 0.495208 0.020605 0.263959
H156  H     H_    0.759724 0.459361 0.079218 0.271251
H157  H     H_    0.275493 0.379034 0.840049 0.161757
H158  H     H_    0.761880 0.504623 0.122269 0.269011
H159  H     H_    0.157552 0.113451 0.107230 0.133292
H160  H     H_    0.163302 0.064761 0.141093 0.171687
H161  H     H_    0.210519 0.139831 0.235813 0.268460
H162  H     H_    0.202396 0.094982 0.271899 0.228840
H163  H     H_    0.277212 0.062187 0.253404 0.274001
H164  H     H_    0.314480 0.104199 0.314429 0.267973
H165  H     H_    0.284562 0.106310 0.214330 0.264479
H166  H     H_    0.834109 0.867405 0.813999 0.195969
H167  H     H_    0.906207 0.888463 0.837150 0.092862
H168  H     H_    0.680274 0.174200 0.839183 0.127752
H169  H     H_    0.785813 0.935678 0.789517 0.244059
H170  H     H_    0.856441 0.953575 0.802321 0.262213
H171  H     H_    0.832440 0.912057 0.693399 0.270371
H172  H     H_    0.766080 0.944057 0.662890 0.272504
H173  H     H_    0.761020 0.893588 0.679875 0.274937
H174  H     H_    0.841862 0.113734 0.891501 0.133550
H175  H     H_    0.837222 0.064686 0.859899 0.170511
H176  H     H_    0.788643 0.138703 0.761992 0.267056
H177  H     H_    0.798377 0.093636 0.728025 0.228943
H178  H     H_    0.723737 0.060583 0.746138 0.274942
H179  H     H_    0.213391 0.854499 0.011275 0.118980
H180  H     H_    0.685650 0.102298 0.684378 0.268023
H181  H     H_    0.715241 0.104633 0.784338 0.263656
H182  H     H_    0.165811 0.867369 0.186062 0.195999
H183  H     H_    0.093730 0.888486 0.162837 0.092934
H184  H     H_    0.214305 0.935583 0.210675 0.243897
H185  H     H_    0.143659 0.953572 0.197715 0.262293
H186  H     H_    0.167381 0.912111 0.306553 0.270359
H187  H     H_    0.233881 0.944024 0.337198 0.272447
H188  H     H_    0.238800 0.893534 0.320224 0.274981
H189  H     H_    0.622799 0.615666 0.159697 0.150802
H190  H     H_    0.321774 0.175516 0.162881 0.127606
H191  H     H_    0.619590 0.576960 0.213628 0.170612
H192  H     H_    0.589833 0.662418 0.220857 0.241470
H193  H     H_    0.597706 0.623287 0.280829 0.221511
H194  H     H_    0.714143 0.615096 0.334521 0.261813
H195  H     H_    0.697514 0.663280 0.350382 0.270241
H196  H     H_    0.705624 0.654903 0.274570 0.266458
H197  H     H_    0.445905 0.376583 0.841208 0.111820
H198  H     H_    0.404607 0.421979 0.795736 0.155128
H199  H     H_    0.336432 0.344456 0.772941 0.270946
H200  H     H_    0.298840 0.389385 0.723603 0.209267
H201  H     H_    0.786258 0.854620 0.989022 0.119157
H202  H     H_    0.358018 0.387294 0.665440 0.263616
H203  H     H_    0.308591 0.344854 0.641218 0.275111
H204  H     H_    0.394824 0.341900 0.714935 0.252457
H205  H     H_    0.377071 0.615652 0.840370 0.150950
H206  H     H_    0.380151 0.576923 0.786381 0.170687
H207  H     H_    0.410275 0.662335 0.779362 0.241583
H208  H     H_    0.402255 0.623198 0.719310 0.221538
H209  H     H_    0.285767 0.615172 0.665579 0.261720
H210  H     H_    0.302612 0.663313 0.649797 0.270283
H211  H     H_    0.294445 0.655003 0.725579 0.266556
H212  H     H_    0.349997 0.661477 0.039110 0.111551
H213  H     H_    0.552635 0.376352 0.157889 0.108881
H214  H     H_    0.593670 0.421711 0.204068 0.154776
H215  H     H_    0.662424 0.344380 0.227311 0.271429
H216  H     H_    0.699483 0.389228 0.277452 0.209600
H217  H     H_    0.638738 0.386519 0.333558 0.264615
H218  H     H_    0.688382 0.344171 0.358089 0.275714
H219  H     H_    0.602321 0.341236 0.283240 0.245730
H220  H     H_    0.046695 0.402691 0.944916 0.161159
H221  H     H_    0.020041 0.597308 0.112329 0.161005
H222  H     H_    0.953360 0.402687 0.055137 0.161086
H223  H     H_    0.248875 0.192280 0.450931 0.165869
H224  H     H_    0.699908 0.339827 0.047677 0.115564
H225  H     H_    0.979992 0.597296 0.887703 0.161007
H226  H     H_    0.547696 0.902702 0.946134 0.154005
H227  H     H_    0.519347 0.097294 0.111947 0.159108
H228  H     H_    0.452288 0.902690 0.053848 0.154004
H229  H     H_    0.480633 0.097295 0.888040 0.158536
H230  H     H_    0.649842 0.661514 0.960645 0.111476
H231  H     H_    0.297620 0.339639 0.948659 0.115197
H232  H     H_    0.763768 0.283689 0.846335 0.089689
H233  H     H_    0.297237 0.769490 0.193267 0.122094
H234  H     H_    0.234547 0.284009 0.152712 0.093083
H235  H     H_    0.703475 0.769632 0.807110 0.122067
H236  H     H_    0.180051 0.695721 0.813983 0.125687
H237  H     H_    0.836012 0.255290 0.214253 0.125827
H238  H     H_    0.819851 0.695612 0.185871 0.125721
H239  H     H_    0.698943 0.773080 0.551987 0.153806
H240  H     H_    0.164766 0.252808 0.785883 0.124974
H241  H     H_    0.734425 0.270407 0.716825 0.108817
H242  H     H_    0.319798 0.820654 0.286587 0.155414
H243  H     H_    0.263671 0.270973 0.282192 0.110068
H244  H     H_    0.680855 0.820883 0.713912 0.155593
H245  H     H_    0.191549 0.637932 0.756088 0.128100
H246  H     H_    0.858141 0.297029 0.320537 0.125812
H247  H     H_    0.808226 0.637798 0.243604 0.128046
H248  H     H_    0.141416 0.293511 0.677801 0.125852
H249  H     H_    0.168080 0.697355 0.935461 0.169778
H250  H     H_    0.358402 0.735902 0.555464 0.150194
H251  H     H_    0.853098 0.281040 0.105304 0.176491
H252  H     H_    0.831821 0.697313 0.064374 0.169766
H253  H     H_    0.146398 0.280086 0.893691 0.176176
H254  H     H_    0.644135 0.224210 0.888296 0.163923
H255  H     H_    0.335493 0.799615 0.070864 0.168483
H256  H     H_    0.356623 0.225630 0.112894 0.166105
H257  H     H_    0.664653 0.799702 0.929402 0.168410
H258  H     H_    0.794448 0.312416 0.552900 0.167688
H259  H     H_    0.145882 0.726915 0.446252 0.160702
H260  H     H_    0.205677 0.312710 0.446976 0.167706
H261  H     H_    0.804577 0.264388 0.450353 0.165560
H262  H     H_    0.854135 0.726896 0.553767 0.160704
H263  H     H_    0.195990 0.763887 0.553786 0.151868
H264  H     H_    0.641097 0.239594 0.447211 0.164394
H265  H     H_    0.804098 0.763746 0.446182 0.151835
H266  H     H_    0.359788 0.241535 0.552721 0.151519
H267  H     H_    0.048136 0.473151 0.946557 0.132547
H268  H     H_    0.021583 0.526839 0.113258 0.132376
H269  H     H_    0.951956 0.473146 0.053534 0.132524
H270  H     H_    0.978497 0.526828 0.886815 0.132409
H271  H     H_    0.549051 0.973176 0.947701 0.129311
H272  H     H_    0.641569 0.736161 0.444534 0.150185
H273  H     H_    0.520806 0.026823 0.112820 0.130870
H274  H     H_    0.450917 0.973163 0.052268 0.129346
H275  H     H_    0.479160 0.026824 0.887152 0.130722
H276  H     H_    0.872349 0.355951 0.780471 0.173153
H277  H     H_    0.822061 0.314768 0.754695 0.085073
H278  H     H_    0.795252 0.383213 0.646329 0.236012
H279  H     H_    0.742691 0.342161 0.619253 0.214865
H280  H     H_    0.730182 0.359251 0.721491 0.260070
H281  H     H_    0.705553 0.398344 0.653658 0.269175
H282  H     H_    0.782509 0.400751 0.748664 0.266762
H283  H     H_    0.195595 0.263005 0.549267 0.164759
H284  H     H_    0.023303 0.780636 0.248254 0.118685
H285  H     H_    0.035970 0.771264 0.339139 0.122330
H286  H     H_    0.936664 0.728933 0.185224 0.252455
H287  H     H_    0.947062 0.723823 0.274567 0.216646
H288  H     H_    0.918460 0.794463 0.267180 0.263887
H289  H     H_    0.854664 0.766995 0.184571 0.273530
H290  H     H_    0.905302 0.797971 0.175172 0.262705
H291  H     H_    0.125827 0.356185 0.218876 0.173658
H292  H     H_    0.176792 0.315380 0.244541 0.084735
H293  H     H_    0.202892 0.383672 0.352899 0.236116
H294  H     H_    0.677160 0.209975 0.647595 0.128754
H295  H     H_    0.256177 0.343055 0.379686 0.214455
H296  H     H_    0.267506 0.360736 0.276700 0.259413
H297  H     H_    0.291755 0.399774 0.344543 0.269087
H298  H     H_    0.214463 0.401808 0.249848 0.267077
H299  H     H_    0.976737 0.780634 0.751775 0.118670
H300  H     H_    0.964055 0.771263 0.660881 0.122335
H301  H     H_    0.063355 0.728938 0.814782 0.252410
H302  H     H_    0.052936 0.723819 0.725428 0.216601
H303  H     H_    0.081549 0.794467 0.732805 0.263905
H304  H     H_    0.145353 0.767002 0.815390 0.273520
O1    O     O_3   0.000000 0.250000 0.000000 -0.496190
O2    O     O_R   0.406930 0.227260 0.045480 -0.637759
O3    O     O_R   0.406930 0.772740 0.045480 -0.656685
O4    O     O_R   0.593070 0.227260 0.954520 -0.638863
O5    O     O_R   0.117100 0.227270 0.173460 -0.608519
O6    O     O_R   0.882900 0.772730 0.826540 -0.621591
O7    O     O_R   0.882900 0.227270 0.826540 -0.608779
O8    O     O_R   0.117100 0.772730 0.173460 -0.621673
O9    O     O_R   0.617100 0.727270 0.173460 -0.634143
O10   O     O_R   0.382900 0.272730 0.826540 -0.625663
O11   O     O_R   0.382900 0.727270 0.826540 -0.634166
O12   O     O_3   0.000000 0.750000 0.000000 -0.495392
O13   O     O_R   0.617100 0.272730 0.173460 -0.622341
O14   O     O_R   0.053120 0.163270 0.045480 -0.624849
O15   O     O_R   0.946880 0.836730 0.954520 -0.621285
O16   O     O_R   0.946880 0.163270 0.954520 -0.624839
O17   O     O_R   0.053120 0.836730 0.045480 -0.621313
O18   O     O_R   0.553120 0.663270 0.045480 -0.652787
O19   O     O_R   0.446880 0.336730 0.954520 -0.614054
O20   O     O_R   0.446880 0.663270 0.954520 -0.652845
O21   O     O_R   0.553120 0.336730 0.045480 -0.614371
O22   O     O_R   0.007620 0.336730 0.954520 -0.644735
O23   O     O_3   0.500000 0.750000 0.000000 -0.489625
O24   O     O_R   0.992380 0.663270 0.045480 -0.643824
O25   O     O_R   0.992380 0.336730 0.045480 -0.645349
O26   O     O_R   0.007620 0.663270 0.954520 -0.643808
O27   O     O_R   0.507620 0.836730 0.954520 -0.647871
O28   O     O_R   0.492380 0.163270 0.045480 -0.644063
O29   O     O_R   0.492380 0.836730 0.045480 -0.647946
O30   O     O_R   0.507620 0.163270 0.954520 -0.645149
O31   O     O_R   0.056370 0.272740 0.173460 -0.610166
O32   O     O_R   0.943630 0.727260 0.826540 -0.601937
O33   O     O_R   0.943630 0.272740 0.826540 -0.610228
O34   O     O_3   0.500000 0.250000 0.000000 -0.496088
O35   O     O_R   0.056370 0.727260 0.173460 -0.601921
O36   O     O_R   0.556370 0.772740 0.173460 -0.650077
O37   O     O_R   0.443630 0.227260 0.826540 -0.603136
O38   O     O_R   0.443630 0.772740 0.826540 -0.650827
O39   O     O_R   0.556370 0.227260 0.173460 -0.607098
O40   O     O_R   0.138550 0.227260 0.045470 -0.639384
O41   O     O_R   0.861450 0.772740 0.954530 -0.633517
O42   O     O_R   0.861450 0.227260 0.954530 -0.639450
O43   O     O_R   0.138550 0.772740 0.045470 -0.633526
O44   O     O_R   0.638550 0.727260 0.045470 -0.633644
O45   O     O_R   0.093070 0.272740 0.954520 -0.646406
O46   O     O_R   0.361450 0.272740 0.954530 -0.644040
O47   O     O_R   0.361450 0.727260 0.954530 -0.633800
O48   O     O_R   0.638550 0.272740 0.045470 -0.642535
O49   O     O_3   0.869499 0.320361 0.703060 -0.617771
O50   O     O_3   0.060281 0.726223 0.297341 -0.611664
O51   O     O_3   0.129774 0.320379 0.296767 -0.617741
O52   O     O_3   0.939729 0.726221 0.702671 -0.611650
O53   O     O_3   0.261064 0.760371 0.705701 -0.637162
O54   O     O_3   0.555486 0.237877 0.297078 -0.614992
O55   O     O_3   0.738989 0.760189 0.294263 -0.637067
O56   O     O_R   0.906930 0.727260 0.045480 -0.654774
O57   O     O_3   0.446800 0.241103 0.706825 -0.616290
O58   O     O_3   0.829825 0.181786 0.699272 -0.641714
O59   O     O_3   0.239961 0.768172 0.299745 -0.631279
O60   O     O_3   0.171083 0.182013 0.301185 -0.642003
O61   O     O_3   0.760073 0.768229 0.700236 -0.631346
O62   O     O_3   0.444686 0.737382 0.706187 -0.650833
O63   O     O_3   0.742167 0.260689 0.300467 -0.627403
O64   O     O_3   0.555264 0.737724 0.293796 -0.650351
O65   O     O_3   0.257681 0.258856 0.699027 -0.628367
O66   O     O_3   0.083198 0.022854 0.139909 -0.602724
O67   O     O_R   0.906930 0.272740 0.045480 -0.646576
O68   O     O_3   0.883573 0.977223 0.936265 -0.595811
O69   O     O_3   0.917014 0.022847 0.860005 -0.602452
O70   O     O_3   0.116613 0.977172 0.063786 -0.595704
O71   O     O_3   0.528462 0.523656 0.130235 -0.586081
O72   O     O_3   0.390010 0.477909 0.877596 -0.580859
O73   O     O_3   0.470989 0.523484 0.869977 -0.586304
O74   O     O_3   0.609412 0.477995 0.122915 -0.580235
O75   O     O_3   0.095488 0.101488 0.134865 -0.616077
O76   O     O_3   0.882016 0.900059 0.913047 -0.594928
O77   O     O_3   0.904600 0.101454 0.865073 -0.615963
O78   O     O_R   0.093070 0.727260 0.954520 -0.654770
O79   O     O_3   0.118043 0.900028 0.087036 -0.595198
O80   O     O_3   0.531512 0.603343 0.130182 -0.627312
O81   O     O_3   0.392775 0.399550 0.875643 -0.608612
O82   O     O_3   0.468328 0.603193 0.869908 -0.627586
O83   O     O_3   0.606706 0.399626 0.124982 -0.608834
O84   O     O_R   0.593070 0.772740 0.954520 -0.657091
Zn1   Zn    Zn3+2 0.989110 0.282490 0.064980 0.960242
Zn2   Zn    Zn3+2 0.924120 0.782490 0.935020 0.972413
Zn3   Zn    Zn3+2 0.924120 0.217510 0.935020 0.972711
Zn4   Zn    Zn3+2 0.075880 0.782490 0.064980 0.972393
Zn5   Zn    Zn3+2 0.575880 0.717510 0.064980 0.986979
Zn6   Zn    Zn3+2 0.424120 0.282490 0.935020 0.966096
Zn7   Zn    Zn3+2 0.424120 0.717510 0.935020 0.986907
Zn8   Zn    Zn3+2 0.575880 0.282490 0.064980 0.965518
Zn9   Zn    Zn3+2 0.010890 0.717510 0.935020 0.962864
Zn10  Zn    Zn3+2 0.010890 0.282490 0.935020 0.960558
Zn11  Zn    Zn3+2 0.989110 0.717510 0.064980 0.962863
Zn12  Zn    Zn3+2 0.489110 0.782490 0.064980 0.965128
Zn13  Zn    Zn3+2 0.510890 0.217510 0.935020 0.970349
Zn14  Zn    Zn3+2 0.510890 0.782490 0.935020 0.964657
Zn15  Zn    Zn3+2 0.489110 0.217510 0.064980 0.967087
Zn16  Zn    Zn3+2 0.075880 0.217510 0.064980 0.972517

loop_
_geom_bond_atom_site_label_1
_geom_bond_atom_site_label_2
_ccdc_geom_bond_type
C52   O80   S    
C203  H199  S    
C126  C127  S    
C194  H178  S    
C35   C124  A    
C115  H296  S    
C41   C50   A    
C49   O76   S    
O6    Zn2   S    
C107  H280  S    
C286  O53   S    
C114  C115  S    
C165  C166  S    
C72   O18   A    
C132  H34   S    
C211  C220  A    
C62   O6    A    
C119  O53   S    
C202  H197  S    
C242  C251  A    
C86   H275  S    
C175  H137  S    
C244  H256  S    
C169  H121  S    
C89   H222  S    
C113  H231  S    
C192  H175  S    
C95   C99   A    
C233  C278  A    
C191  H172  S    
C76   C98   S    
C143  C144  S    
C243  C255  A    
C175  O72   S    
C125  H18   S    
C2    C90   A    
C119  H5    S    
C182  C183  S    
C214  C222  A    
C125  H16   S    
C44   C53   A    
C186  H162  S    
C132  O58   S    
C29   H283  S    
C111  H291  S    
O8    Zn4   S    
O2    Zn15  S    
C173  H130  S    
C113  C201  A    
C4    C12   A    
C176  H139  S    
C88   C97   A    
C85   C103  A    
C184  H155  S    
C217  C226  A    
C114  H295  S    
C284  O51   S    
C8    C286  A    
C199  C200  S    
C131  H32   S    
C151  H80   S    
C185  O75   S    
C107  H282  S    
C273  O45   A    
O39   Zn15  S    
O37   Zn13  S    
C77   O28   A    
O12   Zn11  S    
C268  H262  S    
C172  H128  S    
C11   C20   A    
C157  C215  A    
C45   C212  A    
C202  C203  S    
C80   H268  S    
C270  H264  S    
C140  C141  S    
C201  C219  A    
C283  O50   S    
C9    C287  A    
C206  C207  S    
C142  H58   S    
C278  H124  S    
C33   C268  A    
C241  H253  S    
C197  H187  S    
C162  O68   S    
C210  H218  S    
C82   C91   A    
C5    C64   S    
C239  C248  A    
C177  H140  S    
C205  H205  S    
C183  C184  S    
C275  O42   A    
O41   Zn2   S    
C74   C96   S    
C187  H164  S    
C71   O17   A    
C145  H66   S    
O12   Zn4   S    
O78   Zn9   S    
C175  C176  S    
C116  O52   S    
C170  H123  S    
O1    Zn3   S    
C142  O61   S    
C159  H97   S    
C44   C223  A    
C54   O82   S    
C175  H136  S    
C146  C214  A    
C185  H159  S    
C13   C236  A    
C111  O51   S    
C124  C257  S    
C234  H79   S    
C183  H153  S    
C139  H50   S    
C134  H39   S    
C196  H184  S    
C65   O36   A    
C12   O58   S    
C118  H3    S    
C236  H57   S    
C46   H179  S    
C265  C283  A    
C72   O20   A    
C129  H28   S    
C266  C284  A    
C16   C25   A    
C132  H36   S    
C47   C223  A    
C208  H213  S    
C216  H236  S    
O42   Zn3   S    
C63   O7    A    
C160  H99   S    
C94   H228  S    
O1    Zn16  S    
C196  C197  S    
C280  O47   A    
C133  H37   S    
C139  C140  S    
C24   H157  S    
C124  C211  A    
O11   Zn7   S    
C165  H111  S    
C209  H215  S    
C195  H183  S    
C8    C17   A    
C30   C36   S    
C141  H55   S    
C57   C256  A    
C136  H42   S    
C130  C131  S    
O40   Zn16  S    
C120  H6    S    
C126  H19   S    
C80   C88   A    
C137  H45   S    
C101  H230  S    
C53   O81   S    
C89   C96   A    
C156  C158  S    
O23   Zn12  S    
O26   Zn9   S    
O25   Zn1   S    
C35   H168  S    
C16   O61   S    
C184  H158  S    
C57   H190  S    
C163  H106  S    
C42   O70   S    
C3    C11   A    
C86   C95   A    
C1    C39   A    
C154  H86   S    
C195  C196  S    
C116  H299  S    
C271  H265  S    
C134  H41   S    
C178  H144  S    
C193  C194  S    
C106  C107  S    
C155  C156  S    
C193  H176  S    
C151  H78   S    
C36   C270  A    
C229  H294  S    
C106  H278  S    
C238  C261  A    
C188  H167  S    
C189  H169  S    
C186  C187  S    
C109  C110  S    
C108  H284  S    
C165  O69   S    
C78   C87   A    
C182  O74   S    
C156  H92   S    
C207  H211  S    
C226  C235  A    
C60   C73   S    
C144  H62   S    
C147  C148  S    
C249  C258  A    
C230  H2    S    
C86   C104  A    
O29   Zn12  S    
C271  C288  A    
C66   O10   A    
C79   H212  S    
C108  C109  S    
O34   Zn8   S    
C199  H193  S    
C4    C63   S    
C83   C103  A    
C220  C229  A    
C152  O64   S    
C246  C258  A    
C115  H297  S    
C6    C61   S    
C177  H142  S    
C70   O14   A    
C69   O13   A    
C1    C112  S    
C254  C277  S    
C43   C52   A    
C170  C171  S    
C40   C49   A    
C229  C234  A    
O21   Zn8   S    
C122  H11   S    
C51   O79   S    
C189  C191  S    
C42   C112  A    
C68   C267  A    
O35   Zn11  S    
C220  H241  S    
C192  H174  S    
C66   O37   A    
C221  C230  A    
C288  O55   S    
C4    C282  A    
C152  H82   S    
C181  H149  S    
C219  C228  A    
C171  H127  S    
C109  H286  S    
C84   C93   A    
O32   Zn9   S    
O56   Zn11  S    
C148  H71   S    
C155  H88   S    
C179  C217  A    
O20   Zn7   S    
O23   Zn7   S    
C164  H108  S    
C166  H116  S    
C213  C221  A    
C136  O59   S    
C176  H138  S    
C100  C102  S    
C53   C60   A    
C209  C210  S    
C54   C59   A    
C149  H73   S    
C26   H250  S    
O36   Zn12  S    
C274  O41   A    
C150  H75   S    
C181  H148  S    
C10   C288  A    
C269  C286  A    
C201  C262  S    
C248  C275  S    
C215  H235  S    
C265  H259  S    
C225  H245  S    
C267  H113  S    
C206  H208  S    
C2    H135  S    
C69   O39   A    
C50   C56   A    
O28   Zn15  S    
C80   C102  A    
C85   H274  S    
C192  O77   S    
C238  C247  A    
O46   Zn6   S    
C279  O2    A    
C18   O63   S    
C162  H105  S    
C121  H9    S    
C130  H29   S    
C164  H109  S    
O34   Zn13  S    
C118  H303  S    
C82   C102  A    
C31   C34   S    
C131  H33   S    
C256  H101  S    
C19   C28   A    
C211  H232  S    
C187  H165  S    
C159  H96   S    
C110  H288  S    
C109  H287  S    
O34   Zn15  S    
C76   O27   A    
C207  H209  S    
O27   Zn14  S    
C75   O24   A    
C84   C104  A    
C144  H64   S    
C45   O73   S    
C250  C259  A    
C231  H13   S    
C43   O71   S    
C120  C121  S    
C149  O63   S    
C219  H240  S    
C153  H84   S    
O34   Zn6   S    
C93   C99   A    
C182  H151  S    
C273  O40   A    
C139  H51   S    
C180  H145  S    
C158  H93   S    
C48   O75   S    
C136  C137  S    
C45   C54   A    
C254  C263  A    
C281  O4    A    
C139  O60   S    
C154  H85   S    
C174  H133  S    
O22   Zn10  S    
O17   Zn4   S    
C56   C70   S    
C155  O65   S    
O23   Zn14  S    
C168  C216  A    
C160  H98   S    
C81   C89   A    
C126  O55   S    
C169  H120  S    
C117  C118  S    
C84   H273  S    
C191  H171  S    
C28   C37   A    
C79   C278  A    
C39   O66   S    
C77   C99   S    
C125  H17   S    
C87   H220  S    
C67   O38   A    
C58   C71   S    
C214  H234  S    
C63   O33   A    
C9    C18   A    
C240  C249  A    
C62   O32   A    
C152  C153  S    
C8    C67   S    
C23   H223  S    
C205  O82   S    
O23   Zn5   S    
C164  H110  S    
C150  C151  S    
C37   C271  A    
C163  H107  S    
C57   C146  A    
C38   C272  A    
C64   O8    A    
C24   C237  A    
C184  H156  S    
C25   C33   A    
O33   Zn10  S    
C200  H195  S    
C138  H47   S    
C110  H290  S    
C131  H31   S    
C268  C285  A    
C31   C265  A    
C264  C282  A    
C107  H281  S    
C138  H49   S    
C193  H177  S    
C188  H166  S    
C270  C287  A    
C215  C224  A    
O84   Zn14  S    
C17   O62   S    
O19   Zn6   S    
C264  H258  S    
C154  H87   S    
C227  C236  A    
C44   O72   S    
C128  H23   S    
C279  O46   A    
C148  H72   S    
C9    C69   S    
C129  C130  S    
C191  H173  S    
C142  H59   S    
C123  C125  S    
C160  C161  S    
C94   C98   A    
C197  H186  S    
C272  H266  S    
C210  H219  S    
C75   C97   S    
C48   C56   A    
C117  H302  S    
C251  C281  S    
C122  O54   S    
C138  H48   S    
C253  C279  S    
C187  H163  S    
C46   C135  A    
O18   Zn5   S    
C145  H65   S    
O7    Zn3   S    
O44   Zn5   S    
C76   O29   A    
C92   H226  S    
C158  H94   S    
C243  C252  A    
C161  H103  S    
C108  O50   S    
C11   C66   S    
C162  H104  S    
C59   C72   S    
C105  H277  S    
C198  H191  S    
C5    C283  A    
C55   C60   A    
C134  H40   S    
C140  H53   S    
C127  H21   S    
C190  C218  A    
C145  C147  S    
C129  H27   S    
C50   O77   S    
C205  H206  S    
C208  H214  S    
C269  H263  S    
C148  H70   S    
C172  H129  S    
C178  O73   S    
C239  C260  A    
C221  H242  S    
C123  H14   S    
C120  H7    S    
C40   C112  A    
C101  C190  A    
C68   H201  S    
C208  C209  S    
C105  O49   S    
C199  H192  S    
C246  C254  A    
O30   Zn13  S    
C173  C174  S    
C159  O66   S    
C33   C37   S    
C82   H270  S    
C243  H255  S    
C141  H54   S    
C65   O9    A    
C246  H257  S    
C126  H20   S    
C7    C285  A    
C137  H44   S    
C186  H161  S    
C159  C160  S    
C95   H229  S    
C10   C19   A    
C245  H90   S    
C188  O76   S    
C173  H131  S    
C51   C58   A    
C91   C97   A    
C43   C212  A    
C5    C14   A    
C218  H238  S    
C230  C245  A    
C7    C16   A    
C116  H300  S    
C280  O3    A    
C244  C253  A    
C78   C100  A    
C133  C134  S    
C151  H77   S    
C242  C257  A    
C106  H279  S    
C172  O71   S    
C21   H1    S    
C68   C157  A    
C61   O31   A    
O15   Zn2   S    
C213  H233  S    
C218  C227  A    
C180  C181  S    
C162  C163  S    
C226  H246  S    
C73   O19   A    
C127  H22   S    
C28   H272  S    
C276  O43   A    
C204  H202  S    
C93   H227  S    
C158  H95   S    
C241  C250  A    
C145  O62   S    
C178  C180  S    
C119  C120  S    
C208  O83   S    
C6    C284  A    
C81   C100  A    
C27   C36   A    
C197  H188  S    
C105  C106  S    
C210  H217  S    
C216  C225  A    
C232  C267  A    
C202  H198  S    
C225  C233  A    
C23   C32   A    
C171  H126  S    
C177  H141  S    
C252  C280  S    
O9    Zn5   S    
C228  C237  A    
C277  O84   A    
C276  O78   A    
C149  C150  S    
O1    Zn10  S    
C74   O25   A    
C167  H118  S    
C14   C22   A    
C185  C186  S    
C27   H261  S    
C128  H26   S    
C170  H122  S    
C111  C114  S    
C122  H12   S    
C77   O30   A    
C206  H207  S    
C198  H189  S    
C71   O15   A    
C14   O59   S    
C235  H46   S    
C183  H154  S    
C103  C104  S    
C142  C143  S    
C135  C255  S    
C247  C276  S    
C239  H251  S    
C275  O67   A    
C128  H25   S    
C39   C48   A    
C247  C255  A    
C253  C262  A    
C119  H4    S    
C202  O81   S    
C203  C204  S    
O13   Zn8   S    
C19   O64   S    
C91   H225  S    
C165  H114  S    
C169  C170  S    
C70   O16   A    
C163  C164  S    
C92   C98   A    
C7    C62   S    
C200  H194  S    
C205  C206  S    
C83   C92   A    
C147  H69   S    
C209  H216  S    
C25   H239  S    
C282  O49   S    
C150  H76   S    
C17   C26   A    
C141  H56   S    
C78   H267  S    
C198  O80   S    
C224  C232  A    
C251  C260  A    
C41   O69   S    
O47   Zn7   S    
C116  C117  S    
C185  H160  S    
C250  C273  S    
C167  H117  S    
C195  O79   S    
O67   Zn1   S    
C6    C15   A    
C26   C34   A    
C149  H74   S    
C178  H143  S    
C81   H269  S    
C118  H304  S    
C34   C269  A    
C32   C266  A    
C198  C199  S    
C3    O57   S    
C32   C38   S    
C189  H170  S    
C217  H237  S    
C168  C261  S    
C111  H292  S    
C21   C30   A    
C117  H301  S    
C42   C51   A    
C74   O22   A    
C110  H289  S    
C73   O21   A    
C155  H89   S    
C156  H91   S    
C24   C113  A    
C204  H204  S    
C238  H249  S    
C146  C259  S    
C244  C259  A    
O45   Zn10  S    
C161  H100  S    
C237  H68   S    
C121  H10   S    
O24   Zn11  S    
C20   C29   A    
C153  H83   S    
C182  H152  S    
O16   Zn3   S    
C22   C31   A    
C40   O68   S    
C105  H276  S    
C194  H180  S    
C115  H298  S    
C130  H30   S    
C140  H52   S    
C240  H252  S    
C22   H112  S    
C35   C234  A    
C132  C133  S    
C266  H260  S    
C174  H134  S    
C143  H60   S    
C227  H247  S    
C12   C21   A    
C228  H248  S    
C49   C58   A    
C188  C189  S    
C171  H125  S    
C29   C38   A    
C123  H15   S    
C231  C256  A    
C52   C59   A    
O12   Zn2   S    
C85   C94   A    
C157  C258  S    
C87   C96   A    
O10   Zn6   S    
C194  H181  S    
C67   O11   A    
C196  H185  S    
C180  H147  S    
C152  H81   S    
O14   Zn16  S    
C181  H150  S    
C88   H221  S    
C61   O5    A    
C252  C261  A    
C75   O26   A    
O31   Zn1   S    
O43   Zn4   S    
O38   Zn14  S    
C176  C177  S    
C281  O48   A    
C222  C231  A    
O48   Zn8   S    
C83   H271  S    
C166  C167  S    
C79   C168  A    
C166  H115  S    
C240  C263  A    
C13   C101  A    
C13   H146  S    
C3    C272  A    
C174  H132  S    
C172  C173  S    
C47   C55   A    
C15   O60   S    
C200  H196  S    
C10   C65   S    
C1    C41   A    
C222  H243  S    
C233  H35   S    
C147  H67   S    
C90   C179  A    
C242  H254  S    
C195  H182  S    
C169  O70   S    
C232  H24   S    
C249  C274  S    
C136  H43   S    
O5    Zn16  S    
C18   C27   A    
C46   C245  A    
C179  C260  S    
C274  O56   A    
C133  H38   S    
C47   O74   S    
O12   Zn9   S    
C137  C138  S    
C143  H61   S    
C241  C262  A    
C192  C193  S    
C122  C123  S    
C55   O83   S    
C135  C213  A    
C277  O44   A    
C287  O54   S    
C15   C23   A    
C30   C264  A    
O4    Zn13  S    
C224  H244  S    
C203  H200  S    
C108  H285  S    
C248  C257  A    
C285  O52   S    
C167  H119  S    
C2    C235  A    
C129  O57   S    
C204  H203  S    
C190  C263  S    
C207  H210  S    
C64   O35   A    
C121  H8    S    
O1    Zn1   S    
C20   O65   S    
C144  H63   S    
C153  C154  S    
O3    Zn12  S    
C161  H102  S    
C212  C223  S    
C127  C128  S    
C114  H293  S    
C90   H224  S    
