data_mof_unit_17110.cif
_audit_creation_date              2013-03-05T16:12:27-0500
_audit_creation_method            fapswitch 2.2
_symmetry_space_group_name_H-M    P1
_symmetry_Int_Tables_number       1
_space_group_crystal_system       triclinic
_cell_length_a                    10.853911
_cell_length_b                    9.813514
_cell_length_c                    23.376414
_cell_angle_alpha                 89.848452
_cell_angle_beta                  88.86416
_cell_angle_gamma                 89.957255
_cell_volume                      2489.44035348

loop_
_atom_site_label
_atom_site_type_symbol
_atom_site_description
_atom_site_fract_x
_atom_site_fract_y
_atom_site_fract_z
_atom_type_partial_charge
O1    O     O_R   0.316770 0.614620 0.500000 -0.581625
O2    O     O_R   0.683230 0.385380 0.500000 -0.592948
O3    O     O_R   0.683230 0.614620 0.500000 -0.595009
O4    O     O_R   0.316770 0.385380 0.500000 -0.576429
C1    C     C_R   0.259955 0.500221 0.499728 0.985160
C2    C     C_R   0.740476 0.500024 0.500181 0.972570
O5    O     O_R   0.499970 0.614690 0.416160 -0.641972
O6    O     O_R   0.500030 0.385310 0.583840 -0.641313
O7    O     O_R   0.500030 0.614690 0.583840 -0.643827
O8    O     O_R   0.499970 0.385310 0.416160 -0.641569
C3    C     C_R   0.501336 0.500136 0.389165 0.905343
C4    C     C_R   0.495955 0.499818 0.610695 0.907777
Zn1   Zn    Zn3+2 0.500000 0.653120 0.500000 0.957230
Zn2   Zn    Zn3+2 0.500000 0.346880 0.500000 0.967140
C5    C     C_R   0.552190 0.455630 0.874323 0.658027
C6    C     C_R   0.385908 0.526747 0.123856 0.665144
N1    N     N_R   0.441839 0.488652 0.851389 -0.338023
N2    N     N_R   0.497825 0.499978 0.146638 -0.338419
C7    C     C_R   0.339923 0.516009 0.884209 0.704422
C8    C     C_R   0.599100 0.470463 0.113708 0.685843
C9    C     C_R   0.346509 0.511050 0.944307 -0.143550
C10   C     C_R   0.591387 0.470284 0.053693 -0.143200
C11   C     C_R   0.462845 0.487783 0.969058 -0.051130
C12   C     C_R   0.474772 0.492348 0.029052 -0.050822
C13   C     C_R   0.567316 0.459999 0.933781 -0.139374
C14   C     C_R   0.370269 0.519888 0.064375 -0.136261
C15   C     C_R   0.241704 0.531714 0.980062 0.221687
C16   C     C_R   0.695866 0.447496 0.017923 0.223551
C17   C     C_R   0.253740 0.537929 0.039473 0.228662
C18   C     C_R   0.683601 0.440320 0.958617 0.227475
O9    O     O_2   0.646133 0.418901 0.838936 -0.463209
O10   O     O_2   0.290909 0.559310 0.159341 -0.473838
O11   O     O_2   0.234629 0.551260 0.858272 -0.449996
O12   O     O_2   0.705623 0.439732 0.139588 -0.450267
C19   C     C_R   0.510268 0.375130 0.237439 0.313376
C20   C     C_R   0.404434 0.381928 0.758379 0.329728
C21   C     C_R   0.510764 0.376891 0.296998 -0.288362
C22   C     C_R   0.425024 0.384668 0.699289 -0.278901
H1    H     H_    0.512015 0.281102 0.320099 0.194406
H2    H     H_    0.402064 0.296082 0.674086 0.199214
C23   C     C_R   0.505261 0.500313 0.326745 -0.142705
C24   C     C_R   0.476649 0.499278 0.672478 -0.142346
C25   C     C_R   0.503963 0.623806 0.296746 -0.271555
C26   C     C_R   0.503223 0.615389 0.704206 -0.282385
H3    H     H_    0.501750 0.719532 0.319700 0.193796
H4    H     H_    0.540255 0.705046 0.682911 0.198815
C27   C     C_R   0.506444 0.625399 0.237128 0.325974
C28   C     C_R   0.483303 0.616809 0.763269 0.310732
C29   C     C_R   0.507686 0.500196 0.207414 0.058493
C30   C     C_R   0.436358 0.498211 0.790629 0.054716
C31   C     C_R   0.064734 0.383491 0.483158 0.335410
C32   C     C_R   0.937758 0.624483 0.507558 0.355341
C33   C     C_R   0.938947 0.376934 0.492522 0.341612
C34   C     C_R   0.063277 0.619496 0.515587 0.323645
C35   C     C_R   0.873327 0.500340 0.500397 -0.436099
C36   C     C_R   0.127843 0.500991 0.499680 -0.420384
C37   C     C_R   0.525155 0.071671 0.548677 -0.094019
C38   C     C_R   0.475611 0.928277 0.451271 -0.070721
C39   C     C_R   0.476962 0.072023 0.451150 -0.037386
C40   C     C_R   0.526229 0.927806 0.548545 -0.086253
H5    H     H_    0.545693 0.125624 0.587598 0.144469
H6    H     H_    0.455800 0.874381 0.412261 0.142622
H7    H     H_    0.460639 0.125887 0.411794 0.126626
H8    H     H_    0.547669 0.873433 0.587372 0.148112
N3    N     N_R   0.500000 0.857200 0.500000 -0.090344
N4    N     N_R   0.500000 0.142800 0.500000 -0.080973
N5    N     N_R   0.120517 0.534517 0.957053 0.268064
O13   O     O_R   0.075315 0.424414 0.934878 -0.219290
O14   O     O_R   0.051808 0.642522 0.962575 -0.226283
N6    N     N_R   0.817264 0.444446 0.040668 0.268565
O15   O     O_R   0.884504 0.335062 0.036262 -0.228569
O16   O     O_R   0.864923 0.556040 0.060299 -0.220443
N7    N     N_R   0.144672 0.554285 0.074165 0.277283
O17   O     O_R   0.096138 0.449247 0.100110 -0.230659
O18   O     O_R   0.102322 0.675808 0.084871 -0.222547
N8    N     N_R   0.792623 0.423459 0.923910 0.276491
O19   O     O_R   0.835834 0.301924 0.914023 -0.217955
O20   O     O_R   0.841296 0.528127 0.897750 -0.225370
N9    N     N_R   0.510410 0.246139 0.208232 0.232716
O21   O     O_R   0.447726 0.229257 0.161918 -0.330005
O22   O     O_R   0.563909 0.140933 0.230938 -0.304493
N10   N     N_R   0.354314 0.259917 0.784580 0.247494
O23   O     O_R   0.372843 0.230766 0.838037 -0.311745
O24   O     O_R   0.294566 0.172461 0.753878 -0.361331
N11   N     N_R   0.505013 0.754077 0.207363 0.242213
O25   O     O_R   0.560757 0.768442 0.157926 -0.310321
O26   O     O_R   0.455307 0.860612 0.231537 -0.312680
N12   N     N_R   0.515652 0.736837 0.795126 0.233296
O27   O     O_R   0.458445 0.767152 0.842833 -0.321340
O28   O     O_R   0.595375 0.823290 0.773998 -0.327417
O29   O     O_3   0.125977 0.274336 0.458246 -0.592230
C41   C     C_3   0.109955 0.281129 0.398302 0.138410
H9    H     H_    0.109521 0.388206 0.381743 0.117085
H10   H     H_    0.021385 0.231682 0.387353 0.182205
C42   C     C_3   0.216066 0.206645 0.368171 -0.423877
H11   H     H_    0.303283 0.258020 0.379080 0.240828
H12   H     H_    0.219713 0.099283 0.383308 0.235847
C43   C     C_3   0.203510 0.209452 0.303253 -0.808324
H13   H     H_    0.115383 0.161846 0.290645 0.278194
H14   H     H_    0.280946 0.151922 0.283044 0.299074
H15   H     H_    0.206729 0.316120 0.287240 0.278695
O30   O     O_3   0.879944 0.750324 0.511273 -0.602896
C44   C     C_3   0.858976 0.801589 0.455408 0.154133
H16   H     H_    0.785217 0.879870 0.459184 0.170866
H17   H     H_    0.824261 0.721931 0.425826 0.125833
C45   C     C_3   0.974262 0.868570 0.428780 -0.373329
H18   H     H_    0.009993 0.947414 0.457969 0.262809
H19   H     H_    0.047179 0.790738 0.421505 0.230760
C46   C     C_3   0.945098 0.934462 0.371438 -0.884064
H20   H     H_    0.906373 0.857916 0.341846 0.280176
H21   H     H_    0.030835 0.975989 0.351669 0.272709
H22   H     H_    0.877898 0.018859 0.377606 0.275319
O31   O     O_3   0.882351 0.250983 0.487857 -0.605771
C47   C     C_3   0.858317 0.196330 0.543269 0.148324
H23   H     H_    0.791798 0.111411 0.538331 0.169624
H24   H     H_    0.813376 0.271782 0.572528 0.133024
C48   C     C_3   0.974497 0.139741 0.571309 -0.388869
H25   H     H_    0.023104 0.068613 0.541793 0.260157
H26   H     H_    0.038074 0.224590 0.581449 0.223227
C49   C     C_3   0.941226 0.064982 0.626811 -0.861781
H27   H     H_    0.887960 0.132815 0.656171 0.280925
H28   H     H_    0.026501 0.033476 0.648531 0.277271
H29   H     H_    0.885648 0.972820 0.617647 0.273874
O32   O     O_3   0.123277 0.734784 0.534506 -0.592962
C50   C     C_3   0.127771 0.729375 0.594870 0.144000
H30   H     H_    0.152001 0.625409 0.610773 0.113765
H31   H     H_    0.036725 0.759682 0.613542 0.170318
C51   C     C_3   0.226520 0.827883 0.615159 -0.395942
H32   H     H_    0.316965 0.796609 0.596634 0.253472
H33   H     H_    0.206055 0.932606 0.599855 0.237553
C52   C     C_3   0.234701 0.827825 0.680272 -0.812449
H34   H     H_    0.146508 0.862885 0.700094 0.286144
H35   H     H_    0.309531 0.897467 0.693427 0.295699
H36   H     H_    0.255425 0.723741 0.696168 0.264593

loop_
_geom_bond_atom_site_label_1
_geom_bond_atom_site_label_2
_geom_bond_distance
_ccdc_geom_bond_type
C38   H6    1.080769 S    
C15   C17   1.399014 A    
N7    O18   1.300899 A    
N7    O17   1.301043 A    
C1    C36   1.433962 S    
C42   H11   1.107397 S    
C2    C35   1.442070 S    
C52   H36   1.110380 S    
C51   H32   1.108522 S    
C47   H23   1.110758 S    
C42   C43   1.526498 S    
C27   C29   1.412944 A    
Zn1   N3    2.002742 S    
N11   O25   1.301167 A    
O5    C3    1.290576 A    
C32   O30   1.386954 S    
O1    C1    1.281367 A    
C27   N11   1.440400 S    
C19   C21   1.392525 A    
C12   C14   1.415984 A    
C22   C24   1.398244 A    
C46   H21   1.108221 S    
C39   N4    1.365563 A    
C5    C13   1.403568 A    
C17   N7    1.430797 S    
C45   H18   1.108323 S    
C31   C36   1.400713 A    
C19   N9    1.439827 S    
O7    Zn1   1.994861 S    
C4    C24   1.455272 S    
C33   O31   1.386174 S    
C31   O29   1.383961 S    
C20   N10   1.445203 S    
C19   C29   1.412778 A    
C50   C51   1.527214 S    
C11   C12   1.411805 A    
C28   N12   1.442535 S    
N6    O15   1.300758 A    
C37   N4    1.365446 A    
O3    Zn1   2.024055 S    
C32   C35   1.417124 A    
C8    O12   1.349061 S    
O3    C2    1.284451 A    
C28   C30   1.416790 A    
C9    C15   1.413006 A    
C10   C16   1.413569 A    
C21   C23   1.398868 A    
C23   C25   1.398769 A    
O2    C2    1.285703 A    
C24   C26   1.394672 A    
O7    C4    1.289217 A    
C32   C34   1.379739 A    
N11   O26   1.301397 A    
C6    C14   1.405908 A    
C34   C36   1.404485 A    
N8    O20   1.301074 A    
N5    O13   1.300281 A    
N8    O19   1.300855 A    
C7    O11   1.348770 S    
C48   C49   1.526041 S    
O29   C41   1.416846 S    
N9    O22   1.301271 A    
C37   C40   1.411869 A    
C26   H4    1.083415 S    
C38   C39   1.410729 A    
C41   C42   1.525172 S    
N5    O14   1.300752 A    
C18   N8    1.431151 S    
C38   N3    1.364424 A    
O6    C4    1.288935 A    
C41   H10   1.111865 S    
Zn2   N4    2.002742 S    
C44   H17   1.115739 S    
C37   H5    1.081011 S    
C25   H3    1.083096 S    
C8    C10   1.407086 A    
C40   N3    1.366090 A    
C43   H13   1.110243 S    
N10   O24   1.301846 A    
C9    C11   1.417439 A    
O8    Zn2   1.994863 S    
C50   H30   1.117951 S    
C10   C12   1.417240 A    
C46   H22   1.110996 S    
O1    Zn1   2.024610 S    
C33   C35   1.415102 A    
C52   H34   1.110032 S    
C51   C52   1.526463 S    
C20   C30   1.416369 A    
C49   H27   1.111091 S    
C49   H28   1.107891 S    
O31   C47   1.420111 S    
C13   C18   1.412613 A    
C5    N1    1.360498 A    
C34   O32   1.383797 S    
C42   H12   1.111478 S    
O6    Zn2   1.996820 S    
C7    C9    1.408818 A    
C16   N6    1.430874 S    
N12   O28   1.301701 A    
O4    C1    1.284334 A    
C52   H35   1.110475 S    
C51   H33   1.111019 S    
N1    C30   1.425630 S    
C47   H24   1.114875 S    
C49   H29   1.111199 S    
C5    O9    1.349639 S    
C6    O10   1.349221 S    
C43   H15   1.111120 S    
C39   H7    1.077482 S    
C40   H8    1.080883 S    
C48   H26   1.110891 S    
C21   H1    1.083074 S    
C48   H25   1.108697 S    
C20   C22   1.395095 A    
C22   H2    1.083418 S    
C45   H19   1.110467 S    
C16   C18   1.397343 A    
C41   H9    1.118914 S    
N1    C7    1.360646 A    
C3    C23   1.458918 S    
C44   C45   1.534100 S    
N2    C8    1.360867 A    
C11   C13   1.415558 A    
O4    Zn2   2.024056 S    
O30   C44   1.420733 S    
O2    Zn2   2.024609 S    
C43   H14   1.110535 S    
C47   C48   1.535577 S    
C15   N5    1.431126 S    
O8    C3    1.290006 A    
N9    O21   1.301079 A    
O5    Zn1   1.996822 S    
N12   O27   1.300677 A    
C14   C17   1.413589 A    
C6    N2    1.361123 A    
N10   O23   1.300706 A    
C44   H16   1.111532 S    
C50   H31   1.112953 S    
N6    O16   1.300155 A    
C31   C33   1.379941 A    
C46   H20   1.110951 S    
C25   C27   1.393444 A    
C26   C28   1.393378 A    
N2    C29   1.426875 S    
O32   C50   1.413760 S    
C45   C46   1.525482 S    
